MODEL 4
REMARK VINA RESULT: -7.571019406      2.171      6.408
REMARK  11 active torsions:
REMARK  status: ('A' for Active; 'I' for Inactive)
REMARK    1  A    between atoms: C2_2  and  C3_3
REMARK    2  A    between atoms: C6_7  and  O2_8
REMARK    3  A    between atoms: O2_8  and  C7_9
REMARK    4  A    between atoms: C8_11  and  C9_12
REMARK    5  A    between atoms: C9_12  and  N1_13
REMARK    6  A    between atoms: C12_19  and  N2_20
REMARK    7  A    between atoms: C13_24  and  O4_25
REMARK    8  A    between atoms: O4_25  and  C14_26
REMARK    9  A    between atoms: C15_27  and  N3_28
REMARK   10  A    between atoms: C17_33  and  N4_34
REMARK   11  A    between atoms: C20_40  and  N5_41
ROOT
HETATM    1  C3  UNL     1      21.948   8.361  23.188  1.00  0.00     0.157 C
HETATM    2  O1  UNL     1      22.832   8.296  22.113  1.00  0.00    -0.351 OA
HETATM    3  C4  UNL     1      24.111   8.528  22.589  1.00  0.00     0.324 C
HETATM    4  C5  UNL     1      24.421  10.017  22.359  1.00  0.00     0.096 C
HETATM    5  C6  UNL     1      23.107  10.750  22.721  1.00  0.00     0.160 C
HETATM    6  C13 UNL     1      22.735  10.461  24.147  1.00  0.00     0.184 C
HETATM    7  C22 UNL     1      22.751   8.951  24.330  1.00  0.00     0.248 C
HETATM    8  N6  UNL     1      24.061   8.372  24.025  1.00  0.00    -0.040 N
ATOM      9  H61 UNL     1      24.846   8.775  24.535  1.00  0.00     0.280 HD
ATOM     10  H62 UNL     1      24.209   7.422  24.365  1.00  0.00     0.280 HD
ENDROOT
BRANCH   6  11
HETATM   11  O4  UNL     1      23.596  11.153  24.984  1.00  0.00    -0.372 OA
BRANCH  11  12
HETATM   12  C14 UNL     1      23.305  11.136  26.307  1.00  0.00     0.183 C
HETATM   13  C15 UNL     1      22.701  12.438  26.845  1.00  0.00     0.216 C
HETATM   14  C16 UNL     1      23.334  12.867  28.132  1.00  0.00     0.068 C
HETATM   15  C17 UNL     1      23.502  11.826  29.160  1.00  0.00     0.191 C
HETATM   16  C18 UNL     1      23.669  10.470  28.568  1.00  0.00     0.045 C
HETATM   17  C19 UNL     1      24.449   9.527  29.438  1.00  0.00     0.014 C
HETATM   18  C20 UNL     1      24.392  10.702  27.227  1.00  0.00     0.221 C
BRANCH  13  19
HETATM   19  N3  UNL     1      21.285  12.277  27.032  1.00  0.00    -0.072 N
ATOM     20  H33 UNL     1      20.881  11.622  26.362  1.00  0.00     0.274 HD
ATOM     21  H32 UNL     1      21.066  11.765  27.888  1.00  0.00     0.274 HD
ATOM     22  H31 UNL     1      20.826  13.188  27.003  1.00  0.00     0.274 HD
ENDBRANCH  13  19
BRANCH  15  23
HETATM   23  N4  UNL     1      22.440  11.871  30.156  1.00  0.00    -0.075 N
ATOM     24  H43 UNL     1      22.809  12.091  31.082  1.00  0.00     0.274 HD
ATOM     25  H42 UNL     1      21.843  12.687  30.025  1.00  0.00     0.274 HD
ATOM     26  H41 UNL     1      21.894  11.010  30.170  1.00  0.00     0.274 HD
ENDBRANCH  15  23
BRANCH  18  27
HETATM   27  N5  UNL     1      25.280   9.682  26.901  1.00  0.00    -0.072 N
HETATM   28  C21 UNL     1      26.573  10.181  26.515  1.00  0.00     0.267 C
ATOM     29  H52 UNL     1      25.359   9.006  27.661  1.00  0.00     0.277 HD
ATOM     30  H51 UNL     1      24.891   9.073  26.180  1.00  0.00     0.277 HD
ENDBRANCH  18  27
ENDBRANCH  11  12
ENDBRANCH   6  11
BRANCH   5  31
HETATM   31  O2  UNL     1      23.270  12.063  22.384  1.00  0.00    -0.351 OA
BRANCH  31  32
HETATM   32  C7  UNL     1      22.063  12.760  22.319  1.00  0.00     0.291 C
HETATM   33  O3  UNL     1      21.890  13.522  23.453  1.00  0.00    -0.352 OA
HETATM   34  C8  UNL     1      20.616  14.060  23.557  1.00  0.00     0.150 C
HETATM   35  C10 UNL     1      20.076  14.602  22.262  1.00  0.00     0.036 C
HETATM   36  C11 UNL     1      21.284  14.905  21.365  1.00  0.00     0.040 C
HETATM   37  C12 UNL     1      21.887  13.535  21.055  1.00  0.00     0.238 C
BRANCH  34  38
HETATM   38  C9  UNL     1      19.618  13.068  24.112  1.00  0.00     0.261 C
BRANCH  38  39
HETATM   39  N1  UNL     1      18.333  13.731  24.192  1.00  0.00    -0.077 N
ATOM     40  H13 UNL     1      17.808  13.479  25.031  1.00  0.00     0.274 HD
ATOM     41  H12 UNL     1      18.414  14.731  24.380  1.00  0.00     0.274 HD
ATOM     42  H11 UNL     1      17.823  13.530  23.332  1.00  0.00     0.274 HD
ENDBRANCH  38  39
ENDBRANCH  34  38
BRANCH  37  43
HETATM   43  N2  UNL     1      20.935  12.868  20.188  1.00  0.00    -0.070 N
ATOM     44  H23 UNL     1      21.383  12.168  19.597  1.00  0.00     0.274 HD
ATOM     45  H22 UNL     1      20.313  12.249  20.710  1.00  0.00     0.274 HD
ATOM     46  H21 UNL     1      20.417  13.555  19.641  1.00  0.00     0.274 HD
ENDBRANCH  37  43
ENDBRANCH  31  32
ENDBRANCH   5  31
BRANCH   1  47
HETATM   47  C2  UNL     1      21.511   6.943  23.492  1.00  0.00     0.029 C
HETATM   48  C1  UNL     1      21.180   6.180  22.225  1.00  0.00     0.007 C
ENDBRANCH   1  47
TORSDOF 11
ENDMDL