MODEL 2
REMARK VINA RESULT: -8.536738106      3.847      6.377
REMARK  13 active torsions:
REMARK  status: ('A' for Active; 'I' for Inactive)
REMARK    1  A    between atoms: C2_2  and  C3_3
REMARK    2  A    between atoms: C3_3  and  C4_4
REMARK    3  A    between atoms: C8_8  and  O1_9
REMARK    4  A    between atoms: O1_9  and  C9_10
REMARK    5  A    between atoms: C10_12  and  O3_13
REMARK    6  A    between atoms: C11_15  and  O4_16
REMARK    7  A    between atoms: C12_18  and  O5_19
REMARK    8  A    between atoms: O5_19  and  C13_20
REMARK    9  A    between atoms: C14_22  and  C15_23
REMARK   10  A    between atoms: C15_23  and  N1_24
REMARK   11  A    between atoms: C16_28  and  O7_29
REMARK   12  A    between atoms: C17_31  and  O8_32
REMARK   13  A    between atoms: C18_34  and  O9_35
ROOT
HETATM    1  C9  UNL     1      23.786   8.109  22.718  1.00  0.00     0.295 C
HETATM    2  O2  UNL     1      23.580   6.885  22.080  1.00  0.00    -0.326 OA
HETATM    3  C10 UNL     1      22.293   6.500  22.279  1.00  0.00     0.291 C
HETATM    4  C11 UNL     1      21.925   7.085  23.629  1.00  0.00     0.207 C
HETATM    5  C12 UNL     1      22.538   8.519  23.392  1.00  0.00     0.213 C
ENDROOT
BRANCH   5   6
HETATM    6  O5  UNL     1      21.663   9.120  22.523  1.00  0.00    -0.346 OA
BRANCH   6   7
HETATM    7  C13 UNL     1      21.601  10.511  22.623  1.00  0.00     0.292 C
HETATM    8  O6  UNL     1      22.055  10.817  23.915  1.00  0.00    -0.349 OA
HETATM    9  C14 UNL     1      21.942  12.149  24.245  1.00  0.00     0.181 C
HETATM   10  C16 UNL     1      20.508  12.636  24.151  1.00  0.00     0.180 C
HETATM   11  C17 UNL     1      19.930  12.383  22.780  1.00  0.00     0.183 C
HETATM   12  C18 UNL     1      20.175  10.937  22.430  1.00  0.00     0.204 C
BRANCH   9  13
HETATM   13  C15 UNL     1      22.362  12.269  25.695  1.00  0.00     0.264 C
BRANCH  13  14
HETATM   14  N1  UNL     1      21.288  12.547  26.595  1.00  0.00    -0.077 N
ATOM     15  H13 UNL     1      20.448  12.807  26.078  1.00  0.00     0.274 HD
ATOM     16  H12 UNL     1      20.962  11.688  27.037  1.00  0.00     0.274 HD
ATOM     17  H11 UNL     1      21.505  13.252  27.300  1.00  0.00     0.274 HD
ENDBRANCH  13  14
ENDBRANCH   9  13
BRANCH  10  18
HETATM   18  O7  UNL     1      20.462  14.002  24.357  1.00  0.00    -0.390 OA
ATOM     19  H7  UNL     1      20.082  14.430  23.599  1.00  0.00     0.210 HD
ENDBRANCH  10  18
BRANCH  11  20
HETATM   20  O8  UNL     1      20.432  13.268  21.849  1.00  0.00    -0.390 OA
ATOM     21  H8  UNL     1      21.042  12.842  21.258  1.00  0.00     0.210 HD
ENDBRANCH  11  20
BRANCH  12  22
HETATM   22  O9  UNL     1      19.793  10.665  21.116  1.00  0.00    -0.388 OA
ATOM     23  H9  UNL     1      18.870  10.436  21.103  1.00  0.00     0.210 HD
ENDBRANCH  12  22
ENDBRANCH   6   7
ENDBRANCH   5   6
BRANCH   1  24
HETATM   24  O1  UNL     1      24.345   8.966  21.811  1.00  0.00    -0.353 OA
BRANCH  24  25
HETATM   25  C8  UNL     1      25.362   9.674  22.397  1.00  0.00     0.126 C
HETATM   26  C7  UNL     1      26.730   9.271  21.829  1.00  0.00     0.041 C
HETATM   27  C6  UNL     1      27.780   9.956  22.703  1.00  0.00     0.017 C
HETATM   28  C5  UNL     1      28.466  11.006  21.817  1.00  0.00     0.014 C
HETATM   29  C21 UNL     1      27.140  10.860  23.701  1.00  0.00    -0.080 C
HETATM   30  C4  UNL     1      27.479  12.140  21.786  1.00  0.00    -0.002 C
HETATM   31  C20 UNL     1      26.429  11.863  22.847  1.00  0.00     0.021 C
HETATM   32  C19 UNL     1      25.256  11.163  22.188  1.00  0.00     0.041 C
HETATM   33  C22 UNL     1      27.187  10.796  25.025  1.00  0.00     0.015 C
BRANCH  30  34
HETATM   34  C3  UNL     1      28.158  13.479  22.037  1.00  0.00     0.031 C
BRANCH  34  35
HETATM   35  C2  UNL     1      27.923  14.327  20.821  1.00  0.00    -0.037 C
HETATM   36  C1  UNL     1      28.644  15.404  20.635  1.00  0.00     0.007 C
ENDBRANCH  34  35
ENDBRANCH  30  34
ENDBRANCH  24  25
ENDBRANCH   1  24
BRANCH   4  37
HETATM   37  O4  UNL     1      20.554   7.163  23.708  1.00  0.00    -0.388 OA
ATOM     38  H4  UNL     1      20.295   6.973  24.602  1.00  0.00     0.210 HD
ENDBRANCH   4  37
BRANCH   3  39
HETATM   39  O3  UNL     1      22.116   5.120  22.264  1.00  0.00    -0.368 OA
ATOM     40  H3  UNL     1      21.253   4.844  22.549  1.00  0.00     0.212 HD
ENDBRANCH   3  39
TORSDOF 13
ENDMDL