MODEL 5
REMARK VINA RESULT: -8.522808388      2.455      5.501
REMARK  10 active torsions:
REMARK  status: ('A' for Active; 'I' for Inactive)
REMARK    1  A    between atoms: C3_3  and  C4_4
REMARK    2  A    between atoms: C5_5  and  C6_6
REMARK    3  A    between atoms: C8_9  and  O2_10
REMARK    4  A    between atoms: O2_10  and  C9_11
REMARK    5  A    between atoms: C10_13  and  O4_14
REMARK    6  A    between atoms: C13_19  and  O5_20
REMARK    7  A    between atoms: C14_22  and  O6_23
REMARK    8  A    between atoms: C17_28  and  C18_29
REMARK    9  A    between atoms: C19_32  and  O10_33
REMARK   10  A    between atoms: C19_32  and  C20_35
ROOT
HETATM    1  C6  UNL     1      23.825  10.485  22.365  1.00  0.00     0.157 C
HETATM    2  O1  UNL     1      23.841   9.168  22.803  1.00  0.00    -0.358 OA
HETATM    3  C7  UNL     1      22.670   9.321  23.507  1.00  0.00     0.193 C
HETATM    4  C8  UNL     1      22.521   8.689  24.835  1.00  0.00     0.188 C
HETATM    5  C13 UNL     1      23.541   9.174  25.791  1.00  0.00     0.178 C
HETATM    6  C14 UNL     1      23.675  10.644  25.883  1.00  0.00     0.152 C
HETATM    7  C15 UNL     1      23.372  11.452  24.694  1.00  0.00     0.079 C
HETATM    8  C16 UNL     1      22.878  10.786  23.488  1.00  0.00     0.131 C
HETATM    9  O7  UNL     1      21.789  11.459  22.937  1.00  0.00    -0.354 OA
HETATM   10  C17 UNL     1      21.601  11.020  21.652  1.00  0.00     0.272 C
HETATM   11  C19 UNL     1      22.986  10.778  21.140  1.00  0.00     0.220 C
ENDROOT
BRANCH   4  12
HETATM   12  O2  UNL     1      22.573   7.300  24.712  1.00  0.00    -0.348 OA
BRANCH  12  13
HETATM   13  C9  UNL     1      21.541   6.797  23.959  1.00  0.00     0.297 C
HETATM   14  O3  UNL     1      20.775   7.817  23.410  1.00  0.00    -0.329 OA
HETATM   15  C10 UNL     1      20.168   7.294  22.277  1.00  0.00     0.263 C
HETATM   16  C11 UNL     1      21.080   6.260  21.712  1.00  0.00     0.103 C
HETATM   17  C12 UNL     1      21.957   5.889  22.861  1.00  0.00     0.230 C
HETATM   18  F1  UNL     1      23.284   6.032  22.498  1.00  0.00    -0.244 F
BRANCH  15  19
HETATM   19  O4  UNL     1      19.835   8.246  21.341  1.00  0.00    -0.371 OA
ATOM     20  H4  UNL     1      20.238   9.091  21.498  1.00  0.00     0.212 HD
ENDBRANCH  15  19
ENDBRANCH  12  13
ENDBRANCH   4  12
BRANCH   5  21
HETATM   21  O5  UNL     1      24.786   8.517  25.622  1.00  0.00    -0.390 OA
ATOM     22  H5  UNL     1      24.784   7.936  24.869  1.00  0.00     0.210 HD
ENDBRANCH   5  21
BRANCH   6  23
HETATM   23  O6  UNL     1      24.965  10.919  26.404  1.00  0.00    -0.393 OA
ATOM     24  H6  UNL     1      25.334  11.626  25.888  1.00  0.00     0.210 HD
ENDBRANCH   6  23
BRANCH   1  25
HETATM   25  C5  UNL     1      25.098  11.192  22.328  1.00  0.00     0.018 C
HETATM   26  C4  UNL     1      26.265  10.635  22.509  1.00  0.00    -0.001 C
BRANCH  26  27
HETATM   27  C3  UNL     1      27.504  11.408  22.455  1.00  0.00    -0.005 C
HETATM   28  C2  UNL     1      28.533  11.046  21.725  1.00  0.00    -0.031 C
HETATM   29  C1  UNL     1      28.496   9.805  20.901  1.00  0.00     0.036 C
ENDBRANCH  26  27
ENDBRANCH   1  25
BRANCH  11  30
HETATM   30  O10 UNL     1      23.432  12.055  20.688  1.00  0.00    -0.373 OA
ATOM     31  H10 UNL     1      23.664  11.924  19.776  1.00  0.00     0.211 HD
ENDBRANCH  11  30
BRANCH  11  32
HETATM   32  C20 UNL     1      23.119   9.830  20.050  1.00  0.00     0.216 C
HETATM   33  O11 UNL     1      24.143   9.766  19.324  1.00  0.00    -0.646 OA
HETATM   34  O12 UNL     1      22.104   8.924  19.741  1.00  0.00    -0.646 OA
ENDBRANCH  11  32
BRANCH  10  35
HETATM   35  C18 UNL     1      20.970  12.112  20.849  1.00  0.00     0.207 C
HETATM   36  O8  UNL     1      20.911  13.314  21.223  1.00  0.00    -0.646 OA
HETATM   37  O9  UNL     1      20.419  11.789  19.630  1.00  0.00    -0.646 OA
ENDBRANCH  10  35
TORSDOF 10
ENDMDL