MODEL 2
REMARK VINA RESULT: -8.721781435      2.489      3.871
REMARK  12 active torsions:
REMARK  status: ('A' for Active; 'I' for Inactive)
REMARK    1  A    between atoms: C2_2  and  C3_3
REMARK       I    between atoms: C3_3  and  N1_5
REMARK    2  A    between atoms: N1_5  and  C4_7
REMARK    3  A    between atoms: C4_7  and  C5_8
REMARK    4  A    between atoms: C6_10  and  O3_11
REMARK    5  A    between atoms: O3_11  and  C7_12
REMARK    6  A    between atoms: C8_13  and  N2_14
REMARK    7  A    between atoms: C12_21  and  O4_22
REMARK    8  A    between atoms: O4_22  and  C13_23
REMARK    9  A    between atoms: C16_26  and  O5_27
REMARK   10  A    between atoms: C19_32  and  O7_33
REMARK   11  A    between atoms: C20_35  and  O8_36
REMARK   12  A    between atoms: C21_38  and  O9_39
ROOT
HETATM    1  C7  UNL     1      23.409  11.109  24.278  1.00  0.00     0.184 C
HETATM    2  C8  UNL     1      22.678  12.304  23.641  1.00  0.00     0.215 C
HETATM    3  C9  UNL     1      21.315  12.327  24.282  1.00  0.00     0.035 C
HETATM    4  C10 UNL     1      21.371  12.492  25.766  1.00  0.00     0.005 C
HETATM    5  C11 UNL     1      22.409  11.641  26.440  1.00  0.00     0.035 C
HETATM    6  C12 UNL     1      23.713  11.584  25.684  1.00  0.00     0.155 C
ENDROOT
BRANCH   1   7
HETATM    7  O3  UNL     1      22.440  10.116  24.376  1.00  0.00    -0.349 OA
BRANCH   7   8
HETATM    8  C6  UNL     1      22.967   8.841  24.211  1.00  0.00     0.292 C
HETATM    9  O2  UNL     1      23.909   8.777  23.204  1.00  0.00    -0.349 OA
HETATM   10  C5  UNL     1      23.368   8.847  21.919  1.00  0.00     0.173 C
HETATM   11  C21 UNL     1      22.555   7.563  21.705  1.00  0.00     0.180 C
HETATM   12  C20 UNL     1      21.371   7.677  22.637  1.00  0.00     0.183 C
HETATM   13  C19 UNL     1      21.816   7.883  24.052  1.00  0.00     0.204 C
BRANCH  10  14
HETATM   14  C4  UNL     1      24.500   8.898  20.948  1.00  0.00     0.157 C
BRANCH  14  15
HETATM   15  N1  UNL     1      25.412   9.953  21.312  1.00  0.00    -0.359 N
HETATM   16  C3  UNL     1      26.777   9.684  21.597  1.00  0.00     0.217 C
HETATM   17  O1  UNL     1      27.174   8.496  21.524  1.00  0.00    -0.274 OA
ATOM     18  H1  UNL     1      25.071  10.912  21.367  1.00  0.00     0.162 HD
BRANCH  16  19
HETATM   19  C2  UNL     1      27.693  10.801  21.971  1.00  0.00     0.098 C
HETATM   20  C1  UNL     1      27.385  11.303  23.366  1.00  0.00     0.014 C
ENDBRANCH  16  19
ENDBRANCH  14  15
ENDBRANCH  10  14
BRANCH  11  21
HETATM   21  O9  UNL     1      23.318   6.436  21.947  1.00  0.00    -0.390 OA
ATOM     22  H9  UNL     1      22.857   5.645  21.694  1.00  0.00     0.210 HD
ENDBRANCH  11  21
BRANCH  12  23
HETATM   23  O8  UNL     1      20.484   6.631  22.496  1.00  0.00    -0.390 OA
ATOM     24  H8  UNL     1      19.580   6.916  22.428  1.00  0.00     0.210 HD
ENDBRANCH  12  23
BRANCH  13  25
HETATM   25  O7  UNL     1      22.215   6.652  24.579  1.00  0.00    -0.388 OA
ATOM     26  H7  UNL     1      22.568   6.134  23.866  1.00  0.00     0.210 HD
ENDBRANCH  13  25
ENDBRANCH   7   8
ENDBRANCH   1   7
BRANCH   2  27
HETATM   27  N2  UNL     1      22.553  12.137  22.219  1.00  0.00    -0.072 N
ATOM     28  H23 UNL     1      22.466  11.154  21.962  1.00  0.00     0.274 HD
ATOM     29  H22 UNL     1      21.649  12.467  21.881  1.00  0.00     0.274 HD
ATOM     30  H21 UNL     1      23.325  12.587  21.725  1.00  0.00     0.274 HD
ENDBRANCH   2  27
BRANCH   6  31
HETATM   31  O4  UNL     1      24.604  10.794  26.363  1.00  0.00    -0.353 OA
BRANCH  31  32
HETATM   32  C13 UNL     1      24.384  10.849  27.738  1.00  0.00     0.261 C
HETATM   33  C14 UNL     1      25.476  11.640  28.440  1.00  0.00     0.070 C
HETATM   34  C15 UNL     1      25.402  11.094  29.845  1.00  0.00     0.048 A
HETATM   35  C16 UNL     1      26.685  10.461  30.335  1.00  0.00     0.127 A
HETATM   36  C18 UNL     1      24.741   9.764  29.656  1.00  0.00     0.133 A
HETATM   37  C17 UNL     1      26.044   9.111  30.128  1.00  0.00     0.064 A
HETATM   38  O6  UNL     1      24.489   9.606  28.312  1.00  0.00    -0.355 OA
BRANCH  35  39
HETATM   39  O5  UNL     1      27.802  10.700  29.543  1.00  0.00    -0.395 OA
ATOM     40  H5  UNL     1      28.146   9.939  29.091  1.00  0.00     0.210 HD
ENDBRANCH  35  39
ENDBRANCH  31  32
ENDBRANCH   6  31
TORSDOF 12
ENDMDL