MODEL 2
REMARK VINA RESULT: -8.293844348      3.191      8.096
REMARK  13 active torsions:
REMARK  status: ('A' for Active; 'I' for Inactive)
REMARK    1  A    between atoms: N1_2  and  C2_5
REMARK    2  A    between atoms: C2_5  and  C3_6
REMARK    3  A    between atoms: C3_6  and  N2_7
REMARK    4  A    between atoms: N2_7  and  C4_8
REMARK    5  A    between atoms: C9_14  and  O2_15
REMARK    6  A    between atoms: O2_15  and  C10_16
REMARK    7  A    between atoms: C12_18  and  O3_19
REMARK    8  A    between atoms: O3_19  and  C13_20
REMARK    9  A    between atoms: C16_24  and  O5_25
REMARK   10  A    between atoms: C17_27  and  O6_28
REMARK   11  A    between atoms: C18_30  and  O7_31
REMARK   12  A    between atoms: C19_33  and  N3_34
REMARK   13  A    between atoms: C21_39  and  N4_40
ROOT
HETATM    1  C10 UNL     1      22.666  11.947  24.194  1.00  0.00     0.158 C
HETATM    2  C11 UNL     1      21.889  11.408  23.002  1.00  0.00     0.068 C
HETATM    3  C12 UNL     1      20.450  11.861  23.024  1.00  0.00     0.157 C
HETATM    4  C19 UNL     1      20.260  13.291  23.388  1.00  0.00     0.214 C
HETATM    5  C20 UNL     1      21.113  13.758  24.532  1.00  0.00     0.070 C
HETATM    6  C21 UNL     1      21.702  12.531  25.197  1.00  0.00     0.214 C
ENDROOT
BRANCH   1   7
HETATM    7  O2  UNL     1      23.552  11.025  24.677  1.00  0.00    -0.347 OA
BRANCH   7   8
HETATM    8  C9  UNL     1      24.801  11.081  24.141  1.00  0.00     0.321 C
HETATM    9  C4  UNL     1      25.927  10.779  25.058  1.00  0.00     0.116 C
HETATM   10  C5  UNL     1      27.263  11.185  24.453  1.00  0.00     0.076 C
HETATM   11  C6  UNL     1      27.133  11.314  22.958  1.00  0.00     0.038 C
HETATM   12  C7  UNL     1      26.068  10.507  22.323  1.00  0.00     0.121 C
HETATM   13  C8  UNL     1      26.606   9.229  21.680  1.00  0.00     0.040 C
HETATM   14  O1  UNL     1      24.982  10.180  23.078  1.00  0.00    -0.350 OA
BRANCH   9  15
HETATM   15  N2  UNL     1      25.904  10.277  26.142  1.00  0.00    -0.424 NA
BRANCH  15  16
HETATM   16  C3  UNL     1      25.879   9.718  27.329  1.00  0.00     0.182 C
BRANCH  16  17
HETATM   17  C2  UNL     1      24.613   8.957  27.733  1.00  0.00     0.290 C
BRANCH  17  18
HETATM   18  N1  UNL     1      23.456   9.788  27.604  1.00  0.00    -0.074 N
HETATM   19  C1  UNL     1      23.061  10.347  28.860  1.00  0.00     0.267 C
ATOM     20  H12 UNL     1      22.686   9.286  27.162  1.00  0.00     0.277 HD
ATOM     21  H11 UNL     1      23.598  10.514  26.902  1.00  0.00     0.277 HD
ENDBRANCH  17  18
ENDBRANCH  16  17
ENDBRANCH  15  16
ENDBRANCH   9  15
ENDBRANCH   7   8
ENDBRANCH   1   7
BRANCH   6  22
HETATM   22  N4  UNL     1      22.279  12.852  26.464  1.00  0.00    -0.072 N
ATOM     23  H43 UNL     1      21.792  12.357  27.211  1.00  0.00     0.274 HD
ATOM     24  H42 UNL     1      23.205  12.432  26.548  1.00  0.00     0.274 HD
ATOM     25  H41 UNL     1      22.324  13.850  26.672  1.00  0.00     0.274 HD
ENDBRANCH   6  22
BRANCH   3  26
HETATM   26  O3  UNL     1      19.984  11.587  21.714  1.00  0.00    -0.351 OA
BRANCH  26  27
HETATM   27  C13 UNL     1      20.990  11.324  20.832  1.00  0.00     0.292 C
HETATM   28  O4  UNL     1      20.887  10.061  20.245  1.00  0.00    -0.351 OA
HETATM   29  C14 UNL     1      22.005   9.671  19.565  1.00  0.00     0.152 C
HETATM   30  C15 UNL     1      21.529   8.676  18.491  1.00  0.00     0.042 C
HETATM   31  C16 UNL     1      22.808  10.714  18.891  1.00  0.00     0.178 C
HETATM   32  C17 UNL     1      22.359  12.121  18.992  1.00  0.00     0.183 C
HETATM   33  C18 UNL     1      21.000  12.277  19.627  1.00  0.00     0.204 C
BRANCH  31  34
HETATM   34  O5  UNL     1      23.052  10.415  17.534  1.00  0.00    -0.390 OA
ATOM     35  H5  UNL     1      23.978  10.311  17.346  1.00  0.00     0.210 HD
ENDBRANCH  31  34
BRANCH  32  36
HETATM   36  O6  UNL     1      22.309  12.721  17.731  1.00  0.00    -0.390 OA
ATOM     37  H6  UNL     1      22.252  13.667  17.807  1.00  0.00     0.210 HD
ENDBRANCH  32  36
BRANCH  33  38
HETATM   38  O7  UNL     1      20.051  11.793  18.732  1.00  0.00    -0.388 OA
ATOM     39  H7  UNL     1      19.354  12.437  18.704  1.00  0.00     0.210 HD
ENDBRANCH  33  38
ENDBRANCH  26  27
ENDBRANCH   3  26
BRANCH   4  40
HETATM   40  N3  UNL     1      18.868  13.563  23.791  1.00  0.00    -0.072 N
ATOM     41  H33 UNL     1      18.507  14.405  23.342  1.00  0.00     0.274 HD
ATOM     42  H32 UNL     1      18.223  12.882  23.390  1.00  0.00     0.274 HD
ATOM     43  H31 UNL     1      18.777  13.612  24.805  1.00  0.00     0.274 HD
ENDBRANCH   4  40
TORSDOF 13
ENDMDL