MODEL 5
REMARK VINA RESULT: -7.883683292      2.955      8.476
REMARK  13 active torsions:
REMARK  status: ('A' for Active; 'I' for Inactive)
REMARK    1  A    between atoms: C3_3  and  C4_4
REMARK    2  A    between atoms: C6_6  and  N1_7
REMARK    3  A    between atoms: C7_11  and  O1_12
REMARK    4  A    between atoms: O1_12  and  C8_13
REMARK    5  A    between atoms: C10_16  and  O3_17
REMARK    6  A    between atoms: C11_19  and  C12_20
REMARK    7  A    between atoms: C12_20  and  O4_21
REMARK    8  A    between atoms: C12_20  and  O5_23
REMARK    9  A    between atoms: O5_23  and  C14_24
REMARK   10  A    between atoms: C19_29  and  O6_30
REMARK   11  A    between atoms: C20_32  and  O7_33
REMARK   12  A    between atoms: C21_35  and  O8_36
REMARK   13  A    between atoms: C22_38  and  O9_39
ROOT
HETATM    1  C8  UNL     1      24.556   9.475  25.397  1.00  0.00     0.291 C
HETATM    2  O2  UNL     1      25.066   9.264  24.124  1.00  0.00    -0.356 OA
HETATM    3  C9  UNL     1      25.329  10.417  23.425  1.00  0.00     0.203 C
HETATM    4  C10 UNL     1      24.236  10.930  22.557  1.00  0.00     0.153 C
HETATM    5  C11 UNL     1      23.194  11.667  23.316  1.00  0.00     0.103 C
HETATM    6  C19 UNL     1      23.186  11.431  24.777  1.00  0.00     0.163 C
HETATM    7  C20 UNL     1      23.148  10.005  25.240  1.00  0.00     0.202 C
ENDROOT
BRANCH   1   8
HETATM    8  O1  UNL     1      25.334  10.139  26.270  1.00  0.00    -0.349 OA
BRANCH   8   9
HETATM    9  C7  UNL     1      25.624   9.593  27.465  1.00  0.00     0.186 C
HETATM   10  C6  UNL     1      26.678  10.437  28.152  1.00  0.00     0.215 C
HETATM   11  C5  UNL     1      26.083  11.603  28.893  1.00  0.00     0.046 C
HETATM   12  C4  UNL     1      24.699  11.946  28.452  1.00  0.00     0.041 C
HETATM   13  C22 UNL     1      23.805  10.760  28.743  1.00  0.00     0.157 C
HETATM   14  C21 UNL     1      24.452   9.440  28.406  1.00  0.00     0.178 C
BRANCH  10  15
HETATM   15  N1  UNL     1      27.646  10.928  27.196  1.00  0.00    -0.072 N
ATOM     16  H13 UNL     1      28.396  10.260  27.026  1.00  0.00     0.274 HD
ATOM     17  H12 UNL     1      27.270  10.966  26.248  1.00  0.00     0.274 HD
ATOM     18  H11 UNL     1      27.995  11.833  27.511  1.00  0.00     0.274 HD
ENDBRANCH  10  15
BRANCH  12  19
HETATM   19  C3  UNL     1      24.196  13.065  29.313  1.00  0.00    -0.024 C
HETATM   20  C2  UNL     1      24.839  14.216  29.440  1.00  0.00    -0.034 C
HETATM   21  C1  UNL     1      24.286  15.279  30.307  1.00  0.00     0.036 C
ENDBRANCH  12  19
BRANCH  13  22
HETATM   22  O9  UNL     1      23.482  10.813  30.098  1.00  0.00    -0.392 OA
ATOM     23  H9  UNL     1      24.238  10.496  30.579  1.00  0.00     0.210 HD
ENDBRANCH  13  22
BRANCH  14  24
HETATM   24  O8  UNL     1      24.975   8.927  29.604  1.00  0.00    -0.390 OA
ATOM     25  H8  UNL     1      24.833   7.989  29.576  1.00  0.00     0.210 HD
ENDBRANCH  14  24
ENDBRANCH   8   9
ENDBRANCH   1   8
BRANCH   7  26
HETATM   26  O7  UNL     1      22.426   9.148  24.397  1.00  0.00    -0.388 OA
ATOM     27  H7  UNL     1      22.097   9.644  23.657  1.00  0.00     0.210 HD
ENDBRANCH   7  26
BRANCH   6  28
HETATM   28  O6  UNL     1      22.247  12.202  25.463  1.00  0.00    -0.392 OA
ATOM     29  H6  UNL     1      21.367  11.843  25.437  1.00  0.00     0.210 HD
ENDBRANCH   6  28
BRANCH   4  30
HETATM   30  O3  UNL     1      24.895  11.798  21.640  1.00  0.00    -0.393 OA
ATOM     31  H3  UNL     1      24.641  11.472  20.785  1.00  0.00     0.210 HD
ENDBRANCH   4  30
BRANCH   5  32
HETATM   32  C12 UNL     1      21.835  11.618  22.642  1.00  0.00     0.268 C
BRANCH  32  33
HETATM   33  O4  UNL     1      21.218  12.867  22.597  1.00  0.00    -0.366 OA
HETATM   34  C13 UNL     1      19.937  12.922  23.063  1.00  0.00     0.204 C
ENDBRANCH  32  33
BRANCH  32  35
HETATM   35  O5  UNL     1      21.917  11.218  21.321  1.00  0.00    -0.355 OA
BRANCH  35  36
HETATM   36  C14 UNL     1      21.082  10.249  20.898  1.00  0.00     0.124 C
HETATM   37  C15 UNL     1      21.901   9.136  20.242  1.00  0.00     0.032 C
HETATM   38  C16 UNL     1      21.643   7.891  21.052  1.00  0.00     0.002 C
HETATM   39  C17 UNL     1      20.424   8.134  21.887  1.00  0.00     0.002 C
HETATM   40  C18 UNL     1      20.115   9.618  21.796  1.00  0.00     0.032 C
ENDBRANCH  35  36
ENDBRANCH  32  35
ENDBRANCH   5  32
TORSDOF 13
ENDMDL