MODEL 4
REMARK VINA RESULT: -8.872257678      3.109      8.951
REMARK  11 active torsions:
REMARK  status: ('A' for Active; 'I' for Inactive)
REMARK    1  A    between atoms: N1_1  and  C1_5
REMARK    2  A    between atoms: C3_7  and  N2_8
REMARK    3  A    between atoms: N2_8  and  S1_10
REMARK    4  A    between atoms: S1_10  and  O3_13
REMARK    5  A    between atoms: O3_13  and  C4_14
REMARK    6  A    between atoms: C4_14  and  C5_15
REMARK    7  A    between atoms: C13_24  and  O5_25
REMARK    8  A    between atoms: O5_25  and  C14_26
REMARK    9  A    between atoms: C16_29  and  O7_30
REMARK   10  A    between atoms: C17_32  and  O8_33
REMARK   11  A    between atoms: C18_35  and  O9_36
ROOT
HETATM    1  C1  UNL     1      24.538   9.985  24.464  1.00  0.00     0.214 C
HETATM    2  C2  UNL     1      24.790  10.831  25.656  1.00  0.00     0.061 C
HETATM    3  C3  UNL     1      23.569  11.449  26.267  1.00  0.00     0.097 C
HETATM    4  C11 UNL     1      22.770  12.081  25.154  1.00  0.00     0.028 C
HETATM    5  C12 UNL     1      22.212  10.974  24.323  1.00  0.00     0.036 C
HETATM    6  C13 UNL     1      23.110   9.828  24.062  1.00  0.00     0.155 C
ENDROOT
BRANCH   3   7
HETATM    7  N2  UNL     1      22.774  10.568  27.052  1.00  0.00    -0.292 N
ATOM      8  H2  UNL     1      21.826  10.288  26.799  1.00  0.00     0.174 HD
BRANCH   7   9
HETATM    9  S1  UNL     1      23.579  10.021  28.479  1.00  0.00     0.358 S
HETATM   10  O1  UNL     1      22.557   9.927  29.574  1.00  0.00    -0.176 OA
HETATM   11  O2  UNL     1      24.143   8.634  28.287  1.00  0.00    -0.176 OA
BRANCH   9  12
HETATM   12  O3  UNL     1      24.775  11.112  28.899  1.00  0.00    -0.257 OA
BRANCH  12  13
HETATM   13  C4  UNL     1      25.948  10.390  29.087  1.00  0.00     0.223 C
BRANCH  13  14
HETATM   14  C5  UNL     1      26.681  10.979  30.271  1.00  0.00     0.146 C
HETATM   15  C6  UNL     1      27.546  12.151  29.865  1.00  0.00     0.034 C
HETATM   16  C7  UNL     1      28.964  11.657  29.727  1.00  0.00     0.003 C
HETATM   17  C8  UNL     1      29.731  11.879  31.012  1.00  0.00     0.002 C
HETATM   18  C9  UNL     1      29.422  10.874  32.071  1.00  0.00     0.026 C
HETATM   19  C10 UNL     1      27.967  10.467  32.116  1.00  0.00     0.168 C
HETATM   20  O4  UNL     1      27.487  10.051  30.901  1.00  0.00    -0.384 OA
ENDBRANCH  13  14
ENDBRANCH  12  13
ENDBRANCH   9  12
ENDBRANCH   7   9
ENDBRANCH   3   7
BRANCH   1  21
HETATM   21  N1  UNL     1      25.158   8.672  24.666  1.00  0.00    -0.072 N
ATOM     22  H13 UNL     1      26.044   8.580  24.167  1.00  0.00     0.274 HD
ATOM     23  H12 UNL     1      25.515   8.553  25.614  1.00  0.00     0.274 HD
ATOM     24  H11 UNL     1      24.492   7.943  24.409  1.00  0.00     0.274 HD
ENDBRANCH   1  21
BRANCH   6  25
HETATM   25  O5  UNL     1      22.993   9.459  22.713  1.00  0.00    -0.351 OA
BRANCH  25  26
HETATM   26  C14 UNL     1      22.890   8.101  22.529  1.00  0.00     0.291 C
HETATM   27  O6  UNL     1      22.635   7.749  21.206  1.00  0.00    -0.356 OA
HETATM   28  C15 UNL     1      21.343   8.083  20.806  1.00  0.00     0.205 C
HETATM   29  C16 UNL     1      20.289   7.356  21.583  1.00  0.00     0.173 C
HETATM   30  C17 UNL     1      20.844   6.671  22.805  1.00  0.00     0.182 C
HETATM   31  C18 UNL     1      21.838   7.577  23.475  1.00  0.00     0.204 C
BRANCH  29  32
HETATM   32  O7  UNL     1      19.611   6.412  20.805  1.00  0.00    -0.391 OA
ATOM     33  H7  UNL     1      20.035   5.563  20.815  1.00  0.00     0.210 HD
ENDBRANCH  29  32
BRANCH  30  34
HETATM   34  O8  UNL     1      21.348   5.411  22.548  1.00  0.00    -0.390 OA
ATOM     35  H8  UNL     1      20.932   4.981  21.811  1.00  0.00     0.210 HD
ENDBRANCH  30  34
BRANCH  31  36
HETATM   36  O9  UNL     1      22.440   6.943  24.564  1.00  0.00    -0.388 OA
ATOM     37  H9  UNL     1      22.935   7.571  25.079  1.00  0.00     0.210 HD
ENDBRANCH  31  36
ENDBRANCH  25  26
ENDBRANCH   6  25
TORSDOF 11
ENDMDL