MODEL 1
REMARK VINA RESULT: -8.116832242      0.000      0.000
REMARK  11 active torsions:
REMARK  status: ('A' for Active; 'I' for Inactive)
REMARK    1  A    between atoms: O1_2  and  C2_3
REMARK    2  A    between atoms: C3_5  and  C4_6
REMARK    3  A    between atoms: C4_6  and  O3_7
REMARK    4  A    between atoms: O3_7  and  C5_8
REMARK       I    between atoms: C5_8  and  N1_10
REMARK    5  A    between atoms: N1_10  and  C6_12
REMARK    6  A    between atoms: C10_16  and  O5_17
REMARK    7  A    between atoms: O5_17  and  C11_18
REMARK    8  A    between atoms: C13_20  and  O6_21
REMARK    9  A    between atoms: C16_28  and  O7_29
REMARK   10  A    between atoms: C17_31  and  N3_32
REMARK       I    between atoms: N3_32  and  C18_34
REMARK   11  A    between atoms: C20_37  and  O9_38
ROOT
HETATM    1  C2  UNL     1      20.554  12.078  22.894  1.00  0.00     0.290 C
HETATM    2  O2  UNL     1      21.778  12.627  23.134  1.00  0.00    -0.349 OA
HETATM    3  C3  UNL     1      22.750  11.789  23.608  1.00  0.00     0.180 C
HETATM    4  C10 UNL     1      23.011  10.563  22.809  1.00  0.00     0.178 C
HETATM    5  C17 UNL     1      21.862  10.319  21.851  1.00  0.00     0.149 C
HETATM    6  C20 UNL     1      20.561  10.627  22.512  1.00  0.00     0.198 C
ENDROOT
BRANCH   4   7
HETATM    7  O5  UNL     1      24.149  10.615  22.030  1.00  0.00    -0.371 OA
BRANCH   7   8
HETATM    8  C11 UNL     1      24.983   9.554  22.097  1.00  0.00     0.180 C
HETATM    9  C12 UNL     1      25.523   9.485  23.533  1.00  0.00     0.070 C
HETATM   10  C13 UNL     1      26.410  10.724  23.716  1.00  0.00     0.151 C
HETATM   11  C14 UNL     1      27.600  10.512  22.816  1.00  0.00     0.213 C
HETATM   12  C15 UNL     1      28.678  11.548  23.022  1.00  0.00     0.043 C
HETATM   13  N2  UNL     1      27.098  10.625  21.444  1.00  0.00    -0.040 N
HETATM   14  C16 UNL     1      26.148   9.579  21.152  1.00  0.00     0.348 C
ATOM     15  H22 UNL     1      26.706  11.550  21.262  1.00  0.00     0.280 HD
ATOM     16  H21 UNL     1      27.859  10.642  20.765  1.00  0.00     0.280 HD
BRANCH  10  17
HETATM   17  O6  UNL     1      26.746  10.927  25.035  1.00  0.00    -0.393 OA
ATOM     18  H6  UNL     1      26.304  11.683  25.402  1.00  0.00     0.210 HD
ENDBRANCH  10  17
BRANCH  14  19
HETATM   19  O7  UNL     1      26.823   8.362  21.295  1.00  0.00    -0.368 OA
ATOM     20  H7  UNL     1      27.686   8.559  21.638  1.00  0.00     0.212 HD
ENDBRANCH  14  19
ENDBRANCH   7   8
ENDBRANCH   4   7
BRANCH   3  21
HETATM   21  C4  UNL     1      22.418  11.484  25.073  1.00  0.00     0.215 C
BRANCH  21  22
HETATM   22  O3  UNL     1      23.042  10.277  25.485  1.00  0.00    -0.301 OA
BRANCH  22  23
HETATM   23  C5  UNL     1      23.435  10.221  26.820  1.00  0.00     0.360 C
HETATM   24  O4  UNL     1      22.749   9.559  27.669  1.00  0.00    -0.239 OA
HETATM   25  N1  UNL     1      24.585  10.882  27.272  1.00  0.00    -0.332 N
ATOM     26  H1  UNL     1      25.142  11.414  26.602  1.00  0.00     0.165 HD
BRANCH  25  27
HETATM   27  C6  UNL     1      25.008  10.838  28.639  1.00  0.00     0.086 C
HETATM   28  C7  UNL     1      26.078   9.784  28.948  1.00  0.00     0.025 C
HETATM   29  C8  UNL     1      26.646  10.799  29.949  1.00  0.00     0.004 C
HETATM   30  C9  UNL     1      26.025  11.879  29.055  1.00  0.00     0.025 C
ENDBRANCH  25  27
ENDBRANCH  22  23
ENDBRANCH  21  22
ENDBRANCH   3  21
BRANCH   5  31
HETATM   31  N3  UNL     1      21.985  11.108  20.639  1.00  0.00    -0.352 N
HETATM   32  C18 UNL     1      21.674  10.608  19.356  1.00  0.00     0.214 C
HETATM   33  C19 UNL     1      21.832  11.491  18.177  1.00  0.00     0.117 C
HETATM   34  O8  UNL     1      21.265   9.440  19.150  1.00  0.00    -0.274 OA
ATOM     35  H3  UNL     1      22.312  12.071  20.718  1.00  0.00     0.163 HD
ENDBRANCH   5  31
BRANCH   6  36
HETATM   36  O9  UNL     1      19.520  10.410  21.582  1.00  0.00    -0.388 OA
ATOM     37  H9  UNL     1      19.097   9.587  21.795  1.00  0.00     0.210 HD
ENDBRANCH   6  36
BRANCH   1  38
HETATM   38  O1  UNL     1      19.648  12.233  23.940  1.00  0.00    -0.363 OA
HETATM   39  C1  UNL     1      18.858  13.364  23.814  1.00  0.00     0.204 C
ENDBRANCH   1  38
TORSDOF 11
ENDMDL