MODEL 3
REMARK VINA RESULT: -8.789718858      2.191      8.415
REMARK  11 active torsions:
REMARK  status: ('A' for Active; 'I' for Inactive)
REMARK    1  A    between atoms: C1_2  and  C2_3
REMARK       I    between atoms: C1_2  and  N5_27
REMARK    2  A    between atoms: C2_3  and  N1_4
REMARK    3  A    between atoms: N2_8  and  C6_9
REMARK    4  A    between atoms: C6_9  and  C7_10
REMARK    5  A    between atoms: C7_10  and  O2_11
REMARK    6  A    between atoms: N3_13  and  O3_15
REMARK    7  A    between atoms: N5_27  and  C14_29
REMARK    8  A    between atoms: C14_29  and  C15_30
REMARK    9  A    between atoms: C14_29  and  C16_37
REMARK   10  A    between atoms: C15_30  and  O5_31
REMARK   11  A    between atoms: N6_33  and  O6_35
ROOT
HETATM    1  N1  UNL     1      24.765   9.984  24.440  1.00  0.00    -0.383 N
HETATM    2  C3  UNL     1      25.782   9.899  25.426  1.00  0.00     0.127 C
HETATM    3  C4  UNL     1      25.258   9.003  26.528  1.00  0.00     0.064 C
HETATM    4  C5  UNL     1      26.011   9.121  27.823  1.00  0.00     0.060 C
HETATM    5  N2  UNL     1      25.751  10.220  28.632  1.00  0.00    -0.384 N
HETATM    6  C8  UNL     1      24.673  11.079  28.425  1.00  0.00     0.150 C
HETATM    7  C9  UNL     1      23.359  10.536  29.010  1.00  0.00     0.252 C
HETATM    8  N4  UNL     1      22.228  10.808  28.155  1.00  0.00    -0.072 N
ATOM      9  H41 UNL     1      21.368  10.472  28.588  1.00  0.00     0.277 HD
ATOM     10  H42 UNL     1      22.256  10.209  27.331  1.00  0.00     0.277 HD
HETATM   11  C10 UNL     1      22.088  12.173  27.771  1.00  0.00     0.258 C
HETATM   12  C11 UNL     1      21.631  12.330  26.335  1.00  0.00     0.195 C
HETATM   13  O4  UNL     1      22.666  12.521  25.440  1.00  0.00    -0.388 OA
HETATM   14  C12 UNL     1      22.840  11.349  24.724  1.00  0.00     0.187 C
HETATM   15  C13 UNL     1      24.248  11.260  24.123  1.00  0.00     0.148 C
ENDROOT
BRANCH   1  16
HETATM   16  C2  UNL     1      24.672   8.954  23.486  1.00  0.00     0.160 C
BRANCH  16  17
HETATM   17  C1  UNL     1      24.223   9.382  22.142  1.00  0.00     0.257 C
HETATM   18  O1  UNL     1      24.950   9.882  21.262  1.00  0.00    -0.267 OA
HETATM   19  N5  UNL     1      22.838   9.199  21.844  1.00  0.00    -0.344 N
ATOM     20  H5  UNL     1      22.225   8.790  22.550  1.00  0.00     0.163 HD
BRANCH  19  21
HETATM   21  C14 UNL     1      22.281   9.585  20.550  1.00  0.00     0.167 C
BRANCH  21  22
HETATM   22  C15 UNL     1      21.609   8.378  20.004  1.00  0.00     0.159 C
HETATM   23  N6  UNL     1      21.119   8.370  18.833  1.00  0.00    -0.249 N
ATOM     24  H6  UNL     1      21.202   9.220  18.276  1.00  0.00     0.196 HD
BRANCH  22  25
HETATM   25  O5  UNL     1      21.532   7.267  20.800  1.00  0.00    -0.347 OA
ATOM     26  H5  UNL     1      21.641   6.416  20.393  1.00  0.00     0.219 HD
ENDBRANCH  22  25
BRANCH  23  27
HETATM   27  O6  UNL     1      20.484   7.294  18.266  1.00  0.00    -0.288 OA
ATOM     28  H6  UNL     1      20.912   6.645  17.721  1.00  0.00     0.244 HD
ENDBRANCH  23  27
ENDBRANCH  21  22
BRANCH  21  29
HETATM   29  C16 UNL     1      21.211  10.610  20.841  1.00  0.00     0.043 C
HETATM   30  C17 UNL     1      21.800  11.970  21.155  1.00  0.00     0.036 C
HETATM   31  C18 UNL     1      20.630  12.625  21.868  1.00  0.00     0.232 C
HETATM   32  N7  UNL     1      19.795  11.563  22.370  1.00  0.00    -0.075 N
HETATM   33  C19 UNL     1      20.451  10.305  22.105  1.00  0.00     0.239 C
ATOM     34  H72 UNL     1      19.559  11.683  23.355  1.00  0.00     0.277 HD
ATOM     35  H71 UNL     1      18.848  11.598  21.995  1.00  0.00     0.277 HD
ENDBRANCH  21  29
ENDBRANCH  19  21
ENDBRANCH  16  17
ENDBRANCH   1  16
BRANCH   5  36
HETATM   36  C6  UNL     1      26.910  10.754  29.265  1.00  0.00     0.207 C
BRANCH  36  37
HETATM   37  C7  UNL     1      27.004  10.459  30.716  1.00  0.00     0.153 C
HETATM   38  N3  UNL     1      27.942  10.987  31.423  1.00  0.00    -0.250 N
ATOM     39  H3  UNL     1      28.624  11.609  30.990  1.00  0.00     0.196 HD
BRANCH  37  40
HETATM   40  O2  UNL     1      26.048   9.600  31.258  1.00  0.00    -0.347 OA
ATOM     41  H2  UNL     1      25.524   9.931  31.978  1.00  0.00     0.219 HD
ENDBRANCH  37  40
BRANCH  38  42
HETATM   42  O3  UNL     1      28.015  10.709  32.747  1.00  0.00    -0.288 OA
ATOM     43  H3  UNL     1      28.772  10.997  33.244  1.00  0.00     0.244 HD
ENDBRANCH  38  42
ENDBRANCH  36  37
ENDBRANCH   5  36
TORSDOF 11
ENDMDL