MODEL 2
REMARK VINA RESULT: -7.620656216      1.765      3.008
REMARK  8 active torsions:
REMARK  status: ('A' for Active; 'I' for Inactive)
REMARK       I    between atoms: N1_2  and  C2_4
REMARK    1  A    between atoms: C2_4  and  C3_6
REMARK    2  A    between atoms: C4_7  and  C5_8
REMARK    3  A    between atoms: C6_9  and  C7_10
REMARK       I    between atoms: C7_10  and  N2_12
REMARK    4  A    between atoms: C11_16  and  C12_17
REMARK    5  A    between atoms: C12_17  and  C13_18
REMARK    6  A    between atoms: C12_17  and  N4_21
REMARK    7  A    between atoms: N4_21  and  C14_22
REMARK       I    between atoms: N4_21  and  C20_33
REMARK    8  A    between atoms: N6_29  and  C19_31
ROOT
HETATM    1  C12 UNL     1      19.451 -14.409  21.632  1.00  0.00     0.186 C
ENDROOT
BRANCH   1   2
HETATM    2  C11 UNL     1      19.787 -12.971  21.653  1.00  0.00     0.036 C
HETATM    3  C10 UNL     1      21.134 -12.679  21.027  1.00  0.00     0.010 C
HETATM    4  C9  UNL     1      21.034 -12.191  19.591  1.00  0.00     0.020 C
HETATM    5  C8  UNL     1      19.730 -12.503  18.927  1.00  0.00     0.127 C
HETATM    6  N2  UNL     1      18.602 -12.032  19.725  1.00  0.00    -0.341 N
HETATM    7  C7  UNL     1      17.408 -11.588  19.121  1.00  0.00     0.299 C
HETATM    8  C21 UNL     1      18.733 -12.017  21.156  1.00  0.00     0.134 C
HETATM    9  O2  UNL     1      17.320 -11.611  17.863  1.00  0.00    -0.258 OA
BRANCH   7  10
HETATM   10  C6  UNL     1      16.337 -11.123  19.944  1.00  0.00     0.009 C
HETATM   11  C5  UNL     1      15.442 -10.737  20.656  1.00  0.00    -0.004 C
BRANCH  11  12
HETATM   12  C4  UNL     1      14.403 -10.296  21.506  1.00  0.00    -0.004 C
HETATM   13  C3  UNL     1      13.529  -9.920  22.247  1.00  0.00     0.009 C
BRANCH  13  14
HETATM   14  C2  UNL     1      12.484  -9.483  23.154  1.00  0.00     0.296 C
HETATM   15  N1  UNL     1      12.733  -8.372  23.998  1.00  0.00    -0.355 N
HETATM   16  C1  UNL     1      11.699  -7.935  24.898  1.00  0.00     0.150 C
ATOM     17  H1  UNL     1      13.631  -7.889  23.967  1.00  0.00     0.162 HD
HETATM   18  O1  UNL     1      11.378 -10.075  23.193  1.00  0.00    -0.258 OA
ENDBRANCH  13  14
ENDBRANCH  11  12
ENDBRANCH   7  10
ENDBRANCH   1   2
BRANCH   1  19
HETATM   19  C13 UNL     1      17.966 -14.615  21.355  1.00  0.00     0.255 C
HETATM   20  N3  UNL     1      16.962 -14.132  22.223  1.00  0.00    -0.060 NA
HETATM   21  O3  UNL     1      17.618 -15.230  20.330  1.00  0.00    -0.275 OA
ENDBRANCH   1  19
BRANCH   1  22
HETATM   22  N4  UNL     1      19.665 -15.112  22.899  1.00  0.00    -0.317 N
HETATM   23  C20 UNL     1      19.638 -14.666  24.210  1.00  0.00     0.188 C
HETATM   24  N7  UNL     1      19.177 -15.548  25.106  1.00  0.00    -0.373 N
HETATM   25  N8  UNL     1      19.996 -13.442  24.786  1.00  0.00    -0.064 NA
ATOM     26  H72 UNL     1      18.915 -16.440  24.687  1.00  0.00     0.158 HD
ATOM     27  H71 UNL     1      19.156 -15.220  26.072  1.00  0.00     0.158 HD
BRANCH  22  28
HETATM   28  C14 UNL     1      19.823 -16.539  22.707  1.00  0.00     0.105 C
HETATM   29  C15 UNL     1      20.922 -17.163  22.886  1.00  0.00     0.003 C
HETATM   30  C16 UNL     1      21.045 -18.661  22.671  1.00  0.00     0.063 C
HETATM   31  C18 UNL     1      22.255 -16.758  23.303  1.00  0.00     0.110 C
HETATM   32  C17 UNL     1      22.419 -18.711  22.016  1.00  0.00     0.126 C
HETATM   33  N5  UNL     1      23.166 -17.600  22.578  1.00  0.00    -0.376 N
ATOM     34  H5  UNL     1      24.169 -17.443  22.475  1.00  0.00     0.161 HD
HETATM   35  N6  UNL     1      22.522 -15.843  24.152  1.00  0.00    -0.320 N
ATOM     36  H6  UNL     1      21.778 -15.316  24.610  1.00  0.00     0.169 HD
BRANCH  35  37
HETATM   37  C19 UNL     1      23.887 -15.581  24.437  1.00  0.00     0.354 C
HETATM   38  O4  UNL     1      24.658 -15.148  23.557  1.00  0.00    -0.283 OA
ENDBRANCH  35  37
ENDBRANCH  22  28
ENDBRANCH   1  22
TORSDOF 8
ENDMDL