MODEL 4
REMARK VINA RESULT: -7.060513738      5.429      7.714
REMARK  5 active torsions:
REMARK  status: ('A' for Active; 'I' for Inactive)
REMARK    1  A    between atoms: O1_2  and  N1_3
REMARK       I    between atoms: C2_5  and  N3_7
REMARK    2  A    between atoms: C5_10  and  N4_11
REMARK       I    between atoms: N4_11  and  C6_13
REMARK       I    between atoms: C6_13  and  N6_20
REMARK    3  A    between atoms: N5_14  and  S1_16
REMARK    4  A    between atoms: N7_23  and  C10_24
REMARK    5  A    between atoms: C10_24  and  N8_26
ROOT
HETATM    1  N4  UNL     1      16.964 -13.205  21.381  1.00  0.00    -0.219 N
ATOM      2  H4  UNL     1      17.501 -12.384  21.660  1.00  0.00     0.178 HD
HETATM    3  C6  UNL     1      17.444 -14.487  21.753  1.00  0.00     0.686 C
HETATM    4  N5  UNL     1      16.955 -15.543  21.292  1.00  0.00    -0.117 N
ATOM      5  H5  UNL     1      16.192 -15.392  20.632  1.00  0.00     0.197 HD
HETATM    6  N6  UNL     1      18.509 -14.542  22.678  1.00  0.00    -0.214 N
HETATM    7  C8  UNL     1      19.856 -14.778  22.213  1.00  0.00     0.161 C
HETATM    8  C9  UNL     1      20.779 -13.777  22.912  1.00  0.00     0.145 C
HETATM    9  N7  UNL     1      20.641 -13.988  24.332  1.00  0.00    -0.355 N
HETATM   10  C12 UNL     1      19.536 -14.733  24.866  1.00  0.00     0.145 C
HETATM   11  C13 UNL     1      18.293 -14.364  24.099  1.00  0.00     0.161 C
ENDROOT
BRANCH   1  12
HETATM   12  C5  UNL     1      15.749 -13.010  20.625  1.00  0.00     0.119 C
HETATM   13  C4  UNL     1      14.566 -13.576  21.372  1.00  0.00     0.047 C
HETATM   14  C3  UNL     1      13.768 -12.418  21.895  1.00  0.00     0.127 C
HETATM   15  N3  UNL     1      14.092 -11.354  20.976  1.00  0.00    -0.352 N
HETATM   16  C2  UNL     1      13.248 -10.317  20.496  1.00  0.00     0.210 C
HETATM   17  C14 UNL     1      15.478 -11.516  20.604  1.00  0.00     0.151 C
HETATM   18  N1  UNL     1      12.344  -9.817  21.284  1.00  0.00    -0.239 N
HETATM   19  N2  UNL     1      13.435  -9.877  19.169  1.00  0.00    -0.062 NA
ATOM     20  H1  UNL     1      11.734  -9.072  20.947  1.00  0.00     0.197 HD
BRANCH  18  21
HETATM   21  O1  UNL     1      12.208 -10.282  22.561  1.00  0.00    -0.283 OA
HETATM   22  C1  UNL     1      11.972  -9.448  23.672  1.00  0.00     0.237 C
ENDBRANCH  18  21
ENDBRANCH   1  12
BRANCH   4  23
HETATM   23  S1  UNL     1      17.319 -17.162  21.552  1.00  0.00     0.240 S
HETATM   24  C7  UNL     1      17.172 -17.672  23.246  1.00  0.00     0.186 C
HETATM   25  O2  UNL     1      18.703 -17.554  21.101  1.00  0.00    -0.206 OA
HETATM   26  O3  UNL     1      16.369 -18.017  20.752  1.00  0.00    -0.206 OA
ENDBRANCH   4  23
BRANCH   9  27
HETATM   27  C10 UNL     1      21.629 -13.437  25.189  1.00  0.00     0.176 C
HETATM   28  S2  UNL     1      21.173 -12.732  26.582  1.00  0.00    -0.041 SA
BRANCH  27  29
HETATM   29  N8  UNL     1      23.014 -13.480  24.872  1.00  0.00    -0.310 N
HETATM   30  C11 UNL     1      23.752 -14.507  25.110  1.00  0.00     0.203 C
HETATM   31  N9  UNL     1      23.162 -15.639  25.711  1.00  0.00    -0.066 NA
HETATM   32  N10 UNL     1      25.129 -14.534  24.788  1.00  0.00    -0.066 NA
ATOM     33  H8  UNL     1      23.441 -12.661  24.438  1.00  0.00     0.170 HD
ENDBRANCH  27  29
ENDBRANCH   9  27
TORSDOF 5
ENDMDL