MODEL 2
REMARK VINA RESULT: -7.524831672      1.905      2.254
REMARK  7 active torsions:
REMARK  status: ('A' for Active; 'I' for Inactive)
REMARK    1  A    between atoms: C3_3  and  C4_4
REMARK    2  A    between atoms: C5_5  and  N1_6
REMARK       I    between atoms: N1_6  and  C6_8
REMARK    3  A    between atoms: C6_8  and  C7_10
REMARK       I    between atoms: N3_17  and  C13_18
REMARK    4  A    between atoms: C13_18  and  C14_20
REMARK    5  A    between atoms: C16_27  and  N5_28
REMARK       I    between atoms: N5_28  and  C17_30
REMARK    6  A    between atoms: C17_30  and  C18_32
REMARK    7  A    between atoms: C18_32  and  N6_34
ROOT
HETATM    1  C7  UNL     1      17.229 -16.081  23.141  1.00  0.00     0.206 C
HETATM    2  C8  UNL     1      17.322 -17.570  23.173  1.00  0.00     0.271 C
HETATM    3  N2  UNL     1      16.449 -18.282  22.305  1.00  0.00    -0.071 N
HETATM    4  C9  UNL     1      17.046 -19.622  22.137  1.00  0.00     0.272 C
HETATM    5  C10 UNL     1      15.170 -18.511  22.964  1.00  0.00     0.272 C
HETATM    6  C11 UNL     1      16.287 -17.743  20.989  1.00  0.00     0.256 C
HETATM    7  C12 UNL     1      17.253 -16.625  20.751  1.00  0.00     0.154 C
HETATM    8  N3  UNL     1      17.047 -15.616  21.774  1.00  0.00    -0.334 N
HETATM    9  C13 UNL     1      16.715 -14.262  21.517  1.00  0.00     0.246 C
HETATM   10  O2  UNL     1      16.619 -13.510  22.554  1.00  0.00    -0.271 OA
ENDROOT
BRANCH   9  11
HETATM   11  C14 UNL     1      16.487 -13.673  20.211  1.00  0.00     0.208 C
HETATM   12  N4  UNL     1      17.142 -12.351  20.092  1.00  0.00    -0.303 N
HETATM   13  S1  UNL     1      16.595 -11.947  18.478  1.00  0.00     0.229 S
ATOM     14  H4  UNL     1      17.729 -11.834  20.747  1.00  0.00     0.173 HD
HETATM   15  O3  UNL     1      16.435 -10.490  18.298  1.00  0.00    -0.206 OA
HETATM   16  O4  UNL     1      17.458 -12.607  17.456  1.00  0.00    -0.206 OA
HETATM   17  C15 UNL     1      15.017 -12.809  18.517  1.00  0.00     0.190 C
HETATM   18  C16 UNL     1      15.035 -13.369  19.934  1.00  0.00     0.132 C
BRANCH  18  19
HETATM   19  N5  UNL     1      14.441 -12.448  20.861  1.00  0.00    -0.351 N
HETATM   20  C17 UNL     1      13.042 -12.246  20.999  1.00  0.00     0.248 C
HETATM   21  O5  UNL     1      12.194 -12.866  20.306  1.00  0.00    -0.271 OA
ATOM     22  H5  UNL     1      15.063 -11.904  21.459  1.00  0.00     0.163 HD
BRANCH  20  23
HETATM   23  C18 UNL     1      12.487 -11.270  21.992  1.00  0.00     0.270 C
HETATM   24  C19 UNL     1      12.182  -9.957  21.291  1.00  0.00     0.050 C
BRANCH  23  25
HETATM   25  N6  UNL     1      11.249 -11.746  22.574  1.00  0.00    -0.067 N
ATOM     26  H63 UNL     1      10.591 -10.981  22.726  1.00  0.00     0.275 HD
ATOM     27  H62 UNL     1      10.707 -12.290  21.904  1.00  0.00     0.275 HD
ATOM     28  H61 UNL     1      11.414 -12.271  23.433  1.00  0.00     0.275 HD
ENDBRANCH  23  25
ENDBRANCH  20  23
ENDBRANCH  18  19
ENDBRANCH   9  11
BRANCH   1  29
HETATM   29  C6  UNL     1      18.459 -15.530  23.732  1.00  0.00     0.253 C
HETATM   30  N1  UNL     1      18.495 -14.483  24.661  1.00  0.00    -0.284 N
ATOM     31  H1  UNL     1      17.628 -14.044  24.975  1.00  0.00     0.179 HD
HETATM   32  O1  UNL     1      19.550 -16.071  23.348  1.00  0.00    -0.270 OA
BRANCH  30  33
HETATM   33  C5  UNL     1      19.741 -14.036  25.163  1.00  0.00     0.017 C
HETATM   34  C4  UNL     1      20.805 -13.676  25.599  1.00  0.00    -0.056 C
BRANCH  34  35
HETATM   35  C3  UNL     1      22.082 -13.269  26.132  1.00  0.00     0.062 C
HETATM   36  C2  UNL     1      23.185 -13.365  25.416  1.00  0.00    -0.022 C
HETATM   37  C1  UNL     1      23.091 -13.902  24.042  1.00  0.00     0.036 C
ENDBRANCH  34  35
ENDBRANCH  30  33
ENDBRANCH   1  29
TORSDOF 7
ENDMDL