MODEL 1
REMARK VINA RESULT: -9.136875771      0.000      0.000
REMARK  9 active torsions:
REMARK  status: ('A' for Active; 'I' for Inactive)
REMARK    1  A    between atoms: C2_2  and  N1_3
REMARK    2  A    between atoms: C2_2  and  C10_18
REMARK    3  A    between atoms: N1_3  and  C3_5
REMARK    4  A    between atoms: C3_5  and  N2_7
REMARK       I    between atoms: N3_10  and  C6_11
REMARK    5  A    between atoms: C6_11  and  C7_13
REMARK       I    between atoms: C10_18  and  N5_20
REMARK    6  A    between atoms: C14_24  and  C15_25
REMARK    7  A    between atoms: C15_25  and  N8_31
REMARK    8  A    between atoms: N6_26  and  N7_28
REMARK    9  A    between atoms: N8_31  and  C16_33
ROOT
HETATM    1  C10 UNL     1      18.336 -12.747  19.379  1.00  0.00     0.242 C
HETATM    2  O3  UNL     1      19.310 -11.994  19.146  1.00  0.00    -0.271 OA
HETATM    3  N5  UNL     1      18.501 -13.844  20.260  1.00  0.00    -0.350 N
HETATM    4  C11 UNL     1      17.459 -14.766  20.629  1.00  0.00     0.126 C
HETATM    5  C12 UNL     1      17.320 -14.750  22.153  1.00  0.00     0.021 C
HETATM    6  C13 UNL     1      18.663 -15.341  22.637  1.00  0.00     0.015 C
HETATM    7  C14 UNL     1      19.669 -14.235  22.341  1.00  0.00     0.072 C
HETATM    8  C19 UNL     1      19.841 -14.098  20.832  1.00  0.00     0.138 C
ENDROOT
BRANCH   1   9
HETATM    9  C2  UNL     1      17.062 -12.471  18.729  1.00  0.00     0.172 C
HETATM   10  C1  UNL     1      17.257 -11.553  17.523  1.00  0.00     0.042 C
BRANCH   9  11
HETATM   11  N1  UNL     1      16.165 -11.720  19.607  1.00  0.00    -0.354 N
ATOM     12  H1  UNL     1      16.497 -10.890  20.097  1.00  0.00     0.162 HD
BRANCH  11  13
HETATM   13  C3  UNL     1      14.844 -12.156  19.765  1.00  0.00     0.170 C
HETATM   14  S1  UNL     1      14.284 -13.363  18.818  1.00  0.00    -0.041 SA
BRANCH  13  15
HETATM   15  N2  UNL     1      13.914 -11.615  20.729  1.00  0.00    -0.355 N
HETATM   16  C4  UNL     1      13.578 -12.387  21.911  1.00  0.00     0.145 C
HETATM   17  C5  UNL     1      12.337 -11.870  22.610  1.00  0.00     0.146 C
HETATM   18  N3  UNL     1      12.458 -10.427  22.795  1.00  0.00    -0.341 N
HETATM   19  C6  UNL     1      11.992  -9.866  24.006  1.00  0.00     0.308 C
HETATM   20  C8  UNL     1      13.042  -9.604  21.777  1.00  0.00     0.146 C
HETATM   21  O1  UNL     1      11.462 -10.626  24.903  1.00  0.00    -0.263 OA
HETATM   22  C9  UNL     1      13.317 -10.346  20.509  1.00  0.00     0.145 C
BRANCH  19  23
HETATM   23  C7  UNL     1      12.061  -8.451  24.346  1.00  0.00     0.322 C
HETATM   24  N4  UNL     1      13.325  -7.791  24.183  1.00  0.00    -0.053 NA
HETATM   25  O2  UNL     1      11.066  -7.795  24.775  1.00  0.00    -0.266 OA
ENDBRANCH  19  23
ENDBRANCH  13  15
ENDBRANCH  11  13
ENDBRANCH   9  11
ENDBRANCH   1   9
BRANCH   7  26
HETATM   26  C15 UNL     1      20.923 -14.466  23.048  1.00  0.00     0.097 C
HETATM   27  N6  UNL     1      21.667 -15.479  22.906  1.00  0.00    -0.295 N
ATOM     28  H6  UNL     1      22.502 -15.461  23.493  1.00  0.00     0.187 HD
BRANCH  27  29
HETATM   29  N7  UNL     1      21.571 -16.585  22.123  1.00  0.00    -0.344 N
ATOM     30  H72 UNL     1      20.960 -16.441  21.319  1.00  0.00     0.176 HD
ATOM     31  H71 UNL     1      21.988 -17.513  22.189  1.00  0.00     0.176 HD
ENDBRANCH  27  29
BRANCH  26  32
HETATM   32  N8  UNL     1      21.368 -13.469  23.952  1.00  0.00    -0.374 N
ATOM     33  H8  UNL     1      22.278 -13.025  23.835  1.00  0.00     0.161 HD
BRANCH  32  34
HETATM   34  C16 UNL     1      20.502 -13.102  25.038  1.00  0.00     0.083 A
HETATM   35  C17 UNL     1      21.153 -12.746  26.346  1.00  0.00     0.027 A
HETATM   36  C18 UNL     1      20.443 -14.069  26.176  1.00  0.00     0.027 A
ENDBRANCH  32  34
ENDBRANCH  26  32
ENDBRANCH   7  26
TORSDOF 9
ENDMDL