MODEL 3
REMARK VINA RESULT: -7.464891111      1.129      1.198
REMARK  9 active torsions:
REMARK  status: ('A' for Active; 'I' for Inactive)
REMARK    1  A    between atoms: C2_2  and  N1_5
REMARK       I    between atoms: N1_5  and  C5_7
REMARK       I    between atoms: C5_7  and  N2_9
REMARK    2  A    between atoms: N3_12  and  C8_13
REMARK    3  A    between atoms: C8_13  and  O2_14
REMARK    4  A    between atoms: C8_13  and  N4_16
REMARK       I    between atoms: N5_19  and  C11_20
REMARK    5  A    between atoms: C11_20  and  C12_22
REMARK    6  A    between atoms: C12_22  and  N6_23
REMARK    7  A    between atoms: C13_27  and  C14_28
REMARK       I    between atoms: C14_28  and  N7_30
REMARK    8  A    between atoms: N7_30  and  C15_32
REMARK    9  A    between atoms: C15_32  and  C16_33
ROOT
HETATM    1  N4  UNL     1      16.507 -11.743  19.641  1.00  0.00    -0.344 N
HETATM    2  C9  UNL     1      15.476 -11.350  18.731  1.00  0.00     0.146 C
HETATM    3  C10 UNL     1      14.414 -12.447  18.808  1.00  0.00     0.147 C
HETATM    4  N5  UNL     1      14.074 -12.627  20.189  1.00  0.00    -0.334 N
HETATM    5  C11 UNL     1      13.094 -13.590  20.512  1.00  0.00     0.246 C
HETATM    6  O3  UNL     1      12.769 -13.776  21.699  1.00  0.00    -0.272 OA
HETATM    7  C13 UNL     1      14.679 -11.876  21.266  1.00  0.00     0.197 C
HETATM    8  C17 UNL     1      16.122 -11.548  21.060  1.00  0.00     0.161 C
ENDROOT
BRANCH   1   9
HETATM    9  C8  UNL     1      17.752 -12.280  19.306  1.00  0.00     0.217 C
BRANCH   9  10
HETATM   10  N3  UNL     1      18.597 -13.188  19.932  1.00  0.00    -0.344 N
HETATM   11  C7  UNL     1      18.033 -14.529  20.285  1.00  0.00     0.146 C
HETATM   12  C6  UNL     1      18.541 -14.953  21.630  1.00  0.00     0.147 C
HETATM   13  N2  UNL     1      19.983 -14.790  21.746  1.00  0.00    -0.331 N
HETATM   14  C5  UNL     1      20.684 -15.163  22.920  1.00  0.00     0.319 C
HETATM   15  C19 UNL     1      20.687 -14.237  20.628  1.00  0.00     0.147 C
HETATM   16  N1  UNL     1      19.999 -15.703  24.015  1.00  0.00    -0.335 N
HETATM   17  O1  UNL     1      21.949 -14.998  22.965  1.00  0.00    -0.247 OA
ATOM     18  H1  UNL     1      18.988 -15.820  23.949  1.00  0.00     0.165 HD
HETATM   19  C18 UNL     1      19.970 -12.936  20.246  1.00  0.00     0.146 C
BRANCH  16  20
HETATM   20  C2  UNL     1      20.670 -16.108  25.248  1.00  0.00     0.023 C
HETATM   21  C1  UNL     1      21.541 -15.004  25.771  1.00  0.00     0.037 C
HETATM   22  C3  UNL     1      19.617 -16.418  26.321  1.00  0.00     0.037 C
HETATM   23  C4  UNL     1      21.459 -17.372  25.011  1.00  0.00     0.037 C
ENDBRANCH  16  20
ENDBRANCH   9  10
BRANCH   9  24
HETATM   24  O2  UNL     1      18.227 -11.832  18.160  1.00  0.00    -0.333 OA
ATOM     25  H2  UNL     1      17.549 -11.577  17.547  1.00  0.00     0.220 HD
ENDBRANCH   9  24
ENDBRANCH   1   9
BRANCH   7  26
HETATM   26  C14 UNL     1      13.836 -10.718  21.659  1.00  0.00     0.242 C
HETATM   27  O4  UNL     1      14.255  -9.554  21.448  1.00  0.00    -0.271 OA
HETATM   28  N7  UNL     1      12.567 -10.881  22.269  1.00  0.00    -0.351 N
ATOM     29  H7  UNL     1      12.198 -11.814  22.454  1.00  0.00     0.163 HD
BRANCH  28  30
HETATM   30  C15 UNL     1      11.803  -9.709  22.625  1.00  0.00     0.222 C
BRANCH  30  31
HETATM   31  C16 UNL     1      11.841  -9.452  24.083  1.00  0.00     0.248 C
HETATM   32  N8  UNL     1      12.104  -8.152  24.590  1.00  0.00    -0.061 NA
HETATM   33  O5  UNL     1      11.638 -10.394  24.893  1.00  0.00    -0.275 OA
ENDBRANCH  30  31
ENDBRANCH  28  30
ENDBRANCH   7  26
BRANCH   5  34
HETATM   34  C12 UNL     1      12.457 -14.376  19.444  1.00  0.00     0.332 C
BRANCH  34  35
HETATM   35  N6  UNL     1      12.391 -15.788  19.753  1.00  0.00    -0.071 N
ATOM     36  H63 UNL     1      11.734 -15.966  20.512  1.00  0.00     0.274 HD
ATOM     37  H62 UNL     1      11.923 -16.303  19.007  1.00  0.00     0.274 HD
ATOM     38  H61 UNL     1      13.306 -16.191  19.958  1.00  0.00     0.274 HD
ENDBRANCH  34  35
ENDBRANCH   5  34
TORSDOF 9
ENDMDL