MODEL 3
REMARK VINA RESULT: -8.638362729      2.390      4.256
REMARK  5 active torsions:
REMARK  status: ('A' for Active; 'I' for Inactive)
REMARK       I    between atoms: C2_2  and  N1_4
REMARK    1  A    between atoms: N1_4  and  C3_6
REMARK       I    between atoms: N2_9  and  C6_10
REMARK    2  A    between atoms: C6_10  and  C7_12
REMARK    3  A    between atoms: C7_12  and  C8_13
REMARK    4  A    between atoms: C7_12  and  N3_16
REMARK    5  A    between atoms: C8_13  and  O3_14
REMARK       I    between atoms: N3_16  and  C9_18
REMARK       I    between atoms: C9_18  and  N4_20
ROOT
HETATM    1  N3  UNL     1      16.145 -15.544  21.898  1.00  0.00    -0.328 N
ATOM      2  H3  UNL     1      16.043 -16.538  22.104  1.00  0.00     0.165 HD
HETATM    3  C9  UNL     1      17.419 -14.942  21.989  1.00  0.00     0.319 C
HETATM    4  O4  UNL     1      17.525 -13.701  21.728  1.00  0.00    -0.247 OA
HETATM    5  N4  UNL     1      18.589 -15.654  22.359  1.00  0.00    -0.324 N
HETATM    6  C10 UNL     1      19.866 -14.988  22.449  1.00  0.00     0.156 C
HETATM    7  C11 UNL     1      19.942 -13.985  23.542  1.00  0.00     0.257 C
HETATM    8  N5  UNL     1      20.466 -14.453  24.789  1.00  0.00    -0.064 N
HETATM    9  C12 UNL     1      21.887 -14.598  24.685  1.00  0.00     0.237 C
HETATM   10  C13 UNL     1      22.497 -13.361  25.309  1.00  0.00     0.029 C
HETATM   11  C14 UNL     1      21.508 -13.056  26.407  1.00  0.00     0.029 C
HETATM   12  C15 UNL     1      20.198 -13.452  25.804  1.00  0.00     0.237 C
HETATM   13  C16 UNL     1      19.873 -15.688  25.268  1.00  0.00     0.257 C
HETATM   14  C17 UNL     1      18.404 -15.540  25.479  1.00  0.00     0.150 C
HETATM   15  N6  UNL     1      17.587 -16.613  25.008  1.00  0.00    -0.358 N
ATOM     16  H6  UNL     1      16.765 -16.825  25.572  1.00  0.00     0.162 HD
HETATM   17  C18 UNL     1      17.769 -17.412  23.870  1.00  0.00     0.235 C
HETATM   18  O5  UNL     1      17.245 -18.587  23.861  1.00  0.00    -0.272 OA
HETATM   19  C19 UNL     1      18.506 -17.075  22.635  1.00  0.00     0.230 C
ENDROOT
BRANCH   1  20
HETATM   20  C7  UNL     1      14.958 -14.757  21.508  1.00  0.00     0.202 C
BRANCH  20  21
HETATM   21  C6  UNL     1      14.975 -14.495  20.058  1.00  0.00     0.244 C
HETATM   22  N2  UNL     1      15.149 -13.261  19.421  1.00  0.00    -0.350 N
HETATM   23  C5  UNL     1      15.110 -13.201  17.962  1.00  0.00     0.128 C
HETATM   24  C20 UNL     1      15.382 -12.059  20.149  1.00  0.00     0.128 C
HETATM   25  C4  UNL     1      16.469 -12.746  17.529  1.00  0.00     0.045 C
HETATM   26  C3  UNL     1      17.005 -11.575  18.264  1.00  0.00     0.087 C
HETATM   27  C21 UNL     1      16.187 -11.042  19.384  1.00  0.00     0.045 C
HETATM   28  O2  UNL     1      14.812 -15.514  19.288  1.00  0.00    -0.271 OA
BRANCH  26  29
HETATM   29  N1  UNL     1      18.392 -11.823  18.652  1.00  0.00    -0.357 N
HETATM   30  C2  UNL     1      19.477 -11.799  17.765  1.00  0.00     0.213 C
HETATM   31  C1  UNL     1      20.862 -12.058  18.226  1.00  0.00     0.117 C
HETATM   32  O1  UNL     1      19.261 -11.551  16.551  1.00  0.00    -0.274 OA
ATOM     33  H1  UNL     1      18.582 -12.028  19.633  1.00  0.00     0.162 HD
ENDBRANCH  26  29
ENDBRANCH  20  21
BRANCH  20  34
HETATM   34  C8  UNL     1      13.720 -15.540  21.903  1.00  0.00     0.199 C
BRANCH  34  35
HETATM   35  O3  UNL     1      12.584 -14.973  21.345  1.00  0.00    -0.398 OA
ATOM     36  H3  UNL     1      12.131 -14.434  21.983  1.00  0.00     0.209 HD
ENDBRANCH  34  35
ENDBRANCH  20  34
ENDBRANCH   1  20
TORSDOF 5
ENDMDL