MODEL 3
REMARK VINA RESULT: -7.562485020      2.761      4.380
REMARK  10 active torsions:
REMARK  status: ('A' for Active; 'I' for Inactive)
REMARK    1  A    between atoms: N1_2  and  C2_4
REMARK    2  A    between atoms: C3_7  and  C4_8
REMARK    3  A    between atoms: C5_9  and  C6_10
REMARK       I    between atoms: C6_10  and  N3_12
REMARK    4  A    between atoms: C9_15  and  S1_16
REMARK    5  A    between atoms: S1_16  and  N4_17
REMARK    6  A    between atoms: C10_22  and  C11_23
REMARK    7  A    between atoms: C11_23  and  N5_25
REMARK    8  A    between atoms: N5_25  and  C13_27
REMARK    9  A    between atoms: C13_27  and  O4_28
REMARK   10  A    between atoms: C14_30  and  N6_31
ROOT
HETATM    1  C6  UNL     1      17.418 -13.075  21.726  1.00  0.00     0.299 C
HETATM    2  O1  UNL     1      16.461 -13.003  22.521  1.00  0.00    -0.258 OA
HETATM    3  N3  UNL     1      17.285 -12.983  20.362  1.00  0.00    -0.333 N
HETATM    4  C7  UNL     1      18.460 -13.027  19.446  1.00  0.00     0.129 C
HETATM    5  C8  UNL     1      18.201 -11.668  18.778  1.00  0.00     0.044 C
HETATM    6  C9  UNL     1      16.632 -11.526  18.784  1.00  0.00     0.155 C
HETATM    7  C10 UNL     1      16.229 -12.800  19.401  1.00  0.00     0.130 C
ENDROOT
BRANCH   1   8
HETATM    8  C5  UNL     1      18.714 -13.271  22.391  1.00  0.00     0.003 C
HETATM    9  C4  UNL     1      19.779 -13.409  22.944  1.00  0.00    -0.018 C
BRANCH   9  10
HETATM   10  C3  UNL     1      21.034 -13.571  23.623  1.00  0.00     0.192 A
HETATM   11  N2  UNL     1      22.208 -13.805  23.037  1.00  0.00    -0.166 N
HETATM   12  C2  UNL     1      23.176 -13.903  23.968  1.00  0.00     0.694 A
ATOM     13  H2  UNL     1      22.352 -13.896  22.032  1.00  0.00     0.186 HD
HETATM   14  N8  UNL     1      22.579 -13.723  25.173  1.00  0.00    -0.130 N
HETATM   15  N7  UNL     1      21.294 -13.525  24.947  1.00  0.00    -0.263 N
ATOM     16  H8  UNL     1      23.037 -13.738  26.085  1.00  0.00     0.205 HD
ATOM     17  H7  UNL     1      20.595 -13.359  25.672  1.00  0.00     0.189 HD
BRANCH  12  18
HETATM   18  N1  UNL     1      24.436 -14.122  23.824  1.00  0.00    -0.229 N
HETATM   19  C1  UNL     1      25.030 -15.311  24.404  1.00  0.00     0.165 C
ATOM     20  H1  UNL     1      25.014 -13.463  23.304  1.00  0.00     0.177 HD
ENDBRANCH  12  18
ENDBRANCH   9  10
ENDBRANCH   1   8
BRANCH   7  21
HETATM   21  C11 UNL     1      14.894 -12.995  19.958  1.00  0.00     0.104 C
HETATM   22  C12 UNL     1      13.769 -12.755  18.916  1.00  0.00     0.034 C
BRANCH  21  23
HETATM   23  N5  UNL     1      14.638 -14.392  20.345  1.00  0.00    -0.364 N
ATOM     24  H5  UNL     1      15.242 -15.107  19.940  1.00  0.00     0.162 HD
BRANCH  23  25
HETATM   25  C13 UNL     1      13.643 -14.818  21.212  1.00  0.00     0.160 C
HETATM   26  C14 UNL     1      12.678 -15.869  21.014  1.00  0.00     0.257 C
BRANCH  25  27
HETATM   27  O4  UNL     1      13.545 -14.210  22.359  1.00  0.00    -0.345 OA
ATOM     28  H4  UNL     1      13.014 -14.622  23.030  1.00  0.00     0.219 HD
ENDBRANCH  25  27
BRANCH  26  29
HETATM   29  N6  UNL     1      12.672 -16.615  19.807  1.00  0.00    -0.047 N
HETATM   30  C15 UNL     1      13.885 -17.243  19.417  1.00  0.00     0.278 C
HETATM   31  C16 UNL     1      12.098 -15.902  18.694  1.00  0.00     0.243 C
HETATM   32  C17 UNL     1      11.694 -16.972  17.684  1.00  0.00     0.030 C
HETATM   33  C18 UNL     1      11.371 -18.152  18.538  1.00  0.00     0.030 C
HETATM   34  C19 UNL     1      11.663 -17.708  19.936  1.00  0.00     0.243 C
ENDBRANCH  26  29
ENDBRANCH  23  25
ENDBRANCH  21  23
ENDBRANCH   7  21
BRANCH   6  35
HETATM   35  S1  UNL     1      16.247 -11.257  17.094  1.00  0.00     0.230 S
HETATM   36  O2  UNL     1      14.836 -10.839  16.853  1.00  0.00    -0.206 OA
HETATM   37  O3  UNL     1      17.252 -10.337  16.417  1.00  0.00    -0.206 OA
BRANCH  35  38
HETATM   38  N4  UNL     1      16.464 -12.770  16.207  1.00  0.00    -0.328 N
ATOM     39  H42 UNL     1      16.153 -13.685  16.534  1.00  0.00     0.168 HD
ATOM     40  H41 UNL     1      16.944 -12.573  15.328  1.00  0.00     0.168 HD
ENDBRANCH  35  38
ENDBRANCH   6  35
TORSDOF 10
ENDMDL