MODEL 4
REMARK VINA RESULT: -8.246473123      0.759      1.233
REMARK  6 active torsions:
REMARK  status: ('A' for Active; 'I' for Inactive)
REMARK       I    between atoms: N1_2  and  C2_4
REMARK    1  A    between atoms: C2_4  and  C3_6
REMARK    2  A    between atoms: C3_6  and  N2_7
REMARK       I    between atoms: N3_13  and  C6_14
REMARK    3  A    between atoms: C6_14  and  C7_16
REMARK       I    between atoms: N4_20  and  C11_21
REMARK    4  A    between atoms: C11_21  and  C12_23
REMARK    5  A    between atoms: C12_23  and  C13_24
REMARK    6  A    between atoms: C13_24  and  N5_25
ROOT
HETATM    1  C7  UNL     1      18.146 -11.426  20.513  1.00  0.00     0.258 C
HETATM    2  C8  UNL     1      19.518 -11.608  20.254  1.00  0.00    -0.149 C
HETATM    3  C9  UNL     1      20.883 -11.907  20.084  1.00  0.00     0.104 C
HETATM    4  C10 UNL     1      21.179 -13.118  21.048  1.00  0.00     0.164 C
HETATM    5  N4  UNL     1      19.883 -13.595  21.612  1.00  0.00    -0.249 N
HETATM    6  C11 UNL     1      19.826 -15.018  21.547  1.00  0.00     0.240 C
HETATM    7  O3  UNL     1      20.780 -15.679  21.071  1.00  0.00    -0.272 OA
HETATM    8  N7  UNL     1      18.778 -13.048  22.157  1.00  0.00    -0.240 N
ATOM      9  H7  UNL     1      18.719 -13.072  23.175  1.00  0.00     0.204 HD
HETATM   10  N8  UNL     1      17.739 -12.469  21.512  1.00  0.00    -0.099 NA
ENDROOT
BRANCH   1  11
HETATM   11  C6  UNL     1      17.217 -11.558  19.353  1.00  0.00     0.252 C
HETATM   12  N3  UNL     1      15.830 -11.315  19.472  1.00  0.00    -0.347 N
HETATM   13  C5  UNL     1      14.857 -11.415  18.411  1.00  0.00     0.129 C
HETATM   14  C21 UNL     1      15.164 -10.921  20.694  1.00  0.00     0.174 C
HETATM   15  C4  UNL     1      13.587 -10.783  18.972  1.00  0.00     0.070 C
HETATM   16  C3  UNL     1      13.682 -11.123  20.433  1.00  0.00     0.220 C
HETATM   17  O2  UNL     1      17.696 -11.897  18.243  1.00  0.00    -0.270 OA
BRANCH  16  18
HETATM   18  C2  UNL     1      12.838 -10.255  21.290  1.00  0.00     0.255 C
HETATM   19  N1  UNL     1      12.922 -10.317  22.704  1.00  0.00    -0.363 N
HETATM   20  C1  UNL     1      12.092  -9.467  23.504  1.00  0.00     0.149 C
ATOM     21  H1  UNL     1      13.571 -10.966  23.149  1.00  0.00     0.161 HD
HETATM   22  O1  UNL     1      12.034  -9.454  20.755  1.00  0.00    -0.271 OA
ENDBRANCH  16  18
BRANCH  16  23
HETATM   23  N2  UNL     1      13.335 -12.507  20.623  1.00  0.00    -0.060 N
ATOM     24  H23 UNL     1      13.931 -13.127  20.074  1.00  0.00     0.275 HD
ATOM     25  H22 UNL     1      13.589 -12.837  21.554  1.00  0.00     0.275 HD
ATOM     26  H21 UNL     1      12.346 -12.656  20.424  1.00  0.00     0.275 HD
ENDBRANCH  16  23
ENDBRANCH   1  11
BRANCH   6  27
HETATM   27  C12 UNL     1      18.617 -15.768  22.050  1.00  0.00     0.132 C
BRANCH  27  28
HETATM   28  C13 UNL     1      18.546 -17.086  21.387  1.00  0.00     0.246 C
BRANCH  28  29
HETATM   29  N5  UNL     1      17.245 -17.550  21.045  1.00  0.00    -0.067 N
HETATM   30  C14 UNL     1      17.433 -18.650  20.080  1.00  0.00     0.272 C
HETATM   31  C15 UNL     1      16.438 -16.568  20.352  1.00  0.00     0.265 C
HETATM   32  C16 UNL     1      15.120 -17.222  19.989  1.00  0.00     0.264 C
HETATM   33  N6  UNL     1      14.336 -17.270  21.219  1.00  0.00    -0.071 N
HETATM   34  C17 UNL     1      13.514 -16.075  21.325  1.00  0.00     0.272 C
HETATM   35  C18 UNL     1      13.426 -18.404  21.193  1.00  0.00     0.272 C
HETATM   36  C19 UNL     1      15.197 -17.304  22.387  1.00  0.00     0.264 C
HETATM   37  C20 UNL     1      16.469 -18.082  22.121  1.00  0.00     0.265 C
ENDBRANCH  28  29
ENDBRANCH  27  28
ENDBRANCH   6  27
TORSDOF 6
ENDMDL