MODEL 1
REMARK VINA RESULT: -8.142880206      0.000      0.000
REMARK  6 active torsions:
REMARK  status: ('A' for Active; 'I' for Inactive)
REMARK       I    between atoms: C1_4  and  N3_6
REMARK    1  A    between atoms: N4_9  and  S1_10
REMARK    2  A    between atoms: S1_10  and  N5_13
REMARK       I    between atoms: N5_13  and  C4_15
REMARK       I    between atoms: C4_15  and  N6_17
REMARK    3  A    between atoms: N7_20  and  C7_21
REMARK    4  A    between atoms: C7_21  and  O4_22
REMARK    5  A    between atoms: C7_21  and  N8_24
REMARK    6  A    between atoms: N9_29  and  C12_31
ROOT
HETATM    1  N5  UNL     1      15.292 -13.755  21.823  1.00  0.00    -0.223 N
ATOM      2  H5  UNL     1      15.156 -14.705  22.169  1.00  0.00     0.184 HD
HETATM    3  C4  UNL     1      16.578 -13.177  21.905  1.00  0.00     0.332 C
HETATM    4  O3  UNL     1      16.674 -11.984  21.453  1.00  0.00    -0.246 OA
HETATM    5  N6  UNL     1      17.724 -13.776  22.424  1.00  0.00    -0.330 N
HETATM    6  C5  UNL     1      18.981 -13.043  22.436  1.00  0.00     0.147 C
HETATM    7  C6  UNL     1      20.133 -13.909  22.744  1.00  0.00     0.146 C
HETATM    8  N7  UNL     1      19.920 -14.898  23.809  1.00  0.00    -0.344 N
HETATM    9  C13 UNL     1      18.590 -15.187  24.202  1.00  0.00     0.146 C
HETATM   10  C14 UNL     1      17.685 -15.126  22.948  1.00  0.00     0.147 C
ENDROOT
BRANCH   1  11
HETATM   11  S1  UNL     1      13.944 -12.907  21.158  1.00  0.00     0.306 S
HETATM   12  O1  UNL     1      12.810 -13.883  20.958  1.00  0.00    -0.188 OA
HETATM   13  O2  UNL     1      14.250 -12.322  19.810  1.00  0.00    -0.188 OA
BRANCH  11  14
HETATM   14  N4  UNL     1      13.370 -11.652  22.170  1.00  0.00    -0.190 NA
HETATM   15  C3  UNL     1      13.323 -10.381  21.537  1.00  0.00     0.129 C
HETATM   16  C2  UNL     1      12.099  -9.601  21.932  1.00  0.00     0.141 C
HETATM   17  N3  UNL     1      11.992  -9.625  23.376  1.00  0.00    -0.354 N
HETATM   18  C1  UNL     1      12.002  -8.443  24.154  1.00  0.00     0.184 C
HETATM   19  C16 UNL     1      11.871 -10.958  23.975  1.00  0.00     0.141 C
HETATM   20  N1  UNL     1      13.019  -8.089  24.856  1.00  0.00    -0.374 N
HETATM   21  N2  UNL     1      10.833  -7.635  24.144  1.00  0.00    -0.064 NA
ATOM     22  H12 UNL     1      13.027  -7.238  25.417  1.00  0.00     0.158 HD
ATOM     23  H11 UNL     1      13.858  -8.669  24.864  1.00  0.00     0.158 HD
HETATM   24  C15 UNL     1      12.208 -12.021  22.931  1.00  0.00     0.129 C
ENDBRANCH  11  14
ENDBRANCH   1  11
BRANCH   8  25
HETATM   25  C7  UNL     1      21.100 -15.441  24.370  1.00  0.00     0.223 C
BRANCH  25  26
HETATM   26  O4  UNL     1      20.975 -16.660  24.817  1.00  0.00    -0.332 OA
ATOM     27  H4  UNL     1      21.636 -16.918  25.450  1.00  0.00     0.221 HD
ENDBRANCH  25  26
BRANCH  25  28
HETATM   28  N8  UNL     1      22.378 -14.851  24.506  1.00  0.00    -0.302 N
HETATM   29  C8  UNL     1      22.783 -13.504  24.821  1.00  0.00     0.134 C
HETATM   30  C9  UNL     1      24.301 -13.474  24.812  1.00  0.00     0.028 C
HETATM   31  C10 UNL     1      24.697 -14.930  25.026  1.00  0.00     0.078 C
HETATM   32  C11 UNL     1      23.596 -15.629  24.285  1.00  0.00     0.088 C
HETATM   33  N9  UNL     1      23.675 -16.697  23.575  1.00  0.00    -0.324 N
ATOM     34  H9  UNL     1      22.831 -17.046  23.122  1.00  0.00     0.169 HD
BRANCH  33  35
HETATM   35  C12 UNL     1      24.881 -17.408  23.397  1.00  0.00     0.354 C
HETATM   36  O5  UNL     1      25.661 -17.187  22.434  1.00  0.00    -0.283 OA
ENDBRANCH  33  35
ENDBRANCH  25  28
ENDBRANCH   8  25
TORSDOF 6
ENDMDL