MODEL 5
REMARK VINA RESULT: -7.900563676      1.569      1.787
REMARK  8 active torsions:
REMARK  status: ('A' for Active; 'I' for Inactive)
REMARK    1  A    between atoms: C3_3  and  N1_4
REMARK    2  A    between atoms: N1_4  and  C4_6
REMARK    3  A    between atoms: C4_6  and  N2_8
REMARK    4  A    between atoms: N3_11  and  C7_12
REMARK    5  A    between atoms: C7_12  and  N4_14
REMARK    6  A    between atoms: N4_14  and  S3_16
REMARK    7  A    between atoms: S3_16  and  N5_19
REMARK    8  A    between atoms: C10_22  and  C11_23
REMARK       I    between atoms: C11_23  and  N6_25
ROOT
HETATM    1  C1  UNL     1      21.191 -12.673  26.971  1.00  0.00     0.014 C
HETATM    2  C2  UNL     1      20.756 -13.457  26.166  1.00  0.00    -0.098 C
HETATM    3  C3  UNL     1      20.251 -14.409  25.180  1.00  0.00     0.215 C
ENDROOT
BRANCH   3   4
HETATM    4  N1  UNL     1      19.309 -13.764  24.264  1.00  0.00    -0.357 N
ATOM      5  H1  UNL     1      18.448 -13.360  24.633  1.00  0.00     0.162 HD
BRANCH   4   6
HETATM    6  C4  UNL     1      19.575 -13.691  22.871  1.00  0.00     0.170 C
HETATM    7  S1  UNL     1      21.133 -13.725  22.366  1.00  0.00    -0.041 SA
BRANCH   6   8
HETATM    8  N2  UNL     1      18.550 -13.590  21.897  1.00  0.00    -0.355 N
HETATM    9  C5  UNL     1      17.427 -14.500  21.970  1.00  0.00     0.145 C
HETATM   10  C6  UNL     1      16.271 -13.913  21.181  1.00  0.00     0.145 C
HETATM   11  N3  UNL     1      16.710 -13.720  19.823  1.00  0.00    -0.354 N
HETATM   12  C14 UNL     1      18.031 -13.199  19.562  1.00  0.00     0.145 C
HETATM   13  C15 UNL     1      18.627 -12.590  20.840  1.00  0.00     0.145 C
BRANCH  11  14
HETATM   14  C7  UNL     1      15.840 -14.043  18.753  1.00  0.00     0.184 C
HETATM   15  S2  UNL     1      15.315 -15.589  18.555  1.00  0.00    -0.040 SA
BRANCH  14  16
HETATM   16  N4  UNL     1      15.376 -13.081  17.827  1.00  0.00    -0.247 N
ATOM     17  H4  UNL     1      15.212 -13.381  16.866  1.00  0.00     0.182 HD
BRANCH  16  18
HETATM   18  S3  UNL     1      15.071 -11.442  18.220  1.00  0.00     0.306 S
HETATM   19  O1  UNL     1      14.201 -10.880  17.108  1.00  0.00    -0.188 OA
HETATM   20  O2  UNL     1      16.371 -10.698  18.145  1.00  0.00    -0.188 OA
BRANCH  18  21
HETATM   21  N5  UNL     1      14.257 -11.214  19.695  1.00  0.00    -0.168 NA
HETATM   22  C8  UNL     1      13.278 -12.199  20.023  1.00  0.00     0.113 C
HETATM   23  C9  UNL     1      12.737 -12.036  21.432  1.00  0.00     0.058 C
HETATM   24  C10 UNL     1      13.063 -10.639  21.894  1.00  0.00     0.279 C
HETATM   25  N7  UNL     1      12.760  -9.692  20.824  1.00  0.00    -0.050 N
HETATM   26  C13 UNL     1      13.592  -9.921  19.674  1.00  0.00     0.341 C
ATOM     27  H72 UNL     1      11.770  -9.708  20.579  1.00  0.00     0.279 HD
ATOM     28  H71 UNL     1      12.825  -8.728  21.148  1.00  0.00     0.279 HD
BRANCH  24  29
HETATM   29  C11 UNL     1      12.256 -10.279  23.088  1.00  0.00     0.248 C
HETATM   30  O3  UNL     1      11.400 -11.073  23.557  1.00  0.00    -0.271 OA
HETATM   31  N6  UNL     1      12.453  -9.031  23.702  1.00  0.00    -0.364 N
HETATM   32  C12 UNL     1      11.683  -8.658  24.860  1.00  0.00     0.149 C
ATOM     33  H6  UNL     1      13.146  -8.385  23.325  1.00  0.00     0.161 HD
ENDBRANCH  24  29
ENDBRANCH  18  21
ENDBRANCH  16  18
ENDBRANCH  14  16
ENDBRANCH  11  14
ENDBRANCH   6   8
ENDBRANCH   4   6
ENDBRANCH   3   4
TORSDOF 8
ENDMDL