MODEL 3
REMARK VINA RESULT: -7.553188682      2.148      6.279
REMARK  7 active torsions:
REMARK  status: ('A' for Active; 'I' for Inactive)
REMARK    1  A    between atoms: C2_3  and  O1_4
REMARK    2  A    between atoms: O1_4  and  C3_5
REMARK    3  A    between atoms: C3_5  and  C4_6
REMARK    4  A    between atoms: C4_6  and  O2_7
REMARK    5  A    between atoms: C4_6  and  C5_9
REMARK    6  A    between atoms: C4_6  and  C6_12
REMARK    7  A    between atoms: C5_9  and  O3_10
ROOT
HETATM    1  C4  UNL     1     -23.786  23.773 153.328  1.00  0.00     0.122 C
ENDROOT
BRANCH   1   2
HETATM    2  C3  UNL     1     -24.777  22.689 153.658  1.00  0.00     0.219 C
BRANCH   2   3
HETATM    3  O1  UNL     1     -26.017  23.169 154.096  1.00  0.00    -0.331 OA
BRANCH   3   4
HETATM    4  C2  UNL     1     -26.827  22.320 154.813  1.00  0.00     0.176 A
HETATM    5  C1  UNL     1     -27.112  22.566 156.131  1.00  0.00     0.165 A
HETATM    6  N1  UNL     1     -26.580  23.703 156.792  1.00  0.00    -0.092 NA
HETATM    7  C10 UNL     1     -27.936  21.693 156.840  1.00  0.00     0.278 A
HETATM    8  N5  UNL     1     -28.453  20.604 156.228  1.00  0.00    -0.274 N
HETATM    9  O6  UNL     1     -28.201  21.906 158.035  1.00  0.00    -0.266 OA
HETATM   10  C9  UNL     1     -28.147  20.405 154.936  1.00  0.00     0.329 A
ATOM     11  H5  UNL     1     -29.056  19.954 156.731  1.00  0.00     0.173 HD
HETATM   12  N4  UNL     1     -27.348  21.239 154.228  1.00  0.00    -0.287 N
HETATM   13  O5  UNL     1     -28.631  19.389 154.367  1.00  0.00    -0.247 OA
ATOM     14  H4  UNL     1     -27.144  21.041 153.249  1.00  0.00     0.172 HD
ENDBRANCH   3   4
ENDBRANCH   2   3
ENDBRANCH   1   2
BRANCH   1  15
HETATM   15  O2  UNL     1     -24.410  24.858 152.731  1.00  0.00    -0.383 OA
ATOM     16  H2  UNL     1     -23.905  25.654 152.852  1.00  0.00     0.210 HD
ENDBRANCH   1  15
BRANCH   1  17
HETATM   17  C5  UNL     1     -22.759  23.235 152.340  1.00  0.00     0.206 C
BRANCH  17  18
HETATM   18  O3  UNL     1     -21.827  24.229 152.048  1.00  0.00    -0.398 OA
ATOM     19  H3  UNL     1     -21.579  24.174 151.133  1.00  0.00     0.209 HD
ENDBRANCH  17  18
ENDBRANCH   1  17
BRANCH   1  20
HETATM   20  C6  UNL     1     -23.074  24.138 154.600  1.00  0.00     0.142 C
HETATM   21  C7  UNL     1     -22.448  22.847 155.137  1.00  0.00     0.152 C
HETATM   22  N2  UNL     1     -22.303  23.182 156.537  1.00  0.00    -0.341 N
HETATM   23  C8  UNL     1     -23.238  24.223 156.882  1.00  0.00     0.316 C
ATOM     24  H2  UNL     1     -21.641  22.748 157.181  1.00  0.00     0.164 HD
HETATM   25  O4  UNL     1     -23.362  24.742 158.026  1.00  0.00    -0.247 OA
HETATM   26  N3  UNL     1     -23.941  24.501 155.679  1.00  0.00    -0.334 N
ATOM     27  H3  UNL     1     -24.883  24.885 155.599  1.00  0.00     0.164 HD
ENDBRANCH   1  20
TORSDOF 7
ENDMDL