MODEL 1
REMARK VINA RESULT: -7.161188644      0.000      0.000
REMARK  7 active torsions:
REMARK  status: ('A' for Active; 'I' for Inactive)
REMARK    1  A    between atoms: C1_4  and  C2_6
REMARK    2  A    between atoms: C2_6  and  N3_7
REMARK    3  A    between atoms: C4_9  and  N4_10
REMARK    4  A    between atoms: N4_10  and  C5_13
REMARK    5  A    between atoms: C5_13  and  C6_14
REMARK    6  A    between atoms: C6_14  and  N5_15
REMARK    7  A    between atoms: N5_15  and  C7_17
ROOT
HETATM    1  N4  UNL     1     -25.999  22.266 153.300  1.00  0.00    -0.051 N
ATOM      2  H41 UNL     1     -26.418  23.104 153.703  1.00  0.00     0.279 HD
ATOM      3  H42 UNL     1     -26.528  22.236 152.429  1.00  0.00     0.279 HD
ENDROOT
BRANCH   1   4
HETATM    4  C4  UNL     1     -26.237  21.112 154.107  1.00  0.00     0.306 C
HETATM    5  C3  UNL     1     -25.913  21.327 155.562  1.00  0.00     0.182 C
HETATM    6  N3  UNL     1     -27.240  21.393 156.198  1.00  0.00    -0.324 N
HETATM    7  C11 UNL     1     -28.119  20.581 155.403  1.00  0.00     0.320 C
HETATM    8  N9  UNL     1     -27.617  20.668 154.077  1.00  0.00    -0.313 N
HETATM    9  O1  UNL     1     -29.106  19.944 155.803  1.00  0.00    -0.247 OA
ATOM     10  H9  UNL     1     -28.147  20.451 153.233  1.00  0.00     0.166 HD
BRANCH   6  11
HETATM   11  C2  UNL     1     -27.505  22.148 157.389  1.00  0.00     0.200 C
BRANCH  11  12
HETATM   12  C1  UNL     1     -27.327  23.587 157.088  1.00  0.00     0.104 C
HETATM   13  N1  UNL     1     -28.301  24.268 156.623  1.00  0.00    -0.390 N
ATOM     14  H12 UNL     1     -28.179  25.259 156.416  1.00  0.00     0.157 HD
ATOM     15  H11 UNL     1     -29.204  23.823 156.457  1.00  0.00     0.157 HD
HETATM   16  N2  UNL     1     -26.073  24.203 157.319  1.00  0.00    -0.086 NA
ENDBRANCH  11  12
ENDBRANCH   6  11
ENDBRANCH   1   4
BRANCH   1  17
HETATM   17  C5  UNL     1     -24.593  22.429 153.068  1.00  0.00     0.254 C
BRANCH  17  18
HETATM   18  C6  UNL     1     -24.154  23.871 153.213  1.00  0.00     0.148 C
BRANCH  18  19
HETATM   19  N5  UNL     1     -24.173  24.232 154.598  1.00  0.00    -0.378 N
ATOM     20  H5  UNL     1     -25.067  24.366 155.071  1.00  0.00     0.160 HD
BRANCH  19  21
HETATM   21  C7  UNL     1     -22.965  24.406 155.321  1.00  0.00     0.080 A
HETATM   22  N6  UNL     1     -22.984  25.067 156.453  1.00  0.00    -0.321 N
HETATM   23  C8  UNL     1     -21.867  25.301 157.249  1.00  0.00     0.189 A
ATOM     24  H6  UNL     1     -23.880  25.435 156.774  1.00  0.00     0.169 HD
HETATM   25  N7  UNL     1     -21.891  26.014 158.480  1.00  0.00    -0.064 NA
HETATM   26  N8  UNL     1     -20.727  24.847 156.873  1.00  0.00    -0.364 N
HETATM   27  C9  UNL     1     -20.504  24.107 155.682  1.00  0.00     0.130 A
ATOM     28  H8  UNL     1     -19.924  25.031 157.474  1.00  0.00     0.162 HD
HETATM   29  C10 UNL     1     -21.691  23.854 154.820  1.00  0.00     0.096 A
ENDBRANCH  19  21
ENDBRANCH  18  19
ENDBRANCH  17  18
ENDBRANCH   1  17
TORSDOF 7
ENDMDL