MODEL 2
REMARK VINA RESULT: -7.302085916      1.446      1.496
REMARK  5 active torsions:
REMARK  status: ('A' for Active; 'I' for Inactive)
REMARK    1  A    between atoms: N1_1  and  C1_4
REMARK    2  A    between atoms: C4_12  and  S1_13
REMARK    3  A    between atoms: S1_13  and  C5_14
REMARK    4  A    between atoms: C5_14  and  C6_15
REMARK    5  A    between atoms: C6_15  and  C7_16
ROOT
HETATM    1  C1  UNL     1     -28.064  21.938 157.003  1.00  0.00     0.680 A
HETATM    2  N2  UNL     1     -28.509  22.082 155.751  1.00  0.00    -0.154 N
ATOM      3  H2  UNL     1     -29.495  21.910 155.551  1.00  0.00     0.187 HD
HETATM    4  C2  UNL     1     -27.695  22.448 154.753  1.00  0.00     0.290 A
HETATM    5  O1  UNL     1     -28.122  22.577 153.583  1.00  0.00    -0.265 OA
HETATM    6  C3  UNL     1     -26.341  22.684 155.032  1.00  0.00     0.148 A
HETATM    7  N3  UNL     1     -25.333  23.027 154.248  1.00  0.00    -0.329 N
ATOM      8  H3  UNL     1     -25.392  23.197 153.244  1.00  0.00     0.168 HD
HETATM    9  C4  UNL     1     -24.184  23.116 155.014  1.00  0.00     0.146 A
HETATM   10  N6  UNL     1     -24.555  22.818 156.249  1.00  0.00    -0.320 N
ATOM     11  H6  UNL     1     -23.923  22.798 157.049  1.00  0.00     0.169 HD
HETATM   12  C9  UNL     1     -25.887  22.540 156.316  1.00  0.00     0.155 A
HETATM   13  N7  UNL     1     -26.736  22.175 157.278  1.00  0.00    -0.174 N
ATOM     14  H7  UNL     1     -26.395  22.071 158.234  1.00  0.00     0.186 HD
ENDROOT
BRANCH   9  15
HETATM   15  S1  UNL     1     -22.643  23.532 154.253  1.00  0.00    -0.091 SA
BRANCH  15  16
HETATM   16  C5  UNL     1     -21.209  23.408 155.325  1.00  0.00     0.133 C
BRANCH  16  17
HETATM   17  C6  UNL     1     -20.892  24.758 156.020  1.00  0.00     0.235 A
HETATM   18  C8  UNL     1     -19.665  24.623 156.954  1.00  0.00     0.283 A
HETATM   19  N5  UNL     1     -19.654  25.365 155.743  1.00  0.00    -0.052 N
ATOM     20  H52 UNL     1     -19.045  25.315 154.926  1.00  0.00     0.278 HD
ATOM     21  H51 UNL     1     -19.406  26.335 155.548  1.00  0.00     0.278 HD
BRANCH  17  22
HETATM   22  C7  UNL     1     -21.985  25.464 156.693  1.00  0.00     0.270 C
HETATM   23  N4  UNL     1     -22.716  24.910 157.769  1.00  0.00    -0.060 NA
HETATM   24  O2  UNL     1     -22.294  26.621 156.311  1.00  0.00    -0.274 OA
ENDBRANCH  17  22
ENDBRANCH  16  17
ENDBRANCH  15  16
ENDBRANCH   9  15
BRANCH   1  25
HETATM   25  N1  UNL     1     -28.851  21.553 157.943  1.00  0.00    -0.234 N
ATOM     26  H12 UNL     1     -29.804  21.269 157.720  1.00  0.00     0.174 HD
ATOM     27  H11 UNL     1     -28.542  21.550 158.916  1.00  0.00     0.174 HD
ENDBRANCH   1  25
TORSDOF 5
ENDMDL