MODEL 4
REMARK VINA RESULT: -7.428235880      2.096      3.345
REMARK  7 active torsions:
REMARK  status: ('A' for Active; 'I' for Inactive)
REMARK    1  A    between atoms: N1_1  and  C1_4
REMARK    2  A    between atoms: C2_9  and  N4_10
REMARK    3  A    between atoms: N4_10  and  C3_12
REMARK    4  A    between atoms: N6_17  and  C5_18
REMARK    5  A    between atoms: C5_18  and  C6_19
REMARK    6  A    between atoms: C6_19  and  C7_20
REMARK    7  A    between atoms: C7_20  and  C8_21
ROOT
HETATM    1  C3  UNL     1     -24.170  23.680 155.799  1.00  0.00     0.705 A
HETATM    2  N5  UNL     1     -23.200  22.753 155.713  1.00  0.00    -0.140 N
ATOM      3  H5  UNL     1     -22.982  22.163 156.516  1.00  0.00     0.189 HD
HETATM    4  C4  UNL     1     -22.507  22.605 154.544  1.00  0.00     0.344 A
HETATM    5  O1  UNL     1     -21.614  21.700 154.585  1.00  0.00    -0.246 OA
HETATM    6  N6  UNL     1     -22.762  23.358 153.466  1.00  0.00    -0.250 N
HETATM    7  C9  UNL     1     -23.729  24.285 153.545  1.00  0.00     0.344 A
HETATM    8  O3  UNL     1     -24.008  25.029 152.538  1.00  0.00    -0.246 OA
HETATM    9  N8  UNL     1     -24.400  24.417 154.703  1.00  0.00    -0.140 N
ATOM     10  H8  UNL     1     -25.131  25.127 154.751  1.00  0.00     0.189 HD
ENDROOT
BRANCH   1  11
HETATM   11  N4  UNL     1     -24.884  23.830 157.009  1.00  0.00    -0.020 N
ATOM     12  H4  UNL     1     -24.374  24.148 157.834  1.00  0.00     0.203 HD
BRANCH  11  13
HETATM   13  C2  UNL     1     -26.137  23.588 157.127  1.00  0.00     0.726 A
HETATM   14  N3  UNL     1     -27.145  24.437 156.892  1.00  0.00    -0.117 N
HETATM   15  N2  UNL     1     -28.308  23.812 157.128  1.00  0.00    -0.118 N
ATOM     16  H3  UNL     1     -27.045  25.404 156.583  1.00  0.00     0.206 HD
HETATM   17  C1  UNL     1     -28.020  22.556 157.515  1.00  0.00     0.705 A
ATOM     18  H2  UNL     1     -29.240  24.215 157.032  1.00  0.00     0.206 HD
HETATM   19  N9  UNL     1     -26.661  22.416 157.514  1.00  0.00    -0.019 N
ATOM     20  H9  UNL     1     -26.141  21.574 157.762  1.00  0.00     0.203 HD
BRANCH  17  21
HETATM   21  N1  UNL     1     -28.879  21.647 157.830  1.00  0.00    -0.233 N
ATOM     22  H12 UNL     1     -28.777  20.644 157.680  1.00  0.00     0.174 HD
ATOM     23  H11 UNL     1     -29.785  21.809 158.272  1.00  0.00     0.174 HD
ENDBRANCH  17  21
ENDBRANCH  11  13
ENDBRANCH   1  11
BRANCH   6  24
HETATM   24  C5  UNL     1     -22.020  23.160 152.266  1.00  0.00     0.139 C
BRANCH  24  25
HETATM   25  C6  UNL     1     -20.711  23.846 152.165  1.00  0.00     0.029 C
BRANCH  25  26
HETATM   26  C7  UNL     1     -19.808  23.410 151.064  1.00  0.00     0.101 C
BRANCH  26  27
HETATM   27  C8  UNL     1     -18.911  24.525 150.665  1.00  0.00     0.231 C
HETATM   28  N7  UNL     1     -18.491  25.530 151.564  1.00  0.00    -0.062 NA
HETATM   29  O2  UNL     1     -18.506  24.581 149.482  1.00  0.00    -0.277 OA
ENDBRANCH  26  27
ENDBRANCH  25  26
ENDBRANCH  24  25
ENDBRANCH   6  24
TORSDOF 7
ENDMDL