MODEL 2
REMARK VINA RESULT: -6.395178577      2.497      6.032
REMARK  8 active torsions:
REMARK  status: ('A' for Active; 'I' for Inactive)
REMARK    1  A    between atoms: C5_10  and  N3_11
REMARK    2  A    between atoms: N3_11  and  C6_13
REMARK    3  A    between atoms: C6_13  and  C7_14
REMARK    4  A    between atoms: C7_14  and  N4_15
REMARK    5  A    between atoms: N4_15  and  C8_17
REMARK    6  A    between atoms: C8_17  and  C9_18
REMARK    7  A    between atoms: C9_18  and  N5_19
REMARK    8  A    between atoms: C10_25  and  N7_26
ROOT
HETATM    1  C1  UNL     1     -20.407  24.385 156.379  1.00  0.00     0.163 C
HETATM    2  N1  UNL     1     -21.830  24.122 156.470  1.00  0.00    -0.288 N
HETATM    3  C2  UNL     1     -22.473  24.120 157.647  1.00  0.00     0.330 A
HETATM    4  O1  UNL     1     -21.816  24.357 158.710  1.00  0.00    -0.246 OA
HETATM    5  N2  UNL     1     -23.783  23.884 157.792  1.00  0.00    -0.274 N
ATOM      6  H2  UNL     1     -24.207  23.899 158.719  1.00  0.00     0.173 HD
HETATM    7  C3  UNL     1     -24.536  23.628 156.709  1.00  0.00     0.267 A
HETATM    8  O2  UNL     1     -25.787  23.398 156.807  1.00  0.00    -0.267 OA
HETATM    9  C4  UNL     1     -23.915  23.619 155.478  1.00  0.00     0.121 A
HETATM   10  C5  UNL     1     -24.707  23.350 154.354  1.00  0.00     0.136 A
HETATM   11  N6  UNL     1     -24.069  23.349 153.173  1.00  0.00    -0.176 N
ATOM     12  H6  UNL     1     -24.599  23.159 152.322  1.00  0.00     0.186 HD
HETATM   13  C10 UNL     1     -22.736  23.595 153.084  1.00  0.00     0.679 A
HETATM   14  N8  UNL     1     -21.978  23.853 154.153  1.00  0.00    -0.175 N
ATOM     15  H8  UNL     1     -20.979  24.035 154.054  1.00  0.00     0.186 HD
HETATM   16  C11 UNL     1     -22.564  23.866 155.362  1.00  0.00     0.146 A
ENDROOT
BRANCH  10  17
HETATM   17  N3  UNL     1     -25.943  23.131 154.524  1.00  0.00    -0.373 N
ATOM     18  H3  UNL     1     -26.271  23.189 155.488  1.00  0.00     0.161 HD
BRANCH  17  19
HETATM   19  C6  UNL     1     -26.939  22.817 153.555  1.00  0.00     0.140 C
BRANCH  19  20
HETATM   20  C7  UNL     1     -27.895  21.818 154.194  1.00  0.00     0.133 C
BRANCH  20  21
HETATM   21  N4  UNL     1     -28.290  22.149 155.518  1.00  0.00    -0.418 N
ATOM     22  H4  UNL     1     -28.610  23.082 155.779  1.00  0.00     0.153 HD
BRANCH  21  23
HETATM   23  C8  UNL     1     -28.206  21.078 156.454  1.00  0.00     0.141 C
BRANCH  23  24
HETATM   24  C9  UNL     1     -28.456  21.665 157.845  1.00  0.00     0.248 C
BRANCH  24  25
HETATM   25  N5  UNL     1     -28.869  23.054 157.620  1.00  0.00    -0.078 N
ATOM     26  H53 UNL     1     -28.605  23.417 156.703  1.00  0.00     0.274 HD
ATOM     27  H52 UNL     1     -29.877  23.168 157.509  1.00  0.00     0.274 HD
ATOM     28  H51 UNL     1     -28.481  23.586 158.398  1.00  0.00     0.274 HD
ENDBRANCH  24  25
ENDBRANCH  23  24
ENDBRANCH  21  23
ENDBRANCH  20  21
ENDBRANCH  19  20
ENDBRANCH  17  19
ENDBRANCH  10  17
BRANCH  13  29
HETATM   29  N7  UNL     1     -22.154  23.588 151.929  1.00  0.00    -0.234 N
ATOM     30  H72 UNL     1     -22.034  24.484 151.458  1.00  0.00     0.174 HD
ATOM     31  H71 UNL     1     -21.837  22.707 151.525  1.00  0.00     0.174 HD
ENDBRANCH  13  29
TORSDOF 8
ENDMDL