MODEL 1
REMARK VINA RESULT: -7.678611535      0.000      0.000
REMARK  6 active torsions:
REMARK  status: ('A' for Active; 'I' for Inactive)
REMARK    1  A    between atoms: C2_2  and  C3_3
REMARK    2  A    between atoms: C2_2  and  N3_14
REMARK    3  A    between atoms: C3_3  and  C4_4
REMARK    4  A    between atoms: C6_11  and  O2_12
REMARK    5  A    between atoms: C7_16  and  C8_17
REMARK    6  A    between atoms: N5_20  and  N6_21
ROOT
HETATM    1  N3  UNL     1     -25.249  23.630 154.185  1.00  0.00    -0.392 N
ATOM      2  H3  UNL     1     -25.611  24.514 154.543  1.00  0.00     0.159 HD
HETATM    3  C7  UNL     1     -24.144  23.194 154.658  1.00  0.00     0.120 C
ENDROOT
BRANCH   1   4
HETATM    4  C2  UNL     1     -26.015  22.938 153.167  1.00  0.00     0.082 C
HETATM    5  C1  UNL     1     -25.723  23.585 151.842  1.00  0.00     0.032 C
BRANCH   4   6
HETATM    6  C3  UNL     1     -27.451  22.983 153.553  1.00  0.00     0.086 C
BRANCH   6   7
HETATM    7  C4  UNL     1     -27.739  22.436 154.890  1.00  0.00     0.066 A
HETATM    8  N1  UNL     1     -27.756  22.988 156.098  1.00  0.00    -0.308 N
HETATM    9  C5  UNL     1     -28.087  22.052 157.036  1.00  0.00     0.326 A
ATOM     10  H1  UNL     1     -27.551  23.968 156.296  1.00  0.00     0.170 HD
HETATM   11  O1  UNL     1     -28.192  22.247 158.286  1.00  0.00    -0.247 OA
HETATM   12  N2  UNL     1     -28.279  20.892 156.381  1.00  0.00    -0.287 N
HETATM   13  C6  UNL     1     -28.073  21.103 155.082  1.00  0.00     0.167 A
ATOM     14  H2  UNL     1     -28.539  20.002 156.807  1.00  0.00     0.172 HD
BRANCH  13  15
HETATM   15  O2  UNL     1     -28.188  20.109 154.106  1.00  0.00    -0.345 OA
ATOM     16  H2  UNL     1     -27.764  19.258 154.097  1.00  0.00     0.219 HD
ENDBRANCH  13  15
ENDBRANCH   6   7
ENDBRANCH   4   6
ENDBRANCH   1   4
BRANCH   3  17
HETATM   17  C8  UNL     1     -23.421  23.929 155.673  1.00  0.00     0.133 A
HETATM   18  N4  UNL     1     -22.164  24.356 155.464  1.00  0.00    -0.269 N
HETATM   19  N5  UNL     1     -21.468  25.033 156.373  1.00  0.00    -0.148 N
ATOM     20  H4  UNL     1     -21.723  24.151 154.566  1.00  0.00     0.189 HD
HETATM   21  C9  UNL     1     -22.072  25.296 157.563  1.00  0.00     0.363 A
HETATM   22  O3  UNL     1     -21.442  25.938 158.456  1.00  0.00    -0.243 OA
HETATM   23  N7  UNL     1     -23.322  24.890 157.818  1.00  0.00    -0.271 N
HETATM   24  C10 UNL     1     -23.999  24.213 156.889  1.00  0.00     0.279 A
ATOM     25  H7  UNL     1     -23.755  25.098 158.718  1.00  0.00     0.174 HD
HETATM   26  O4  UNL     1     -25.173  23.850 157.173  1.00  0.00    -0.265 OA
BRANCH  19  27
HETATM   27  N6  UNL     1     -20.169  25.470 156.144  1.00  0.00    -0.320 N
ATOM     28  H62 UNL     1     -19.391  25.027 156.633  1.00  0.00     0.179 HD
ATOM     29  H61 UNL     1     -19.953  26.230 155.499  1.00  0.00     0.179 HD
ENDBRANCH  19  27
ENDBRANCH   3  17
TORSDOF 6
ENDMDL