MODEL 3
REMARK VINA RESULT: -7.255252646      2.745      5.094
REMARK  8 active torsions:
REMARK  status: ('A' for Active; 'I' for Inactive)
REMARK    1  A    between atoms: N1_1  and  C1_4
REMARK    2  A    between atoms: C3_10  and  N4_11
REMARK    3  A    between atoms: N4_11  and  C4_13
REMARK    4  A    between atoms: C4_13  and  C5_14
REMARK    5  A    between atoms: C5_14  and  C6_15
REMARK    6  A    between atoms: C6_15  and  O1_16
REMARK    7  A    between atoms: N6_21  and  C8_23
REMARK    8  A    between atoms: C8_23  and  C9_24
ROOT
HETATM    1  C1  UNL     1     -21.404  23.330 152.062  1.00  0.00     0.692 A
HETATM    2  N2  UNL     1     -22.708  23.159 151.798  1.00  0.00    -0.173 N
ATOM      3  H2  UNL     1     -23.023  22.964 150.848  1.00  0.00     0.186 HD
HETATM    4  C2  UNL     1     -23.597  23.252 152.808  1.00  0.00     0.168 A
HETATM    5  N3  UNL     1     -24.917  23.089 152.598  1.00  0.00    -0.174 N
ATOM      6  H3  UNL     1     -25.240  22.892 151.650  1.00  0.00     0.186 HD
HETATM    7  C3  UNL     1     -25.827  23.175 153.582  1.00  0.00     0.681 A
HETATM    8  N5  UNL     1     -25.409  23.428 154.810  1.00  0.00    -0.174 N
ATOM      9  H5  UNL     1     -26.112  23.490 155.546  1.00  0.00     0.186 HD
HETATM   10  C7  UNL     1     -24.100  23.613 155.164  1.00  0.00     0.153 A
HETATM   11  N6  UNL     1     -23.792  23.853 156.365  1.00  0.00    -0.345 N
ATOM     12  H6  UNL     1     -24.609  23.882 156.975  1.00  0.00     0.167 HD
HETATM   13  C10 UNL     1     -23.202  23.519 154.129  1.00  0.00     0.138 A
HETATM   14  N8  UNL     1     -21.900  23.676 154.322  1.00  0.00    -0.280 N
ATOM     15  H8  UNL     1     -21.557  23.872 155.262  1.00  0.00     0.188 HD
HETATM   16  N9  UNL     1     -21.037  23.585 153.330  1.00  0.00    -0.132 N
ATOM     17  H9  UNL     1     -20.046  23.714 153.534  1.00  0.00     0.205 HD
ENDROOT
BRANCH   7  18
HETATM   18  N4  UNL     1     -27.097  23.005 153.298  1.00  0.00    -0.226 N
ATOM     19  H4  UNL     1     -27.473  23.273 152.389  1.00  0.00     0.177 HD
BRANCH  18  20
HETATM   20  C4  UNL     1     -27.949  22.426 154.315  1.00  0.00     0.140 C
BRANCH  20  21
HETATM   21  C5  UNL     1     -27.668  20.927 154.385  1.00  0.00     0.046 C
BRANCH  21  22
HETATM   22  C6  UNL     1     -28.226  20.421 155.712  1.00  0.00     0.165 C
BRANCH  22  23
HETATM   23  O1  UNL     1     -29.434  19.767 155.512  1.00  0.00    -0.401 OA
ATOM     24  H1  UNL     1     -30.112  20.146 156.060  1.00  0.00     0.209 HD
ENDBRANCH  22  23
ENDBRANCH  21  22
ENDBRANCH  20  21
ENDBRANCH  18  20
ENDBRANCH   7  18
BRANCH  11  25
HETATM   25  C8  UNL     1     -22.608  24.085 157.057  1.00  0.00     0.160 C
BRANCH  25  26
HETATM   26  C9  UNL     1     -22.363  25.568 157.184  1.00  0.00     0.270 C
HETATM   27  N7  UNL     1     -21.841  26.298 156.076  1.00  0.00    -0.057 NA
HETATM   28  O2  UNL     1     -22.597  26.212 158.235  1.00  0.00    -0.270 OA
ENDBRANCH  25  26
ENDBRANCH  11  25
BRANCH   1  29
HETATM   29  N1  UNL     1     -20.501  23.249 151.110  1.00  0.00    -0.233 N
ATOM     30  H12 UNL     1     -20.461  23.954 150.373  1.00  0.00     0.174 HD
ATOM     31  H11 UNL     1     -19.826  22.485 151.087  1.00  0.00     0.174 HD
ENDBRANCH   1  29
TORSDOF 8
ENDMDL