MODEL 5
REMARK VINA RESULT: -7.082080147      2.033      2.436
REMARK  9 active torsions:
REMARK  status: ('A' for Active; 'I' for Inactive)
REMARK    1  A    between atoms: O1_2  and  N1_3
REMARK    2  A    between atoms: N1_3  and  C2_5
REMARK    3  A    between atoms: C3_8  and  N3_9
REMARK    4  A    between atoms: C5_17  and  N6_18
REMARK    5  A    between atoms: N6_18  and  C6_20
REMARK    6  A    between atoms: C6_20  and  C7_21
REMARK    7  A    between atoms: C7_21  and  C8_22
REMARK    8  A    between atoms: C8_22  and  C9_23
REMARK    9  A    between atoms: C9_23  and  O2_24
ROOT
HETATM    1  C2  UNL     1     -25.244  23.375 156.977  1.00  0.00     0.160 A
HETATM    2  N2  UNL     1     -26.458  23.546 157.537  1.00  0.00    -0.174 N
ATOM      3  H2  UNL     1     -26.526  23.869 158.502  1.00  0.00     0.186 HD
HETATM    4  C3  UNL     1     -27.580  23.295 156.840  1.00  0.00     0.679 A
HETATM    5  N4  UNL     1     -27.433  22.870 155.572  1.00  0.00    -0.175 N
ATOM      6  H4  UNL     1     -28.280  22.677 155.037  1.00  0.00     0.186 HD
HETATM    7  C4  UNL     1     -26.264  22.685 154.967  1.00  0.00     0.156 A
HETATM    8  N5  UNL     1     -26.126  22.260 153.700  1.00  0.00    -0.175 N
ATOM      9  H5  UNL     1     -26.968  22.065 153.159  1.00  0.00     0.186 HD
HETATM   10  C5  UNL     1     -24.925  22.078 153.107  1.00  0.00     0.682 A
HETATM   11  N7  UNL     1     -23.813  22.333 153.818  1.00  0.00    -0.155 N
ATOM     12  H7  UNL     1     -22.904  22.196 153.374  1.00  0.00     0.187 HD
HETATM   13  C10 UNL     1     -23.853  22.763 155.099  1.00  0.00     0.277 A
HETATM   14  O3  UNL     1     -22.829  23.007 155.778  1.00  0.00    -0.266 OA
HETATM   15  C11 UNL     1     -25.105  22.937 155.670  1.00  0.00     0.124 A
ENDROOT
BRANCH  10  16
HETATM   16  N6  UNL     1     -24.806  21.672 151.897  1.00  0.00    -0.226 N
ATOM     17  H6  UNL     1     -25.651  21.668 151.327  1.00  0.00     0.177 HD
BRANCH  16  18
HETATM   18  C6  UNL     1     -23.616  21.229 151.277  1.00  0.00     0.138 C
BRANCH  18  19
HETATM   19  C7  UNL     1     -22.822  22.331 150.685  1.00  0.00     0.022 C
BRANCH  19  20
HETATM   20  C8  UNL     1     -21.444  22.473 151.181  1.00  0.00     0.028 C
BRANCH  20  21
HETATM   21  C9  UNL     1     -21.117  23.630 152.068  1.00  0.00     0.164 C
BRANCH  21  22
HETATM   22  O2  UNL     1     -22.334  24.355 152.239  1.00  0.00    -0.401 OA
ATOM     23  H2  UNL     1     -22.482  24.403 153.176  1.00  0.00     0.209 HD
ENDBRANCH  21  22
ENDBRANCH  20  21
ENDBRANCH  19  20
ENDBRANCH  18  19
ENDBRANCH  16  18
ENDBRANCH  10  16
BRANCH   4  24
HETATM   24  N3  UNL     1     -28.759  23.462 157.386  1.00  0.00    -0.234 N
ATOM     25  H32 UNL     1     -28.878  23.574 158.393  1.00  0.00     0.174 HD
ATOM     26  H31 UNL     1     -29.601  23.485 156.811  1.00  0.00     0.174 HD
ENDBRANCH   4  24
BRANCH   1  27
HETATM   27  N1  UNL     1     -24.145  23.610 157.627  1.00  0.00    -0.249 N
ATOM     28  H1  UNL     1     -23.496  22.856 157.855  1.00  0.00     0.196 HD
BRANCH  27  29
HETATM   29  O1  UNL     1     -23.888  24.903 157.994  1.00  0.00    -0.284 OA
HETATM   30  C1  UNL     1     -22.615  25.509 157.867  1.00  0.00     0.237 C
ENDBRANCH  27  29
ENDBRANCH   1  27
TORSDOF 9
ENDMDL