MODEL 5
REMARK VINA RESULT: -7.336509534      2.478      6.173
REMARK  7 active torsions:
REMARK  status: ('A' for Active; 'I' for Inactive)
REMARK    1  A    between atoms: N1_1  and  C1_4
REMARK    2  A    between atoms: C2_7  and  C3_8
REMARK    3  A    between atoms: C3_8  and  C4_9
REMARK    4  A    between atoms: C4_9  and  N3_10
REMARK    5  A    between atoms: N3_10  and  C5_12
REMARK    6  A    between atoms: N6_19  and  C7_20
REMARK    7  A    between atoms: C7_20  and  C8_21
ROOT
HETATM    1  C4  UNL     1     -26.650  23.442 152.680  1.00  0.00     0.085 C
ENDROOT
BRANCH   1   2
HETATM    2  C3  UNL     1     -27.911  22.681 153.061  1.00  0.00     0.102 C
BRANCH   2   3
HETATM    3  C2  UNL     1     -27.720  22.186 154.448  1.00  0.00     0.034 A
HETATM    4  N2  UNL     1     -28.290  22.748 155.525  1.00  0.00    -0.195 N
HETATM    5  C1  UNL     1     -28.097  22.275 156.774  1.00  0.00     0.677 A
ATOM      6  H2  UNL     1     -28.891  23.562 155.394  1.00  0.00     0.184 HD
HETATM    7  N9  UNL     1     -27.308  21.205 156.971  1.00  0.00    -0.179 N
HETATM    8  C10 UNL     1     -26.700  20.586 155.937  1.00  0.00     0.133 A
ATOM      9  H9  UNL     1     -27.167  20.854 157.918  1.00  0.00     0.185 HD
HETATM   10  C9  UNL     1     -26.912  21.091 154.650  1.00  0.00     0.071 A
HETATM   11  N8  UNL     1     -25.863  19.457 156.111  1.00  0.00    -0.082 NA
BRANCH   5  12
HETATM   12  N1  UNL     1     -28.652  22.823 157.810  1.00  0.00    -0.234 N
ATOM     13  H12 UNL     1     -28.809  23.832 157.794  1.00  0.00     0.174 HD
ATOM     14  H11 UNL     1     -28.933  22.278 158.626  1.00  0.00     0.174 HD
ENDBRANCH   5  12
ENDBRANCH   2   3
ENDBRANCH   1   2
BRANCH   1  15
HETATM   15  N3  UNL     1     -25.630  22.669 152.162  1.00  0.00    -0.203 N
ATOM     16  H3  UNL     1     -26.010  21.840 151.705  1.00  0.00     0.183 HD
BRANCH  15  17
HETATM   17  C5  UNL     1     -24.383  22.678 152.083  1.00  0.00     0.703 A
HETATM   18  N4  UNL     1     -23.724  22.741 150.875  1.00  0.00    -0.128 N
HETATM   19  N5  UNL     1     -22.428  22.733 151.066  1.00  0.00    -0.236 N
ATOM     20  H4  UNL     1     -24.179  22.787 149.964  1.00  0.00     0.205 HD
HETATM   21  C6  UNL     1     -22.183  22.666 152.368  1.00  0.00     0.356 A
ATOM     22  H5  UNL     1     -21.721  22.772 150.332  1.00  0.00     0.192 HD
HETATM   23  O1  UNL     1     -21.044  22.640 152.907  1.00  0.00    -0.244 OA
HETATM   24  N6  UNL     1     -23.402  22.633 152.996  1.00  0.00    -0.122 N
BRANCH  24  25
HETATM   25  C7  UNL     1     -23.493  22.562 154.421  1.00  0.00     0.252 C
BRANCH  25  26
HETATM   26  C8  UNL     1     -23.913  23.850 155.047  1.00  0.00     0.250 C
HETATM   27  N7  UNL     1     -24.940  23.803 156.027  1.00  0.00    -0.061 NA
HETATM   28  O2  UNL     1     -23.421  24.955 154.764  1.00  0.00    -0.275 OA
ENDBRANCH  25  26
ENDBRANCH  24  25
ENDBRANCH  15  17
ENDBRANCH   1  15
TORSDOF 7
ENDMDL