MODEL 2
REMARK VINA RESULT: -7.500176216      0.209      1.720
REMARK  7 active torsions:
REMARK  status: ('A' for Active; 'I' for Inactive)
REMARK    1  A    between atoms: N1_1  and  C1_4
REMARK    2  A    between atoms: C4_9  and  N3_10
REMARK    3  A    between atoms: C5_12  and  O1_13
REMARK    4  A    between atoms: O1_13  and  C6_14
REMARK    5  A    between atoms: C6_14  and  C7_15
REMARK    6  A    between atoms: C7_15  and  N4_16
REMARK    7  A    between atoms: N4_16  and  C8_18
ROOT
HETATM    1  O1  UNL     1     -22.871  23.572 155.556  1.00  0.00    -0.345 OA
ENDROOT
BRANCH   1   2
HETATM    2  C5  UNL     1     -24.224  23.710 155.851  1.00  0.00     0.227 C
HETATM    3  N3  UNL     1     -24.751  22.788 156.582  1.00  0.00    -0.333 N
ATOM      4  H3  UNL     1     -24.190  22.005 156.918  1.00  0.00     0.168 HD
BRANCH   3   5
HETATM    5  C4  UNL     1     -26.126  22.885 156.908  1.00  0.00     0.123 A
HETATM    6  C3  UNL     1     -26.755  21.808 157.533  1.00  0.00     0.066 A
HETATM    7  C2  UNL     1     -28.079  21.856 157.865  1.00  0.00     0.110 A
HETATM    8  N2  UNL     1     -28.787  22.965 157.583  1.00  0.00    -0.202 N
HETATM    9  C1  UNL     1     -28.196  24.029 156.973  1.00  0.00     0.677 A
ATOM     10  H2  UNL     1     -29.776  23.009 157.828  1.00  0.00     0.183 HD
HETATM   11  N8  UNL     1     -26.887  23.952 156.657  1.00  0.00    -0.177 N
ATOM     12  H8  UNL     1     -26.453  24.755 156.200  1.00  0.00     0.185 HD
BRANCH   9  13
HETATM   13  N1  UNL     1     -28.891  25.087 156.708  1.00  0.00    -0.234 N
ATOM     14  H12 UNL     1     -29.793  25.026 156.235  1.00  0.00     0.174 HD
ATOM     15  H11 UNL     1     -28.538  26.007 156.975  1.00  0.00     0.174 HD
ENDBRANCH   9  13
ENDBRANCH   3   5
ENDBRANCH   1   2
BRANCH   1  16
HETATM   16  C6  UNL     1     -22.507  22.911 154.381  1.00  0.00     0.196 C
BRANCH  16  17
HETATM   17  C7  UNL     1     -23.422  23.434 153.268  1.00  0.00     0.164 C
BRANCH  17  18
HETATM   18  N4  UNL     1     -24.213  22.381 152.706  1.00  0.00    -0.224 N
ATOM     19  H4  UNL     1     -23.861  21.916 151.869  1.00  0.00     0.177 HD
BRANCH  18  20
HETATM   20  C8  UNL     1     -25.336  21.984 153.186  1.00  0.00     0.686 A
HETATM   21  N5  UNL     1     -26.421  22.801 153.098  1.00  0.00    -0.141 N
HETATM   22  C9  UNL     1     -27.606  22.412 153.590  1.00  0.00     0.342 A
ATOM     23  H5  UNL     1     -26.332  23.716 152.655  1.00  0.00     0.189 HD
HETATM   24  O2  UNL     1     -28.604  23.194 153.495  1.00  0.00    -0.246 OA
HETATM   25  N6  UNL     1     -27.791  21.221 154.186  1.00  0.00    -0.260 N
HETATM   26  C10 UNL     1     -26.727  20.405 154.277  1.00  0.00     0.342 A
ATOM     27  H6  UNL     1     -28.703  20.947 154.553  1.00  0.00     0.175 HD
HETATM   28  O3  UNL     1     -26.864  19.282 154.829  1.00  0.00    -0.246 OA
HETATM   29  N7  UNL     1     -25.523  20.792 153.782  1.00  0.00    -0.141 N
ATOM     30  H7  UNL     1     -24.730  20.155 153.864  1.00  0.00     0.189 HD
ENDBRANCH  18  20
ENDBRANCH  17  18
ENDBRANCH  16  17
ENDBRANCH   1  16
TORSDOF 7
ENDMDL