MODEL 2
REMARK VINA RESULT: -6.283569485      4.307      6.425
REMARK  13 active torsions:
REMARK  status: ('A' for Active; 'I' for Inactive)
REMARK    1  A    between atoms: N1_1  and  C1_5
REMARK    2  A    between atoms: C1_5  and  C2_6
REMARK    3  A    between atoms: C2_6  and  C3_7
REMARK    4  A    between atoms: C3_7  and  C4_8
REMARK    5  A    between atoms: C4_8  and  N2_9
REMARK    6  A    between atoms: N2_9  and  C5_10
REMARK    7  A    between atoms: C5_10  and  C6_11
REMARK    8  A    between atoms: C6_11  and  N3_12
REMARK       I    between atoms: N3_12  and  C7_14
REMARK    9  A    between atoms: C7_14  and  C8_16
REMARK   10  A    between atoms: C8_16  and  C9_17
REMARK   11  A    between atoms: C12_20  and  C13_21
REMARK   12  A    between atoms: C13_21  and  C14_22
REMARK   13  A    between atoms: C14_22  and  C15_23
ROOT
HETATM    1  C9  UNL     1      31.520  11.214  29.621  1.00  0.00     0.087 C
HETATM    2  C10 UNL     1      31.383  10.008  28.678  1.00  0.00     0.024 C
HETATM    3  C11 UNL     1      30.023   9.417  28.747  1.00  0.00     0.041 C
HETATM    4  C12 UNL     1      29.993   8.033  29.341  1.00  0.00     0.091 C
HETATM    5  N4  UNL     1      28.624   7.894  29.835  1.00  0.00    -0.354 N
ATOM      6  H4  UNL     1      28.208   7.025  30.168  1.00  0.00     0.162 HD
HETATM    7  C16 UNL     1      27.958   9.150  29.783  1.00  0.00     0.241 C
HETATM    8  O4  UNL     1      26.740   9.420  29.833  1.00  0.00    -0.271 OA
HETATM    9  C17 UNL     1      29.055  10.156  29.649  1.00  0.00     0.182 C
HETATM   10  N5  UNL     1      29.661  10.342  30.952  1.00  0.00    -0.347 N
ATOM     11  H5  UNL     1      29.139  10.222  31.821  1.00  0.00     0.163 HD
HETATM   12  C18 UNL     1      31.040  10.706  30.933  1.00  0.00     0.223 C
HETATM   13  O5  UNL     1      31.794  10.609  31.929  1.00  0.00    -0.273 OA
ENDROOT
BRANCH   1  14
HETATM   14  C8  UNL     1      32.925  11.717  29.651  1.00  0.00     0.117 C
BRANCH  14  15
HETATM   15  C7  UNL     1      33.385  12.287  28.382  1.00  0.00     0.218 C
HETATM   16  N3  UNL     1      32.772  13.441  27.821  1.00  0.00    -0.359 N
ATOM     17  H3  UNL     1      31.997  13.867  28.330  1.00  0.00     0.162 HD
HETATM   18  O1  UNL     1      34.354  11.718  27.789  1.00  0.00    -0.274 OA
BRANCH  16  19
HETATM   19  C6  UNL     1      33.175  14.042  26.587  1.00  0.00     0.150 C
BRANCH  19  20
HETATM   20  C5  UNL     1      32.526  13.437  25.369  1.00  0.00     0.257 C
BRANCH  20  21
HETATM   21  N2  UNL     1      33.539  12.846  24.540  1.00  0.00    -0.062 N
HETATM   22  C19 UNL     1      34.095  13.604  23.440  1.00  0.00     0.265 A
HETATM   23  C20 UNL     1      34.893  13.343  24.699  1.00  0.00     0.265 A
BRANCH  21  24
HETATM   24  C4  UNL     1      33.375  11.441  24.262  1.00  0.00     0.237 C
BRANCH  24  25
HETATM   25  C3  UNL     1      32.123  10.850  24.890  1.00  0.00     0.029 C
BRANCH  25  26
HETATM   26  C2  UNL     1      31.135  10.436  23.833  1.00  0.00     0.029 C
BRANCH  26  27
HETATM   27  C1  UNL     1      31.906  10.401  22.509  1.00  0.00     0.229 C
BRANCH  27  28
HETATM   28  N1  UNL     1      30.988  10.862  21.492  1.00  0.00    -0.079 N
ATOM     29  H13 UNL     1      30.140  11.282  21.872  1.00  0.00     0.274 HD
ATOM     30  H12 UNL     1      31.322  11.684  20.989  1.00  0.00     0.274 HD
ATOM     31  H11 UNL     1      30.806  10.062  20.885  1.00  0.00     0.274 HD
ENDBRANCH  27  28
ENDBRANCH  26  27
ENDBRANCH  25  26
ENDBRANCH  24  25
ENDBRANCH  21  24
ENDBRANCH  20  21
ENDBRANCH  19  20
ENDBRANCH  16  19
ENDBRANCH  14  15
ENDBRANCH   1  14
BRANCH   4  32
HETATM   32  C13 UNL     1      30.198   6.943  28.326  1.00  0.00     0.036 C
BRANCH  32  33
HETATM   33  C14 UNL     1      31.476   6.197  28.476  1.00  0.00     0.115 C
BRANCH  33  34
HETATM   34  C15 UNL     1      31.196   4.749  28.284  1.00  0.00     0.172 C
HETATM   35  O2  UNL     1      30.049   4.334  27.975  1.00  0.00    -0.648 OA
HETATM   36  O3  UNL     1      32.180   3.777  28.435  1.00  0.00    -0.648 OA
ENDBRANCH  33  34
ENDBRANCH  32  33
ENDBRANCH   4  32
TORSDOF 13
ENDMDL