MODEL 3
REMARK VINA RESULT: -6.641707393      1.947      2.647
REMARK  12 active torsions:
REMARK  status: ('A' for Active; 'I' for Inactive)
REMARK    1  A    between atoms: N1_2  and  C3_4
REMARK    2  A    between atoms: N1_2  and  C14_22
REMARK    3  A    between atoms: C3_4  and  C4_5
REMARK    4  A    between atoms: C5_6  and  C6_7
REMARK    5  A    between atoms: C6_7  and  C7_8
REMARK    6  A    between atoms: C9_10  and  C10_11
REMARK    7  A    between atoms: C10_11  and  O1_12
REMARK       I    between atoms: N2_15  and  C12_16
REMARK    8  A    between atoms: C14_22  and  C15_23
REMARK       I    between atoms: C15_23  and  N6_25
REMARK    9  A    between atoms: N6_25  and  C16_27
REMARK   10  A    between atoms: C16_27  and  C17_28
REMARK   11  A    between atoms: C17_28  and  C18_29
REMARK   12  A    between atoms: C18_29  and  N7_30
ROOT
HETATM    1  C7  UNL     1      31.043   7.060  27.370  1.00  0.00     0.090 C
HETATM    2  C8  UNL     1      31.849   5.821  27.173  1.00  0.00     0.034 C
HETATM    3  C9  UNL     1      31.289   4.811  28.172  1.00  0.00     0.029 C
HETATM    4  C11 UNL     1      30.639   5.713  29.202  1.00  0.00     0.132 C
HETATM    5  N2  UNL     1      30.156   6.847  28.454  1.00  0.00    -0.349 N
HETATM    6  C12 UNL     1      28.992   7.596  28.774  1.00  0.00     0.199 C
HETATM    7  N3  UNL     1      27.700   7.217  28.262  1.00  0.00    -0.063 NA
HETATM    8  N4  UNL     1      29.034   8.637  29.527  1.00  0.00    -0.267 N
ATOM      9  H4  UNL     1      29.924   8.949  29.916  1.00  0.00     0.180 HD
HETATM   10  C13 UNL     1      27.875   9.334  29.810  1.00  0.00     0.184 C
HETATM   11  N5  UNL     1      26.904   9.924  30.057  1.00  0.00    -0.172 NA
ENDROOT
BRANCH   1  12
HETATM   12  C6  UNL     1      31.914   8.292  27.504  1.00  0.00     0.052 C
BRANCH  12  13
HETATM   13  C5  UNL     1      31.520   9.371  26.601  1.00  0.00    -0.027 C
HETATM   14  C4  UNL     1      32.002  10.567  26.576  1.00  0.00    -0.003 C
BRANCH  14  15
HETATM   15  C3  UNL     1      33.038  11.085  27.443  1.00  0.00     0.264 C
BRANCH  15  16
HETATM   16  N1  UNL     1      33.615  12.347  26.969  1.00  0.00    -0.063 N
HETATM   17  C1  UNL     1      33.913  12.267  25.559  1.00  0.00     0.272 C
HETATM   18  C2  UNL     1      32.596  13.340  27.209  1.00  0.00     0.272 C
BRANCH  16  19
HETATM   19  C14 UNL     1      34.800  12.595  27.737  1.00  0.00     0.339 C
BRANCH  19  20
HETATM   20  C15 UNL     1      34.655  12.819  29.167  1.00  0.00     0.243 C
HETATM   21  O2  UNL     1      35.001  11.841  29.932  1.00  0.00    -0.272 OA
HETATM   22  N6  UNL     1      34.184  13.971  29.817  1.00  0.00    -0.360 N
ATOM     23  H6  UNL     1      33.905  14.772  29.250  1.00  0.00     0.162 HD
BRANCH  22  24
HETATM   24  C16 UNL     1      34.078  14.068  31.257  1.00  0.00     0.124 C
BRANCH  24  25
HETATM   25  C17 UNL     1      32.696  13.938  31.789  1.00  0.00     0.039 C
BRANCH  25  26
HETATM   26  C18 UNL     1      32.662  12.709  32.689  1.00  0.00     0.123 C
BRANCH  26  27
HETATM   27  N7  UNL     1      32.685  11.519  31.868  1.00  0.00    -0.367 N
HETATM   28  C19 UNL     1      31.602  10.945  31.490  1.00  0.00     0.196 C
HETATM   29  N8  UNL     1      31.680   9.782  30.687  1.00  0.00    -0.067 NA
HETATM   30  N9  UNL     1      30.334  11.453  31.860  1.00  0.00    -0.067 NA
ATOM     31  H7  UNL     1      33.583  11.127  31.583  1.00  0.00     0.161 HD
ENDBRANCH  26  27
ENDBRANCH  25  26
ENDBRANCH  24  25
ENDBRANCH  22  24
ENDBRANCH  19  20
ENDBRANCH  16  19
ENDBRANCH  15  16
ENDBRANCH  14  15
ENDBRANCH  12  13
ENDBRANCH   1  12
BRANCH   3  32
HETATM   32  C10 UNL     1      32.439   4.034  28.741  1.00  0.00     0.170 C
BRANCH  32  33
HETATM   33  O1  UNL     1      32.959   3.240  27.714  1.00  0.00    -0.400 OA
ATOM     34  H1  UNL     1      33.596   3.764  27.243  1.00  0.00     0.209 HD
ENDBRANCH  32  33
ENDBRANCH   3  32
TORSDOF 12
ENDMDL