MODEL 1
REMARK VINA RESULT: -7.192740011      0.000      0.000
REMARK  12 active torsions:
REMARK  status: ('A' for Active; 'I' for Inactive)
REMARK    1  A    between atoms: C2_2  and  C3_3
REMARK    2  A    between atoms: C3_3  and  C4_4
REMARK    3  A    between atoms: C4_4  and  C5_5
REMARK    4  A    between atoms: C5_5  and  C6_6
REMARK    5  A    between atoms: C5_5  and  N5_19
REMARK       I    between atoms: C6_6  and  N1_8
REMARK    6  A    between atoms: N1_8  and  C7_10
REMARK    7  A    between atoms: C7_10  and  C8_11
REMARK    8  A    between atoms: C8_11  and  N2_12
REMARK       I    between atoms: N2_12  and  C9_14
REMARK    9  A    between atoms: C12_22  and  C13_23
REMARK       I    between atoms: C13_23  and  N6_25
REMARK   10  A    between atoms: N7_32  and  C19_34
REMARK   11  A    between atoms: C19_34  and  C20_35
REMARK   12  A    between atoms: C20_35  and  N8_36
ROOT
HETATM    1  N5  UNL     1      29.509  10.444  28.340  1.00  0.00    -0.357 N
HETATM    2  C10 UNL     1      28.333  11.240  27.966  1.00  0.00     0.126 C
HETATM    3  C11 UNL     1      28.929  12.393  27.111  1.00  0.00     0.042 C
HETATM    4  C12 UNL     1      29.991  11.541  26.389  1.00  0.00     0.146 C
HETATM    5  C18 UNL     1      30.630  10.898  27.552  1.00  0.00     0.089 C
HETATM    6  N7  UNL     1      31.840  10.771  27.814  1.00  0.00    -0.378 N
ATOM      7  H7  UNL     1      31.987  10.285  28.699  1.00  0.00     0.160 HD
ENDROOT
BRANCH   1   8
HETATM    8  C5  UNL     1      29.462   9.441  29.331  1.00  0.00     0.177 C
BRANCH   8   9
HETATM    9  C4  UNL     1      30.464   9.513  30.443  1.00  0.00     0.039 C
BRANCH   9  10
HETATM   10  C3  UNL     1      30.318  10.715  31.311  1.00  0.00     0.029 C
BRANCH  10  11
HETATM   11  C2  UNL     1      31.621  11.402  31.439  1.00  0.00    -0.037 C
HETATM   12  C1  UNL     1      32.692  10.789  31.910  1.00  0.00     0.007 C
ENDBRANCH  10  11
ENDBRANCH   9  10
ENDBRANCH   8   9
BRANCH   8  13
HETATM   13  C6  UNL     1      29.418   8.040  28.819  1.00  0.00     0.240 C
HETATM   14  O1  UNL     1      29.729   7.754  27.636  1.00  0.00    -0.271 OA
HETATM   15  N1  UNL     1      29.018   6.956  29.650  1.00  0.00    -0.358 N
ATOM     16  H1  UNL     1      28.757   7.154  30.616  1.00  0.00     0.162 HD
BRANCH  15  17
HETATM   17  C7  UNL     1      28.964   5.591  29.191  1.00  0.00     0.142 C
BRANCH  17  18
HETATM   18  C8  UNL     1      30.172   4.805  29.594  1.00  0.00     0.142 C
BRANCH  18  19
HETATM   19  N2  UNL     1      30.815   4.282  28.423  1.00  0.00    -0.363 N
HETATM   20  C9  UNL     1      32.200   4.478  28.149  1.00  0.00     0.181 C
HETATM   21  N3  UNL     1      32.922   3.487  27.802  1.00  0.00    -0.374 N
HETATM   22  N4  UNL     1      32.710   5.785  28.278  1.00  0.00    -0.064 NA
ATOM     23  H32 UNL     1      32.553   2.541  27.709  1.00  0.00     0.158 HD
ATOM     24  H31 UNL     1      33.913   3.627  27.606  1.00  0.00     0.158 HD
ATOM     25  H2  UNL     1      30.257   3.747  27.757  1.00  0.00     0.162 HD
ENDBRANCH  18  19
ENDBRANCH  17  18
ENDBRANCH  15  17
ENDBRANCH   8  13
ENDBRANCH   1   8
BRANCH   4  26
HETATM   26  C13 UNL     1      30.774  12.223  25.416  1.00  0.00     0.231 C
HETATM   27  O2  UNL     1      31.125  13.432  25.696  1.00  0.00    -0.273 OA
HETATM   28  N6  UNL     1      31.198  11.714  24.188  1.00  0.00    -0.347 N
HETATM   29  C14 UNL     1      30.971  10.413  23.628  1.00  0.00     0.152 C
HETATM   30  C17 UNL     1      31.999  12.611  23.311  1.00  0.00     0.152 C
HETATM   31  C15 UNL     1      31.426  10.484  22.158  1.00  0.00     0.187 C
HETATM   32  O3  UNL     1      30.859  11.548  21.499  1.00  0.00    -0.388 OA
HETATM   33  C16 UNL     1      31.220  12.778  22.049  1.00  0.00     0.187 C
ENDBRANCH   4  26
BRANCH   6  34
HETATM   34  C19 UNL     1      33.049  11.123  27.208  1.00  0.00     0.148 C
BRANCH  34  35
HETATM   35  C20 UNL     1      33.692  12.292  27.989  1.00  0.00     0.249 C
BRANCH  35  36
HETATM   36  N8  UNL     1      34.599  11.734  28.940  1.00  0.00    -0.078 N
ATOM     37  H83 UNL     1      34.201  11.670  29.877  1.00  0.00     0.274 HD
ATOM     38  H82 UNL     1      34.763  10.739  28.795  1.00  0.00     0.274 HD
ATOM     39  H81 UNL     1      35.458  12.285  28.912  1.00  0.00     0.274 HD
ENDBRANCH  35  36
ENDBRANCH  34  35
ENDBRANCH   6  34
TORSDOF 12
ENDMDL