MODEL 3
REMARK VINA RESULT: -5.678854155      2.020      4.423
REMARK  13 active torsions:
REMARK  status: ('A' for Active; 'I' for Inactive)
REMARK    1  A    between atoms: C2_2  and  C3_3
REMARK    2  A    between atoms: C3_3  and  N1_4
REMARK    3  A    between atoms: N1_4  and  C4_7
REMARK    4  A    between atoms: C4_7  and  C5_8
REMARK    5  A    between atoms: C5_8  and  O1_9
REMARK    6  A    between atoms: C5_8  and  N2_11
REMARK    7  A    between atoms: C6_12  and  C7_13
REMARK    8  A    between atoms: C7_13  and  C8_14
REMARK       I    between atoms: C8_14  and  N3_16
REMARK    9  A    between atoms: N3_16  and  C9_18
REMARK   10  A    between atoms: C9_18  and  C10_19
REMARK   11  A    between atoms: C9_18  and  C13_24
REMARK   12  A    between atoms: C10_19  and  C11_20
REMARK   13  A    between atoms: C11_20  and  C12_21
REMARK       I    between atoms: N6_29  and  C16_30
ROOT
HETATM    1  N2  UNL     1      32.305  11.687  26.558  1.00  0.00    -0.263 N
HETATM    2  C6  UNL     1      31.436  10.568  26.438  1.00  0.00     0.121 C
HETATM    3  C14 UNL     1      31.269  10.352  24.916  1.00  0.00     0.049 C
HETATM    4  C15 UNL     1      32.539  10.972  24.348  1.00  0.00     0.154 C
HETATM    5  N6  UNL     1      32.904  11.972  25.297  1.00  0.00    -0.261 N
HETATM    6  C16 UNL     1      33.735  13.079  24.950  1.00  0.00     0.203 C
HETATM    7  N7  UNL     1      34.988  12.894  24.872  1.00  0.00    -0.372 N
ATOM      8  H71 UNL     1      35.582  13.685  24.623  1.00  0.00     0.158 HD
ATOM      9  H72 UNL     1      35.466  12.009  25.039  1.00  0.00     0.158 HD
HETATM   10  N8  UNL     1      33.071  14.310  24.717  1.00  0.00    -0.062 NA
ENDROOT
BRANCH   2  11
HETATM   11  C7  UNL     1      31.967   9.245  26.937  1.00  0.00     0.130 C
BRANCH  11  12
HETATM   12  C8  UNL     1      31.140   8.784  28.063  1.00  0.00     0.220 C
HETATM   13  O2  UNL     1      31.603   8.661  29.206  1.00  0.00    -0.274 OA
HETATM   14  N3  UNL     1      29.753   8.441  27.901  1.00  0.00    -0.348 N
ATOM     15  H3  UNL     1      29.320   8.505  26.980  1.00  0.00     0.163 HD
BRANCH  14  16
HETATM   16  C9  UNL     1      28.955   7.999  29.055  1.00  0.00     0.174 C
BRANCH  16  17
HETATM   17  C10 UNL     1      28.762   6.502  28.914  1.00  0.00     0.043 C
BRANCH  17  18
HETATM   18  C11 UNL     1      29.751   5.650  29.624  1.00  0.00     0.102 C
BRANCH  18  19
HETATM   19  C12 UNL     1      30.604   4.963  28.587  1.00  0.00     0.231 C
HETATM   20  N4  UNL     1      31.967   5.308  28.451  1.00  0.00    -0.062 NA
HETATM   21  O3  UNL     1      30.083   4.101  27.865  1.00  0.00    -0.277 OA
ENDBRANCH  18  19
ENDBRANCH  17  18
ENDBRANCH  16  17
BRANCH  16  22
HETATM   22  C13 UNL     1      27.750   8.788  29.147  1.00  0.00     0.254 C
HETATM   23  N5  UNL     1      26.884   8.981  28.037  1.00  0.00    -0.060 NA
HETATM   24  O4  UNL     1      27.459   9.326  30.278  1.00  0.00    -0.275 OA
ENDBRANCH  16  22
ENDBRANCH  14  16
ENDBRANCH  11  12
ENDBRANCH   2  11
BRANCH   1  25
HETATM   25  C5  UNL     1      32.555  12.487  27.672  1.00  0.00     0.170 C
BRANCH  25  26
HETATM   26  C4  UNL     1      33.419  12.260  28.842  1.00  0.00     0.191 A
HETATM   27  C17 UNL     1      34.265  13.310  29.425  1.00  0.00     0.050 A
HETATM   28  C18 UNL     1      34.882  12.285  28.525  1.00  0.00     0.050 A
BRANCH  26  29
HETATM   29  N1  UNL     1      32.952  11.255  29.790  1.00  0.00    -0.056 N
ATOM     30  H12 UNL     1      33.703  10.627  30.078  1.00  0.00     0.279 HD
ATOM     31  H11 UNL     1      32.342  10.568  29.347  1.00  0.00     0.279 HD
BRANCH  29  32
HETATM   32  C3  UNL     1      32.310  11.894  30.933  1.00  0.00     0.260 C
BRANCH  32  33
HETATM   33  C2  UNL     1      32.828  11.239  32.166  1.00  0.00    -0.010 C
HETATM   34  C1  UNL     1      34.033  10.710  32.247  1.00  0.00     0.008 C
ENDBRANCH  32  33
ENDBRANCH  29  32
ENDBRANCH  26  29
ENDBRANCH  25  26
BRANCH  25  35
HETATM   35  O1  UNL     1      31.942  13.644  27.751  1.00  0.00    -0.346 OA
ATOM     36  H1  UNL     1      31.498  13.743  28.586  1.00  0.00     0.219 HD
ENDBRANCH  25  35
ENDBRANCH   1  25
TORSDOF 13
ENDMDL