MODEL 2
REMARK VINA RESULT: -7.426406765      2.385      6.127
REMARK  13 active torsions:
REMARK  status: ('A' for Active; 'I' for Inactive)
REMARK       I    between atoms: C1_4  and  N3_6
REMARK    1  A    between atoms: N3_6  and  C2_8
REMARK    2  A    between atoms: C2_8  and  C3_9
REMARK    3  A    between atoms: C3_9  and  C4_10
REMARK    4  A    between atoms: C4_10  and  C5_11
REMARK    5  A    between atoms: C5_11  and  N4_12
REMARK    6  A    between atoms: C8_15  and  O1_16
REMARK    7  A    between atoms: O1_16  and  C9_17
REMARK    8  A    between atoms: C9_17  and  C10_19
REMARK    9  A    between atoms: C10_19  and  C11_20
REMARK   10  A    between atoms: C11_20  and  C12_21
REMARK   11  A    between atoms: C15_26  and  C16_27
REMARK       I    between atoms: C16_27  and  N6_29
REMARK   12  A    between atoms: N6_29  and  C17_31
REMARK   13  A    between atoms: C17_31  and  C18_32
ROOT
HETATM    1  N4  UNL     1      30.002  10.127  29.775  1.00  0.00    -0.047 N
HETATM    2  C6  UNL     1      30.648  10.758  28.693  1.00  0.00     0.241 C
HETATM    3  C7  UNL     1      29.608  11.224  27.704  1.00  0.00     0.062 C
HETATM    4  C8  UNL     1      28.278  11.000  28.372  1.00  0.00     0.164 C
HETATM    5  C13 UNL     1      28.606  10.517  29.761  1.00  0.00     0.223 A
HETATM    6  C14 UNL     1      28.229   9.075  29.950  1.00  0.00     0.079 A
HETATM    7  C15 UNL     1      29.731   8.760  29.851  1.00  0.00     0.284 A
ENDROOT
BRANCH   1   8
HETATM    8  C5  UNL     1      30.543  10.581  31.096  1.00  0.00     0.239 C
BRANCH   8   9
HETATM    9  C4  UNL     1      32.013  10.479  31.126  1.00  0.00     0.030 C
BRANCH   9  10
HETATM   10  C3  UNL     1      32.709  11.077  32.283  1.00  0.00     0.021 C
BRANCH  10  11
HETATM   11  C2  UNL     1      33.112  12.494  32.240  1.00  0.00     0.122 C
BRANCH  11  12
HETATM   12  N3  UNL     1      33.079  13.217  33.488  1.00  0.00    -0.365 N
HETATM   13  C1  UNL     1      32.132  14.261  33.727  1.00  0.00     0.181 C
HETATM   14  N1  UNL     1      32.363  15.238  34.531  1.00  0.00    -0.374 N
HETATM   15  N2  UNL     1      30.896  14.194  33.037  1.00  0.00    -0.064 NA
ATOM     16  H12 UNL     1      31.687  15.983  34.702  1.00  0.00     0.158 HD
ATOM     17  H11 UNL     1      33.252  15.287  35.029  1.00  0.00     0.158 HD
ATOM     18  H3  UNL     1      33.749  12.977  34.219  1.00  0.00     0.162 HD
ENDBRANCH  11  12
ENDBRANCH  10  11
ENDBRANCH   9  10
ENDBRANCH   8   9
ENDBRANCH   1   8
BRANCH   7  19
HETATM   19  C16 UNL     1      30.002   7.832  28.763  1.00  0.00     0.249 C
HETATM   20  O4  UNL     1      29.213   7.669  27.813  1.00  0.00    -0.271 OA
HETATM   21  N6  UNL     1      31.200   7.065  28.754  1.00  0.00    -0.351 N
ATOM     22  H6  UNL     1      31.853   7.192  29.527  1.00  0.00     0.163 HD
BRANCH  21  23
HETATM   23  C17 UNL     1      31.547   6.124  27.729  1.00  0.00     0.222 C
BRANCH  23  24
HETATM   24  C18 UNL     1      31.204   4.738  28.094  1.00  0.00     0.248 C
HETATM   25  N7  UNL     1      32.219   3.867  28.578  1.00  0.00    -0.061 NA
HETATM   26  O5  UNL     1      30.046   4.284  27.998  1.00  0.00    -0.275 OA
ENDBRANCH  23  24
ENDBRANCH  21  23
ENDBRANCH   7  19
BRANCH   4  27
HETATM   27  O1  UNL     1      27.482  12.165  28.393  1.00  0.00    -0.314 OA
BRANCH  27  28
HETATM   28  C9  UNL     1      26.165  12.185  27.949  1.00  0.00     0.259 C
HETATM   29  O2  UNL     1      25.902  12.808  26.917  1.00  0.00    -0.265 OA
BRANCH  28  30
HETATM   30  C10 UNL     1      25.178  11.448  28.761  1.00  0.00     0.120 C
BRANCH  30  31
HETATM   31  C11 UNL     1      23.949  11.086  27.973  1.00  0.00     0.109 C
BRANCH  31  32
HETATM   32  C12 UNL     1      24.065   9.782  27.303  1.00  0.00     0.231 C
HETATM   33  N5  UNL     1      24.964   8.789  27.835  1.00  0.00    -0.062 NA
HETATM   34  O3  UNL     1      23.399   9.523  26.287  1.00  0.00    -0.277 OA
ENDBRANCH  31  32
ENDBRANCH  30  31
ENDBRANCH  28  30
ENDBRANCH  27  28
ENDBRANCH   4  27
TORSDOF 13
ENDMDL