MODEL 4
REMARK VINA RESULT: -6.867419516      3.548      6.979
REMARK  11 active torsions:
REMARK  status: ('A' for Active; 'I' for Inactive)
REMARK    1  A    between atoms: C2_2  and  C3_3
REMARK    2  A    between atoms: C3_3  and  C4_5
REMARK    3  A    between atoms: C4_5  and  N1_6
REMARK    4  A    between atoms: C6_11  and  C7_12
REMARK    5  A    between atoms: C7_12  and  C8_13
REMARK    6  A    between atoms: C8_13  and  C9_14
REMARK    7  A    between atoms: C9_14  and  N3_15
REMARK    8  A    between atoms: C12_24  and  C13_25
REMARK    9  A    between atoms: C13_25  and  C14_26
REMARK   10  A    between atoms: C14_26  and  C15_27
REMARK   11  A    between atoms: C15_27  and  N7_28
ROOT
HETATM    1  N1  UNL     1      31.190  11.105  30.185  1.00  0.00    -0.261 N
HETATM    2  C5  UNL     1      30.240  10.055  30.264  1.00  0.00     0.326 C
HETATM    3  O2  UNL     1      29.864   9.842  31.427  1.00  0.00    -0.247 OA
HETATM    4  N2  UNL     1      29.598   9.170  29.339  1.00  0.00    -0.329 N
ATOM      5  H2  UNL     1      28.694   8.828  29.666  1.00  0.00     0.165 HD
HETATM    6  C6  UNL     1      29.961   8.670  28.055  1.00  0.00     0.178 C
HETATM    7  C11 UNL     1      31.406   8.845  27.735  1.00  0.00     0.241 C
HETATM    8  O3  UNL     1      32.075   7.772  27.702  1.00  0.00    -0.271 OA
HETATM    9  N6  UNL     1      32.270   9.942  27.445  1.00  0.00    -0.346 N
ATOM     10  H6  UNL     1      33.079   9.647  26.898  1.00  0.00     0.163 HD
HETATM   11  C12 UNL     1      32.304  11.340  27.716  1.00  0.00     0.177 C
HETATM   12  C17 UNL     1      31.913  11.665  29.121  1.00  0.00     0.251 C
HETATM   13  O4  UNL     1      32.379  12.788  29.440  1.00  0.00    -0.271 OA
ENDROOT
BRANCH   6  14
HETATM   14  C7  UNL     1      29.669   7.194  27.946  1.00  0.00     0.036 C
BRANCH  14  15
HETATM   15  C8  UNL     1      29.147   6.580  29.219  1.00  0.00     0.022 C
BRANCH  15  16
HETATM   16  C9  UNL     1      29.977   5.325  29.534  1.00  0.00     0.122 C
BRANCH  16  17
HETATM   17  N3  UNL     1      31.182   5.295  28.765  1.00  0.00    -0.367 N
HETATM   18  C10 UNL     1      31.977   4.295  28.749  1.00  0.00     0.196 C
HETATM   19  N4  UNL     1      33.161   4.318  27.966  1.00  0.00    -0.067 NA
HETATM   20  N5  UNL     1      31.632   3.156  29.544  1.00  0.00    -0.067 NA
ATOM     21  H3  UNL     1      31.418   6.111  28.201  1.00  0.00     0.161 HD
ENDBRANCH  16  17
ENDBRANCH  15  16
ENDBRANCH  14  15
ENDBRANCH   6  14
BRANCH   1  22
HETATM   22  C4  UNL     1      31.462  11.711  31.442  1.00  0.00     0.215 C
BRANCH  22  23
HETATM   23  C3  UNL     1      32.759  11.398  32.026  1.00  0.00     0.144 C
HETATM   24  O1  UNL     1      33.176  10.265  32.056  1.00  0.00    -0.296 OA
BRANCH  23  25
HETATM   25  C2  UNL     1      33.577  12.493  32.591  1.00  0.00     0.075 C
HETATM   26  C1  UNL     1      32.732  13.652  33.069  1.00  0.00     0.013 C
ENDBRANCH  23  25
ENDBRANCH  22  23
ENDBRANCH   1  22
BRANCH  11  27
HETATM   27  C13 UNL     1      33.675  11.932  27.508  1.00  0.00     0.036 C
BRANCH  27  28
HETATM   28  C14 UNL     1      33.746  13.033  26.508  1.00  0.00     0.022 C
BRANCH  28  29
HETATM   29  C15 UNL     1      32.733  12.674  25.409  1.00  0.00     0.122 C
BRANCH  29  30
HETATM   30  N7  UNL     1      33.402  11.926  24.361  1.00  0.00    -0.367 N
HETATM   31  C16 UNL     1      32.919  10.859  23.856  1.00  0.00     0.196 C
HETATM   32  N8  UNL     1      31.681  10.359  24.318  1.00  0.00    -0.067 NA
HETATM   33  N9  UNL     1      33.624  10.180  22.839  1.00  0.00    -0.067 NA
ATOM     34  H7  UNL     1      34.297  12.268  24.013  1.00  0.00     0.161 HD
ENDBRANCH  29  30
ENDBRANCH  28  29
ENDBRANCH  27  28
ENDBRANCH  11  27
TORSDOF 11
ENDMDL