MODEL 4
REMARK VINA RESULT: -6.662790754      2.446      3.479
REMARK  12 active torsions:
REMARK  status: ('A' for Active; 'I' for Inactive)
REMARK    1  A    between atoms: S1_2  and  C3_4
REMARK    2  A    between atoms: C3_4  and  C4_5
REMARK    3  A    between atoms: C4_5  and  N1_6
REMARK       I    between atoms: N1_6  and  C5_8
REMARK    4  A    between atoms: C5_8  and  C6_10
REMARK    5  A    between atoms: N4_21  and  C11_22
REMARK    6  A    between atoms: C11_22  and  C12_23
REMARK    7  A    between atoms: C12_23  and  C13_24
REMARK    8  A    between atoms: C13_24  and  C14_25
REMARK    9  A    between atoms: C14_25  and  N5_26
REMARK   10  A    between atoms: N5_26  and  C15_29
REMARK   11  A    between atoms: C15_29  and  C16_30
REMARK   12  A    between atoms: C16_30  and  C17_31
ROOT
HETATM    1  C4  UNL     1      30.404   9.364  29.508  1.00  0.00     0.123 C
HETATM    2  C9  UNL     1      31.241   9.990  30.659  1.00  0.00     0.061 C
HETATM    3  C10 UNL     1      30.265  10.793  31.483  1.00  0.00     0.129 C
HETATM    4  N4  UNL     1      28.945  10.404  31.050  1.00  0.00    -0.350 N
HETATM    5  C18 UNL     1      29.092   9.272  30.190  1.00  0.00     0.249 C
HETATM    6  O3  UNL     1      28.220   8.387  30.080  1.00  0.00    -0.270 OA
ENDROOT
BRANCH   1   7
HETATM    7  C3  UNL     1      30.420  10.312  28.340  1.00  0.00     0.103 C
BRANCH   7   8
HETATM    8  S1  UNL     1      32.006  10.890  27.980  1.00  0.00    -0.225 SA
HETATM    9  C1  UNL     1      32.421  12.515  28.380  1.00  0.00     0.078 C
HETATM   10  C2  UNL     1      32.750  10.255  26.537  1.00  0.00     0.078 C
ENDBRANCH   7   8
ENDBRANCH   1   7
BRANCH   1  11
HETATM   11  N1  UNL     1      30.955   8.074  29.224  1.00  0.00    -0.340 N
HETATM   12  C5  UNL     1      30.778   7.325  28.036  1.00  0.00     0.259 C
HETATM   13  O1  UNL     1      30.072   7.827  27.133  1.00  0.00    -0.271 OA
ATOM     14  H1  UNL     1      31.534   7.652  29.950  1.00  0.00     0.163 HD
BRANCH  12  15
HETATM   15  C6  UNL     1      31.370   5.998  27.806  1.00  0.00     0.369 C
HETATM   16  N2  UNL     1      32.805   6.027  27.713  1.00  0.00    -0.038 N
HETATM   17  C7  UNL     1      33.162   4.630  27.887  1.00  0.00     0.358 C
ATOM     18  H22 UNL     1      33.170   6.460  26.864  1.00  0.00     0.280 HD
ATOM     19  H21 UNL     1      33.262   6.670  28.358  1.00  0.00     0.280 HD
HETATM   20  N3  UNL     1      32.275   4.228  28.984  1.00  0.00    -0.336 N
HETATM   21  C8  UNL     1      31.135   5.061  28.923  1.00  0.00     0.259 C
ATOM     22  H3  UNL     1      32.449   3.488  29.664  1.00  0.00     0.164 HD
HETATM   23  O2  UNL     1      30.125   5.034  29.646  1.00  0.00    -0.271 OA
ENDBRANCH  12  15
ENDBRANCH   1  11
BRANCH   4  24
HETATM   24  C11 UNL     1      27.726  11.091  31.454  1.00  0.00     0.126 C
BRANCH  24  25
HETATM   25  C12 UNL     1      27.231  11.870  30.274  1.00  0.00     0.022 C
BRANCH  25  26
HETATM   26  C13 UNL     1      26.021  11.327  29.616  1.00  0.00     0.029 C
BRANCH  26  27
HETATM   27  C14 UNL     1      24.734  12.048  29.776  1.00  0.00     0.232 C
BRANCH  27  28
HETATM   28  N5  UNL     1      24.854  13.273  30.494  1.00  0.00    -0.075 N
ATOM     29  H52 UNL     1      25.836  13.512  30.626  1.00  0.00     0.277 HD
ATOM     30  H51 UNL     1      24.560  14.056  29.911  1.00  0.00     0.277 HD
BRANCH  28  31
HETATM   31  C15 UNL     1      24.162  13.296  31.746  1.00  0.00     0.239 C
BRANCH  31  32
HETATM   32  C16 UNL     1      25.105  13.466  32.922  1.00  0.00     0.100 C
BRANCH  32  33
HETATM   33  C17 UNL     1      24.372  14.052  34.055  1.00  0.00     0.088 C
HETATM   34  N6  UNL     1      23.230  14.655  33.939  1.00  0.00    -0.391 N
ATOM     35  H62 UNL     1      22.832  14.718  33.002  1.00  0.00     0.157 HD
ATOM     36  H61 UNL     1      22.722  15.062  34.724  1.00  0.00     0.157 HD
HETATM   37  N7  UNL     1      24.927  13.965  35.360  1.00  0.00    -0.088 NA
ENDBRANCH  32  33
ENDBRANCH  31  32
ENDBRANCH  28  31
ENDBRANCH  27  28
ENDBRANCH  26  27
ENDBRANCH  25  26
ENDBRANCH  24  25
ENDBRANCH   4  24
TORSDOF 12
ENDMDL