MODEL 2
REMARK VINA RESULT: -6.096432860      3.236      6.903
REMARK  12 active torsions:
REMARK  status: ('A' for Active; 'I' for Inactive)
REMARK    1  A    between atoms: C1_2  and  C2_4
REMARK    2  A    between atoms: C2_4  and  C3_5
REMARK       I    between atoms: C3_5  and  N2_7
REMARK    3  A    between atoms: N2_7  and  C4_9
REMARK    4  A    between atoms: C4_9  and  C5_10
REMARK    5  A    between atoms: C4_9  and  C9_18
REMARK    6  A    between atoms: C5_10  and  C6_11
REMARK    7  A    between atoms: C6_11  and  C7_12
REMARK    8  A    between atoms: C7_12  and  N3_13
REMARK       I    between atoms: C9_18  and  N6_20
REMARK    9  A    between atoms: C12_23  and  C13_24
REMARK   10  A    between atoms: C13_24  and  C14_25
REMARK   11  A    between atoms: C14_25  and  C15_26
REMARK   12  A    between atoms: C15_26  and  N7_27
ROOT
HETATM    1  C4  UNL     1      28.610   9.094  28.361  1.00  0.00     0.176 C
ENDROOT
BRANCH   1   2
HETATM    2  N2  UNL     1      29.384   7.995  29.008  1.00  0.00    -0.347 N
HETATM    3  C3  UNL     1      28.976   6.645  28.924  1.00  0.00     0.226 C
HETATM    4  O2  UNL     1      27.943   6.374  28.307  1.00  0.00    -0.273 OA
ATOM      5  H2  UNL     1      30.232   8.225  29.525  1.00  0.00     0.163 HD
BRANCH   3   6
HETATM    6  C2  UNL     1      29.761   5.552  29.563  1.00  0.00     0.202 C
BRANCH   6   7
HETATM    7  C1  UNL     1      30.976   5.222  28.772  1.00  0.00     0.239 C
HETATM    8  N1  UNL     1      31.944   6.238  28.546  1.00  0.00    -0.062 NA
HETATM    9  O1  UNL     1      31.188   4.083  28.294  1.00  0.00    -0.276 OA
ENDBRANCH   6   7
ENDBRANCH   3   6
ENDBRANCH   1   2
BRANCH   1  10
HETATM   10  C5  UNL     1      29.616   9.861  27.595  1.00  0.00     0.036 C
BRANCH  10  11
HETATM   11  C6  UNL     1      31.010   9.915  28.075  1.00  0.00     0.022 C
BRANCH  11  12
HETATM   12  C7  UNL     1      31.380  11.084  28.925  1.00  0.00     0.122 C
BRANCH  12  13
HETATM   13  N3  UNL     1      32.277  10.696  29.971  1.00  0.00    -0.367 N
HETATM   14  C8  UNL     1      32.115  10.812  31.221  1.00  0.00     0.196 C
HETATM   15  N4  UNL     1      33.136  10.363  32.091  1.00  0.00    -0.067 NA
HETATM   16  N5  UNL     1      30.921  11.347  31.753  1.00  0.00    -0.067 NA
ATOM     17  H3  UNL     1      33.157  10.273  29.671  1.00  0.00     0.161 HD
ENDBRANCH  12  13
ENDBRANCH  11  12
ENDBRANCH  10  11
ENDBRANCH   1  10
BRANCH   1  18
HETATM   18  C9  UNL     1      28.199   9.924  29.565  1.00  0.00     0.242 C
HETATM   19  O3  UNL     1      28.379   9.423  30.686  1.00  0.00    -0.271 OA
HETATM   20  N6  UNL     1      27.632  11.199  29.484  1.00  0.00    -0.350 N
HETATM   21  C10 UNL     1      27.230  11.916  30.685  1.00  0.00     0.126 C
HETATM   22  C18 UNL     1      27.356  11.931  28.253  1.00  0.00     0.126 C
HETATM   23  C11 UNL     1      25.724  12.196  30.638  1.00  0.00     0.024 C
HETATM   24  C12 UNL     1      25.223  12.667  29.337  1.00  0.00    -0.012 C
HETATM   25  C17 UNL     1      25.872  11.970  28.119  1.00  0.00     0.024 C
BRANCH  24  26
HETATM   26  C13 UNL     1      23.752  12.483  29.112  1.00  0.00     0.006 C
BRANCH  26  27
HETATM   27  C14 UNL     1      22.945  11.693  30.036  1.00  0.00     0.020 C
BRANCH  27  28
HETATM   28  C15 UNL     1      22.612  10.281  29.738  1.00  0.00     0.122 C
BRANCH  28  29
HETATM   29  N7  UNL     1      22.390  10.042  28.323  1.00  0.00    -0.367 N
HETATM   30  C16 UNL     1      23.134   9.368  27.547  1.00  0.00     0.196 C
HETATM   31  N8  UNL     1      22.776   9.232  26.190  1.00  0.00    -0.067 NA
HETATM   32  N9  UNL     1      24.307   8.762  28.023  1.00  0.00    -0.067 NA
ATOM     33  H7  UNL     1      21.553  10.456  27.913  1.00  0.00     0.161 HD
ENDBRANCH  28  29
ENDBRANCH  27  28
ENDBRANCH  26  27
ENDBRANCH  24  26
ENDBRANCH   1  18
TORSDOF 12
ENDMDL