MODEL 1
REMARK VINA RESULT: -6.591494009      0.000      0.000
REMARK  12 active torsions:
REMARK  status: ('A' for Active; 'I' for Inactive)
REMARK    1  A    between atoms: C2_2  and  C3_3
REMARK    2  A    between atoms: C3_3  and  C4_4
REMARK    3  A    between atoms: C4_4  and  C5_5
REMARK    4  A    between atoms: C5_5  and  N1_6
REMARK    5  A    between atoms: C8_13  and  C9_14
REMARK    6  A    between atoms: C9_14  and  C10_15
REMARK    7  A    between atoms: C10_15  and  C11_16
REMARK    8  A    between atoms: C11_16  and  N3_17
REMARK    9  A    between atoms: C14_26  and  C15_27
REMARK   10  A    between atoms: C15_27  and  C16_28
REMARK   11  A    between atoms: C16_28  and  C17_29
REMARK   12  A    between atoms: C17_29  and  N7_30
ROOT
HETATM    1  N1  UNL     1      28.669  11.946  30.183  1.00  0.00    -0.320 N
HETATM    2  C6  UNL     1      29.689  11.168  30.790  1.00  0.00     0.325 C
HETATM    3  O1  UNL     1      29.996  11.587  31.958  1.00  0.00    -0.247 OA
HETATM    4  N2  UNL     1      30.490  10.026  30.470  1.00  0.00    -0.277 N
ATOM      5  H2  UNL     1      31.202   9.818  31.171  1.00  0.00     0.173 HD
HETATM    6  C7  UNL     1      30.494   9.108  29.355  1.00  0.00     0.248 C
HETATM    7  O2  UNL     1      31.544   8.416  29.364  1.00  0.00    -0.271 OA
HETATM    8  C8  UNL     1      29.553   8.830  28.252  1.00  0.00     0.177 C
HETATM    9  N6  UNL     1      28.183   9.106  28.533  1.00  0.00    -0.346 N
ATOM     10  H6  UNL     1      27.588   8.371  28.151  1.00  0.00     0.163 HD
HETATM   11  C13 UNL     1      27.386  10.101  29.190  1.00  0.00     0.241 C
HETATM   12  O3  UNL     1      26.329   9.523  29.624  1.00  0.00    -0.271 OA
HETATM   13  C14 UNL     1      27.479  11.535  29.470  1.00  0.00     0.181 C
ENDROOT
BRANCH   8  14
HETATM   14  C9  UNL     1      29.684   7.342  27.925  1.00  0.00     0.036 C
BRANCH  14  15
HETATM   15  C10 UNL     1      28.943   6.490  28.924  1.00  0.00     0.022 C
BRANCH  15  16
HETATM   16  C11 UNL     1      29.850   5.390  29.423  1.00  0.00     0.122 C
BRANCH  16  17
HETATM   17  N3  UNL     1      31.113   5.362  28.733  1.00  0.00    -0.367 N
HETATM   18  C12 UNL     1      31.859   4.314  28.831  1.00  0.00     0.196 C
HETATM   19  N4  UNL     1      33.107   4.304  28.141  1.00  0.00    -0.067 NA
HETATM   20  N5  UNL     1      31.509   3.170  29.585  1.00  0.00    -0.067 NA
ATOM     21  H3  UNL     1      31.416   6.161  28.175  1.00  0.00     0.161 HD
ENDBRANCH  16  17
ENDBRANCH  15  16
ENDBRANCH  14  15
ENDBRANCH   8  14
BRANCH  13  22
HETATM   22  C15 UNL     1      27.202  12.297  28.222  1.00  0.00     0.037 C
BRANCH  22  23
HETATM   23  C16 UNL     1      25.792  12.894  28.418  1.00  0.00     0.022 C
BRANCH  23  24
HETATM   24  C17 UNL     1      24.896  12.511  27.287  1.00  0.00     0.122 C
BRANCH  24  25
HETATM   25  N7  UNL     1      24.444  11.147  27.383  1.00  0.00    -0.367 N
HETATM   26  C18 UNL     1      23.618  10.676  26.515  1.00  0.00     0.196 C
HETATM   27  N8  UNL     1      23.141  11.497  25.449  1.00  0.00    -0.067 NA
HETATM   28  N9  UNL     1      23.169   9.339  26.600  1.00  0.00    -0.067 NA
ATOM     29  H7  UNL     1      24.779  10.552  28.141  1.00  0.00     0.161 HD
ENDBRANCH  24  25
ENDBRANCH  23  24
ENDBRANCH  22  23
ENDBRANCH  13  22
BRANCH   1  30
HETATM   30  C5  UNL     1      28.881  13.342  30.321  1.00  0.00     0.128 C
BRANCH  30  31
HETATM   31  C4  UNL     1      27.874  14.141  31.048  1.00  0.00     0.020 C
BRANCH  31  32
HETATM   32  C3  UNL     1      27.418  13.715  32.383  1.00  0.00     0.001 C
BRANCH  32  33
HETATM   33  C2  UNL     1      26.010  13.194  32.479  1.00  0.00    -0.004 C
HETATM   34  C1  UNL     1      25.430  13.509  33.847  1.00  0.00     0.005 C
ENDBRANCH  32  33
ENDBRANCH  31  32
ENDBRANCH  30  31
ENDBRANCH   1  30
TORSDOF 12
ENDMDL