MODEL 2
REMARK VINA RESULT: -6.705386536      1.237      1.555
REMARK  14 active torsions:
REMARK  status: ('A' for Active; 'I' for Inactive)
REMARK    1  A    between atoms: C2_2  and  C3_3
REMARK    2  A    between atoms: C5_9  and  N3_10
REMARK    3  A    between atoms: C8_18  and  C9_19
REMARK    4  A    between atoms: C9_19  and  O2_20
REMARK    5  A    between atoms: O2_20  and  C10_21
REMARK    6  A    between atoms: C10_21  and  C11_22
REMARK    7  A    between atoms: C11_22  and  C12_23
REMARK    8  A    between atoms: C12_23  and  C13_24
REMARK    9  A    between atoms: C13_24  and  C14_25
REMARK   10  A    between atoms: C14_25  and  N5_26
REMARK   11  A    between atoms: C15_30  and  C16_31
REMARK       I    between atoms: C16_31  and  N6_33
REMARK   12  A    between atoms: N6_33  and  C17_35
REMARK   13  A    between atoms: C17_35  and  C18_36
REMARK   14  A    between atoms: C18_36  and  N7_37
ROOT
HETATM    1  C3  UNL     1      31.537  11.130  30.983  1.00  0.00     0.122 A
HETATM    2  N1  UNL     1      32.214  11.509  29.781  1.00  0.00    -0.366 N
ATOM      3  H1  UNL     1      32.896  12.265  29.850  1.00  0.00     0.161 HD
HETATM    4  C4  UNL     1      32.043  10.991  28.641  1.00  0.00     0.133 A
HETATM    5  N2  UNL     1      32.740  11.427  27.555  1.00  0.00    -0.176 N
ATOM      6  H2  UNL     1      33.413  12.181  27.691  1.00  0.00     0.186 HD
HETATM    7  C5  UNL     1      32.599  10.929  26.324  1.00  0.00     0.680 A
HETATM    8  N4  UNL     1      31.726   9.943  26.117  1.00  0.00    -0.155 N
ATOM      9  H4  UNL     1      31.606   9.551  25.183  1.00  0.00     0.187 HD
HETATM   10  C6  UNL     1      31.001   9.463  27.152  1.00  0.00     0.274 A
HETATM   11  O1  UNL     1      30.180   8.553  26.998  1.00  0.00    -0.267 OA
HETATM   12  C7  UNL     1      31.131   9.967  28.456  1.00  0.00     0.082 A
HETATM   13  C8  UNL     1      30.388   9.464  29.427  1.00  0.00    -0.022 A
HETATM   14  C15 UNL     1      30.516  10.090  30.769  1.00  0.00     0.136 A
ENDROOT
BRANCH  13  15
HETATM   15  C9  UNL     1      29.404   8.357  29.251  1.00  0.00     0.204 C
BRANCH  15  16
HETATM   16  O2  UNL     1      29.789   7.154  29.787  1.00  0.00    -0.387 OA
BRANCH  16  17
HETATM   17  C10 UNL     1      29.048   6.125  29.260  1.00  0.00     0.168 C
BRANCH  17  18
HETATM   18  C11 UNL     1      29.838   5.197  28.395  1.00  0.00     0.026 C
BRANCH  18  19
HETATM   19  C12 UNL     1      31.195   4.900  28.953  1.00  0.00     0.004 C
BRANCH  19  20
HETATM   20  C13 UNL     1      32.283   5.533  28.143  1.00  0.00     0.027 C
BRANCH  20  21
HETATM   21  C14 UNL     1      33.467   4.618  27.947  1.00  0.00     0.229 C
BRANCH  21  22
HETATM   22  N5  UNL     1      32.996   3.239  27.804  1.00  0.00    -0.079 N
ATOM     23  H53 UNL     1      33.212   2.671  28.623  1.00  0.00     0.274 HD
ATOM     24  H52 UNL     1      31.979   3.172  27.846  1.00  0.00     0.274 HD
ATOM     25  H51 UNL     1      33.375   2.840  26.946  1.00  0.00     0.274 HD
ENDBRANCH  21  22
ENDBRANCH  20  21
ENDBRANCH  19  20
ENDBRANCH  18  19
ENDBRANCH  17  18
ENDBRANCH  16  17
ENDBRANCH  15  16
ENDBRANCH  13  15
BRANCH  14  26
HETATM   26  C16 UNL     1      29.164  10.512  31.268  1.00  0.00     0.228 C
HETATM   27  O3  UNL     1      28.772  10.060  32.371  1.00  0.00    -0.273 OA
HETATM   28  N6  UNL     1      28.319  11.384  30.563  1.00  0.00    -0.359 N
ATOM     29  H6  UNL     1      28.662  11.741  29.672  1.00  0.00     0.162 HD
BRANCH  28  30
HETATM   30  C17 UNL     1      27.019  11.818  30.981  1.00  0.00     0.150 C
BRANCH  30  31
HETATM   31  C18 UNL     1      25.953  11.751  29.950  1.00  0.00     0.255 C
BRANCH  31  32
HETATM   32  N7  UNL     1      24.797  12.556  30.150  1.00  0.00    -0.077 N
HETATM   33  C19 UNL     1      24.861  13.641  29.144  1.00  0.00     0.271 C
HETATM   34  C20 UNL     1      24.789  13.245  31.447  1.00  0.00     0.271 C
HETATM   35  C21 UNL     1      23.536  11.900  29.976  1.00  0.00     0.271 C
ENDBRANCH  31  32
ENDBRANCH  30  31
ENDBRANCH  28  30
ENDBRANCH  14  26
BRANCH   1  36
HETATM   36  C2  UNL     1      32.587  10.597  31.898  1.00  0.00    -0.011 C
HETATM   37  C1  UNL     1      33.732  11.221  31.996  1.00  0.00     0.009 C
ENDBRANCH   1  36
BRANCH   7  38
HETATM   38  N3  UNL     1      33.313  11.405  25.326  1.00  0.00    -0.234 N
ATOM     39  H32 UNL     1      33.546  12.398  25.286  1.00  0.00     0.174 HD
ATOM     40  H31 UNL     1      33.641  10.788  24.582  1.00  0.00     0.174 HD
ENDBRANCH   7  38
TORSDOF 14
ENDMDL