MODEL 2
REMARK VINA RESULT: -6.463932381      3.260      6.187
REMARK  12 active torsions:
REMARK  status: ('A' for Active; 'I' for Inactive)
REMARK       I    between atoms: C1_4  and  N3_6
REMARK    1  A    between atoms: N3_6  and  C2_8
REMARK    2  A    between atoms: C2_8  and  C3_9
REMARK    3  A    between atoms: C3_9  and  C4_10
REMARK       I    between atoms: C4_10  and  N4_12
REMARK    4  A    between atoms: C5_13  and  C6_14
REMARK    5  A    between atoms: C6_14  and  C7_15
REMARK    6  A    between atoms: C7_15  and  C8_16
REMARK    7  A    between atoms: C8_16  and  N5_17
REMARK    8  A    between atoms: C11_23  and  C12_24
REMARK       I    between atoms: C12_24  and  N6_26
REMARK       I    between atoms: N7_29  and  C15_30
REMARK    9  A    between atoms: C15_30  and  C16_32
REMARK   10  A    between atoms: C16_32  and  C17_33
REMARK   11  A    between atoms: C17_33  and  C18_34
REMARK   12  A    between atoms: C18_34  and  C19_35
ROOT
HETATM    1  C4  UNL     1      28.880   9.078  29.468  1.00  0.00     0.222 C
HETATM    2  O1  UNL     1      27.621   8.897  29.304  1.00  0.00    -0.273 OA
HETATM    3  N4  UNL     1      29.283  10.412  29.766  1.00  0.00    -0.334 N
HETATM    4  C5  UNL     1      30.485  11.063  30.065  1.00  0.00     0.088 C
HETATM    5  C9  UNL     1      30.011  12.253  30.929  1.00  0.00     0.028 C
HETATM    6  C10 UNL     1      28.997  12.782  29.882  1.00  0.00     0.037 C
HETATM    7  C11 UNL     1      28.229  11.476  29.705  1.00  0.00     0.180 C
ENDROOT
BRANCH   7   8
HETATM    8  C12 UNL     1      27.648  11.511  28.363  1.00  0.00     0.242 C
HETATM    9  O2  UNL     1      28.369  11.470  27.327  1.00  0.00    -0.271 OA
HETATM   10  N6  UNL     1      26.259  11.590  28.175  1.00  0.00    -0.347 N
HETATM   11  C13 UNL     1      25.370  11.608  29.312  1.00  0.00     0.145 C
HETATM   12  C21 UNL     1      25.658  11.666  26.839  1.00  0.00     0.145 C
HETATM   13  C14 UNL     1      24.522  12.864  29.254  1.00  0.00     0.145 C
HETATM   14  N7  UNL     1      23.877  12.945  27.969  1.00  0.00    -0.349 N
HETATM   15  C15 UNL     1      22.481  13.154  27.890  1.00  0.00     0.219 C
HETATM   16  C20 UNL     1      24.669  12.813  26.773  1.00  0.00     0.145 C
HETATM   17  O3  UNL     1      21.751  13.275  28.921  1.00  0.00    -0.273 OA
BRANCH  15  18
HETATM   18  C16 UNL     1      21.850  13.231  26.534  1.00  0.00     0.103 C
BRANCH  18  19
HETATM   19  C17 UNL     1      21.622  11.881  25.952  1.00  0.00     0.018 C
BRANCH  19  20
HETATM   20  C18 UNL     1      21.562  10.760  26.940  1.00  0.00     0.100 C
BRANCH  20  21
HETATM   21  C19 UNL     1      22.604   9.745  26.805  1.00  0.00     0.231 C
HETATM   22  N8  UNL     1      23.099   9.070  27.978  1.00  0.00    -0.062 NA
HETATM   23  O4  UNL     1      23.082   9.441  25.698  1.00  0.00    -0.277 OA
ENDBRANCH  20  21
ENDBRANCH  19  20
ENDBRANCH  18  19
ENDBRANCH  15  18
ENDBRANCH   7   8
BRANCH   1  24
HETATM   24  C3  UNL     1      29.768   7.919  29.332  1.00  0.00     0.122 C
BRANCH  24  25
HETATM   25  C2  UNL     1      30.029   7.660  27.847  1.00  0.00     0.131 C
BRANCH  25  26
HETATM   26  N3  UNL     1      29.916   6.234  27.584  1.00  0.00    -0.364 N
HETATM   27  C1  UNL     1      31.050   5.377  27.573  1.00  0.00     0.181 C
HETATM   28  N1  UNL     1      32.062   5.692  26.841  1.00  0.00    -0.374 N
HETATM   29  N2  UNL     1      31.065   4.200  28.355  1.00  0.00    -0.064 NA
ATOM     30  H12 UNL     1      32.876   5.077  26.832  1.00  0.00     0.158 HD
ATOM     31  H11 UNL     1      32.051   6.541  26.276  1.00  0.00     0.158 HD
ATOM     32  H3  UNL     1      28.994   5.835  27.403  1.00  0.00     0.162 HD
ENDBRANCH  25  26
ENDBRANCH  24  25
ENDBRANCH   1  24
BRANCH   4  33
HETATM   33  C6  UNL     1      31.688  10.441  30.533  1.00  0.00     0.027 C
BRANCH  33  34
HETATM   34  C7  UNL     1      32.471  10.809  31.698  1.00  0.00     0.029 C
BRANCH  34  35
HETATM   35  C8  UNL     1      33.543  11.859  31.539  1.00  0.00     0.230 C
BRANCH  35  36
HETATM   36  N5  UNL     1      33.204  12.988  32.447  1.00  0.00    -0.079 N
ATOM     37  H53 UNL     1      32.744  12.684  33.306  1.00  0.00     0.274 HD
ATOM     38  H52 UNL     1      34.026  13.412  32.878  1.00  0.00     0.274 HD
ATOM     39  H51 UNL     1      32.646  13.656  31.914  1.00  0.00     0.274 HD
ENDBRANCH  35  36
ENDBRANCH  34  35
ENDBRANCH  33  34
ENDBRANCH   4  33
TORSDOF 12
ENDMDL