MODEL 1
REMARK VINA RESULT: -7.409741765      0.000      0.000
REMARK  10 active torsions:
REMARK  status: ('A' for Active; 'I' for Inactive)
REMARK    1  A    between atoms: C2_2  and  C3_3
REMARK    2  A    between atoms: C3_3  and  N1_4
REMARK    3  A    between atoms: N1_4  and  C4_5
REMARK    4  A    between atoms: N1_4  and  C8_12
REMARK    5  A    between atoms: C4_5  and  C5_6
REMARK    6  A    between atoms: C9_13  and  C10_14
REMARK    7  A    between atoms: C16_24  and  C17_25
REMARK    8  A    between atoms: C17_25  and  C18_26
REMARK    9  A    between atoms: C18_26  and  C19_27
REMARK   10  A    between atoms: C19_27  and  N5_28
ROOT
HETATM    1  C8  UNL     1      30.191   9.776  29.298  1.00  0.00     0.115 C
HETATM    2  C9  UNL     1      28.838  10.350  29.038  1.00  0.00     0.099 C
HETATM    3  C11 UNL     1      28.380  11.206  30.199  1.00  0.00     0.017 C
HETATM    4  C12 UNL     1      29.400  12.097  30.784  1.00  0.00     0.017 C
HETATM    5  C13 UNL     1      30.808  11.537  30.825  1.00  0.00     0.103 C
HETATM    6  C14 UNL     1      31.720  12.571  31.295  1.00  0.00     0.226 C
HETATM    7  O3  UNL     1      31.945  12.552  32.551  1.00  0.00    -0.273 OA
HETATM    8  N4  UNL     1      32.446  13.640  30.655  1.00  0.00    -0.343 N
HETATM    9  C15 UNL     1      32.575  14.875  31.401  1.00  0.00     0.153 C
HETATM   10  C16 UNL     1      33.027  13.529  29.330  1.00  0.00     0.178 C
HETATM   11  C21 UNL     1      32.050  12.994  28.360  1.00  0.00     0.241 C
HETATM   12  O4  UNL     1      32.008  13.591  27.250  1.00  0.00    -0.271 OA
HETATM   13  N8  UNL     1      31.137  11.906  28.462  1.00  0.00    -0.352 N
ATOM     14  H8  UNL     1      30.406  11.830  27.754  1.00  0.00     0.163 HD
HETATM   15  C22 UNL     1      31.177  10.907  29.497  1.00  0.00     0.120 C
ENDROOT
BRANCH   1  16
HETATM   16  N1  UNL     1      30.622   8.748  28.417  1.00  0.00    -0.400 N
BRANCH  16  17
HETATM   17  C3  UNL     1      30.506   9.045  27.027  1.00  0.00     0.144 C
BRANCH  17  18
HETATM   18  C2  UNL     1      31.829   9.260  26.388  1.00  0.00    -0.018 C
HETATM   19  C1  UNL     1      32.045  10.216  25.497  1.00  0.00     0.008 C
ENDBRANCH  17  18
ENDBRANCH  16  17
BRANCH  16  20
HETATM   20  C4  UNL     1      30.275   7.422  28.785  1.00  0.00     0.143 C
BRANCH  20  21
HETATM   21  C5  UNL     1      30.798   6.351  27.859  1.00  0.00     0.110 C
HETATM   22  C6  UNL     1      30.655   4.966  28.508  1.00  0.00     0.129 C
HETATM   23  C7  UNL     1      31.976   4.688  27.906  1.00  0.00     0.220 C
HETATM   24  O1  UNL     1      32.579   3.625  27.591  1.00  0.00    -0.274 OA
HETATM   25  N2  UNL     1      32.199   6.096  27.869  1.00  0.00    -0.354 N
ATOM     26  H2  UNL     1      33.031   6.686  27.855  1.00  0.00     0.162 HD
ENDBRANCH  20  21
ENDBRANCH  16  20
ENDBRANCH   1  16
BRANCH   2  27
HETATM   27  C10 UNL     1      27.794   9.274  28.942  1.00  0.00     0.237 C
HETATM   28  N3  UNL     1      27.127   8.983  27.725  1.00  0.00    -0.062 NA
HETATM   29  O2  UNL     1      27.522   8.633  29.972  1.00  0.00    -0.276 OA
ENDBRANCH   2  27
BRANCH  10  30
HETATM   30  C17 UNL     1      34.339  12.822  29.290  1.00  0.00     0.037 C
BRANCH  30  31
HETATM   31  C18 UNL     1      34.697  12.165  28.004  1.00  0.00     0.022 C
BRANCH  31  32
HETATM   32  C19 UNL     1      35.321  13.067  26.977  1.00  0.00     0.122 C
BRANCH  32  33
HETATM   33  N5  UNL     1      34.752  12.853  25.655  1.00  0.00    -0.367 N
HETATM   34  C20 UNL     1      35.424  12.761  24.592  1.00  0.00     0.196 C
HETATM   35  N6  UNL     1      34.781  12.552  23.350  1.00  0.00    -0.067 NA
HETATM   36  N7  UNL     1      36.835  12.863  24.622  1.00  0.00    -0.067 NA
ATOM     37  H5  UNL     1      33.738  12.771  25.583  1.00  0.00     0.161 HD
ENDBRANCH  32  33
ENDBRANCH  31  32
ENDBRANCH  30  31
ENDBRANCH  10  30
TORSDOF 10
ENDMDL