MODEL 5
REMARK VINA RESULT: -6.279026693      3.792      7.070
REMARK  13 active torsions:
REMARK  status: ('A' for Active; 'I' for Inactive)
REMARK    1  A    between atoms: C2_2  and  N1_3
REMARK    2  A    between atoms: N1_3  and  C3_4
REMARK    3  A    between atoms: N1_3  and  C13_26
REMARK    4  A    between atoms: N1_3  and  N8_32
REMARK    5  A    between atoms: C3_4  and  C4_5
REMARK    6  A    between atoms: C4_5  and  N2_6
REMARK       I    between atoms: N2_6  and  C5_8
REMARK    7  A    between atoms: C5_8  and  C6_10
REMARK    8  A    between atoms: C7_11  and  N3_12
REMARK    9  A    between atoms: C9_17  and  O2_18
REMARK   10  A    between atoms: C10_20  and  O3_21
REMARK   11  A    between atoms: C13_26  and  C14_27
REMARK   12  A    between atoms: C14_27  and  N7_28
REMARK   13  A    between atoms: N8_32  and  C18_34
ROOT
HETATM    1  N2  UNL     1      31.662  10.218  29.808  1.00  0.00    -0.357 N
ATOM      2  H2  UNL     1      32.200   9.379  29.594  1.00  0.00     0.162 HD
HETATM    3  C5  UNL     1      30.618  10.581  28.917  1.00  0.00     0.253 C
HETATM    4  O1  UNL     1      29.960  11.614  29.197  1.00  0.00    -0.271 OA
ENDROOT
BRANCH   1   5
HETATM    5  C4  UNL     1      32.014  10.959  30.998  1.00  0.00     0.153 C
BRANCH   5   6
HETATM    6  C3  UNL     1      33.284  11.701  30.980  1.00  0.00     0.290 C
BRANCH   6   7
HETATM    7  N1  UNL     1      33.296  13.120  30.661  1.00  0.00     0.032 N
BRANCH   7   8
HETATM    8  C2  UNL     1      34.487  13.423  29.858  1.00  0.00     0.266 C
HETATM    9  C1  UNL     1      35.138  12.157  29.349  1.00  0.00     0.037 C
ENDBRANCH   7   8
BRANCH   7  10
HETATM   10  C13 UNL     1      33.073  13.918  31.788  1.00  0.00     0.254 C
BRANCH  10  11
HETATM   11  C14 UNL     1      31.933  13.936  32.683  1.00  0.00     0.228 C
BRANCH  11  12
HETATM   12  N7  UNL     1      30.843  14.812  32.659  1.00  0.00    -0.057 N
HETATM   13  C15 UNL     1      29.618  14.413  32.047  1.00  0.00     0.277 C
HETATM   14  C16 UNL     1      30.373  15.056  34.091  1.00  0.00     0.277 C
HETATM   15  C17 UNL     1      31.170  16.162  32.243  1.00  0.00     0.277 C
ENDBRANCH  11  12
ENDBRANCH  10  11
ENDBRANCH   7  10
BRANCH   7  16
HETATM   16  N8  UNL     1      32.302  13.394  29.739  1.00  0.00    -0.244 N
ATOM     17  H8  UNL     1      31.421  12.902  29.884  1.00  0.00     0.188 HD
BRANCH  16  18
HETATM   18  C18 UNL     1      32.333  14.219  28.678  1.00  0.00     0.107 C
HETATM   19  C19 UNL     1      32.174  13.578  27.332  1.00  0.00     0.027 C
HETATM   20  C20 UNL     1      31.831  14.797  26.428  1.00  0.00     0.002 C
HETATM   21  C21 UNL     1      30.804  15.481  27.289  1.00  0.00     0.002 C
HETATM   22  C22 UNL     1      31.035  15.081  28.711  1.00  0.00     0.027 C
ENDBRANCH  16  18
ENDBRANCH   7  16
ENDBRANCH   6   7
ENDBRANCH   5   6
ENDBRANCH   1   5
BRANCH   3  23
HETATM   23  C6  UNL     1      30.232   9.865  27.701  1.00  0.00     0.338 C
HETATM   24  C7  UNL     1      29.006   9.027  28.036  1.00  0.00     0.158 C
HETATM   25  C9  UNL     1      29.475   7.842  28.842  1.00  0.00     0.173 C
HETATM   26  C10 UNL     1      30.229   6.924  27.919  1.00  0.00     0.177 C
HETATM   27  C11 UNL     1      30.817   7.719  26.809  1.00  0.00     0.307 C
HETATM   28  N6  UNL     1      31.303   9.027  27.199  1.00  0.00     0.102 N
HETATM   29  C12 UNL     1      31.832   9.622  25.980  1.00  0.00     0.311 C
BRANCH  24  30
HETATM   30  N3  UNL     1      27.993   9.787  28.724  1.00  0.00    -0.357 N
HETATM   31  C8  UNL     1      26.725   9.648  28.486  1.00  0.00     0.197 C
HETATM   32  N4  UNL     1      25.759  10.420  29.189  1.00  0.00    -0.067 NA
HETATM   33  N5  UNL     1      26.237   8.722  27.522  1.00  0.00    -0.067 NA
ATOM     34  H3  UNL     1      28.286  10.465  29.428  1.00  0.00     0.162 HD
ENDBRANCH  24  30
BRANCH  25  35
HETATM   35  O2  UNL     1      28.427   7.106  29.386  1.00  0.00    -0.391 OA
ATOM     36  H2  UNL     1      28.559   6.168  29.317  1.00  0.00     0.210 HD
ENDBRANCH  25  35
BRANCH  26  37
HETATM   37  O3  UNL     1      31.189   6.173  28.598  1.00  0.00    -0.391 OA
ATOM     38  H3  UNL     1      31.426   5.386  28.123  1.00  0.00     0.210 HD
ENDBRANCH  26  37
ENDBRANCH   3  23
TORSDOF 13
ENDMDL