MODEL 5
REMARK VINA RESULT: -6.508681243      2.470      5.708
REMARK  12 active torsions:
REMARK  status: ('A' for Active; 'I' for Inactive)
REMARK    1  A    between atoms: C3_3  and  C4_4
REMARK    2  A    between atoms: C4_4  and  C5_5
REMARK    3  A    between atoms: C5_5  and  C6_6
REMARK    4  A    between atoms: C11_19  and  C12_20
REMARK    5  A    between atoms: C12_20  and  C13_21
REMARK    6  A    between atoms: C13_21  and  C14_22
REMARK    7  A    between atoms: C14_22  and  N4_23
REMARK    8  A    between atoms: C16_28  and  O3_29
REMARK    9  A    between atoms: N7_31  and  C17_32
REMARK   10  A    between atoms: C17_32  and  C18_33
REMARK   11  A    between atoms: C17_32  and  C21_36
REMARK   12  A    between atoms: C18_33  and  C19_34
ROOT
HETATM    1  C1  UNL     1      32.184  10.349  25.415  1.00  0.00     0.012 C
HETATM    2  C2  UNL     1      31.652  11.425  25.503  1.00  0.00    -0.117 C
HETATM    3  C3  UNL     1      31.000  12.780  25.632  1.00  0.00     0.093 C
ENDROOT
BRANCH   3   4
HETATM    4  C4  UNL     1      30.388  12.902  26.982  1.00  0.00     0.016 C
BRANCH   4   5
HETATM    5  C5  UNL     1      28.968  12.574  27.193  1.00  0.00     0.048 C
BRANCH   5   6
HETATM    6  C6  UNL     1      28.723  11.382  28.044  1.00  0.00     0.191 C
HETATM    7  N1  UNL     1      27.347  10.974  27.972  1.00  0.00    -0.322 N
HETATM    8  C7  UNL     1      26.781   9.708  28.227  1.00  0.00     0.317 C
ATOM      9  H1  UNL     1      26.687  11.703  27.698  1.00  0.00     0.166 HD
HETATM   10  O1  UNL     1      25.625   9.803  28.810  1.00  0.00    -0.247 OA
HETATM   11  N2  UNL     1      27.201   8.414  27.984  1.00  0.00    -0.343 N
HETATM   12  C8  UNL     1      28.533   7.877  27.896  1.00  0.00     0.133 C
ATOM     13  H2  UNL     1      26.452   7.735  27.846  1.00  0.00     0.164 HD
HETATM   14  C9  UNL     1      29.292   7.899  29.224  1.00  0.00     0.122 C
HETATM   15  C10 UNL     1      30.710   8.124  28.844  1.00  0.00     0.219 C
HETATM   16  O2  UNL     1      31.412   7.096  28.637  1.00  0.00    -0.274 OA
HETATM   17  N3  UNL     1      31.325   9.386  28.694  1.00  0.00    -0.349 N
HETATM   18  C11 UNL     1      31.416  10.461  29.630  1.00  0.00     0.159 C
ATOM     19  H3  UNL     1      31.766   9.553  27.790  1.00  0.00     0.163 HD
HETATM   20  C16 UNL     1      30.130  11.007  30.123  1.00  0.00     0.139 C
HETATM   21  N7  UNL     1      29.093  11.660  29.465  1.00  0.00    -0.329 N
BRANCH  18  22
HETATM   22  C12 UNL     1      32.351  11.539  29.132  1.00  0.00     0.035 C
BRANCH  22  23
HETATM   23  C13 UNL     1      33.212  12.190  30.126  1.00  0.00     0.022 C
BRANCH  23  24
HETATM   24  C14 UNL     1      32.722  13.333  30.908  1.00  0.00     0.122 C
BRANCH  24  25
HETATM   25  N4  UNL     1      32.307  13.102  32.243  1.00  0.00    -0.367 N
HETATM   26  C15 UNL     1      32.009  14.043  33.029  1.00  0.00     0.196 C
HETATM   27  N5  UNL     1      32.084  15.385  32.586  1.00  0.00    -0.067 NA
HETATM   28  N6  UNL     1      31.598  13.790  34.357  1.00  0.00    -0.067 NA
ATOM     29  H4  UNL     1      32.246  12.141  32.580  1.00  0.00     0.161 HD
ENDBRANCH  24  25
ENDBRANCH  23  24
ENDBRANCH  22  23
ENDBRANCH  18  22
BRANCH  20  30
HETATM   30  O3  UNL     1      29.955  10.836  31.406  1.00  0.00    -0.348 OA
ATOM     31  H3  UNL     1      29.316  10.164  31.612  1.00  0.00     0.219 HD
ENDBRANCH  20  30
BRANCH  21  32
HETATM   32  C17 UNL     1      28.209  12.686  30.050  1.00  0.00     0.180 C
BRANCH  32  33
HETATM   33  C18 UNL     1      27.252  12.114  31.055  1.00  0.00     0.061 C
BRANCH  33  34
HETATM   34  C19 UNL     1      25.955  12.846  31.011  1.00  0.00    -0.034 C
HETATM   35  C20 UNL     1      25.410  13.238  29.852  1.00  0.00     0.007 C
ENDBRANCH  33  34
ENDBRANCH  32  33
BRANCH  32  36
HETATM   36  C21 UNL     1      28.960  13.756  30.737  1.00  0.00     0.254 C
HETATM   37  N8  UNL     1      29.557  14.879  30.091  1.00  0.00    -0.060 NA
HETATM   38  O4  UNL     1      29.109  13.709  31.975  1.00  0.00    -0.275 OA
ENDBRANCH  32  36
ENDBRANCH  21  32
ENDBRANCH   5   6
ENDBRANCH   4   5
ENDBRANCH   3   4
TORSDOF 12
ENDMDL