MODEL 2
REMARK VINA RESULT: -7.040044627      3.152      7.303
REMARK  10 active torsions:
REMARK  status: ('A' for Active; 'I' for Inactive)
REMARK    1  A    between atoms: C2_2  and  C3_3
REMARK    2  A    between atoms: C3_3  and  C4_4
REMARK       I    between atoms: C4_4  and  N1_6
REMARK       I    between atoms: N1_6  and  C5_8
REMARK       I    between atoms: C5_8  and  N2_9
REMARK       I    between atoms: C5_8  and  N8_32
REMARK       I    between atoms: N2_9  and  C6_11
REMARK    3  A    between atoms: N4_13  and  C7_15
REMARK    4  A    between atoms: C7_15  and  C8_16
REMARK    5  A    between atoms: C8_16  and  C9_17
REMARK    6  A    between atoms: C9_17  and  C10_18
REMARK    7  A    between atoms: C10_18  and  C11_19
REMARK    8  A    between atoms: C11_19  and  C12_20
REMARK    9  A    between atoms: C12_20  and  C13_21
REMARK       I    between atoms: C13_21  and  N5_23
REMARK       I    between atoms: N6_26  and  C16_27
REMARK   10  A    between atoms: N8_32  and  N9_34
REMARK       I    between atoms: N9_34  and  C19_35
ROOT
HETATM    1  C4  UNL     1      28.844   7.501  28.085  1.00  0.00     0.239 C
HETATM    2  O1  UNL     1      29.532   7.897  27.129  1.00  0.00    -0.272 OA
HETATM    3  N1  UNL     1      27.928   8.476  28.695  1.00  0.00    -0.157 N
ATOM      4  H1  UNL     1      27.321   8.218  29.473  1.00  0.00     0.187 HD
HETATM    5  C5  UNL     1      27.923   9.767  28.167  1.00  0.00     0.712 C
HETATM    6  N2  UNL     1      27.915  10.838  27.733  1.00  0.00    -0.161 N
ATOM      7  H2  UNL     1      28.604  10.843  26.980  1.00  0.00     0.187 HD
HETATM    8  C6  UNL     1      27.402  12.085  27.778  1.00  0.00     0.202 C
HETATM    9  N3  UNL     1      26.541  12.651  26.755  1.00  0.00    -0.063 NA
HETATM   10  N4  UNL     1      27.662  12.885  28.780  1.00  0.00    -0.364 N
ATOM     11  H4  UNL     1      28.262  12.556  29.537  1.00  0.00     0.162 HD
HETATM   12  N8  UNL     1      26.676  10.282  29.325  1.00  0.00    -0.062 N
ATOM     13  H8  UNL     1      26.813  10.745  30.223  1.00  0.00     0.221 HD
ENDROOT
BRANCH  10  14
HETATM   14  C7  UNL     1      27.118  14.227  28.842  1.00  0.00     0.122 C
BRANCH  14  15
HETATM   15  C8  UNL     1      28.053  15.057  29.714  1.00  0.00     0.020 C
BRANCH  15  16
HETATM   16  C9  UNL     1      29.338  15.235  28.945  1.00  0.00     0.002 C
BRANCH  16  17
HETATM   17  C10 UNL     1      30.565  15.216  29.781  1.00  0.00     0.001 C
BRANCH  17  18
HETATM   18  C11 UNL     1      30.370  14.990  31.243  1.00  0.00     0.009 C
BRANCH  18  19
HETATM   19  C12 UNL     1      31.147  13.802  31.759  1.00  0.00     0.103 C
BRANCH  19  20
HETATM   20  C13 UNL     1      30.741  12.561  31.059  1.00  0.00     0.219 C
HETATM   21  O2  UNL     1      29.503  12.242  31.164  1.00  0.00    -0.273 OA
HETATM   22  N5  UNL     1      31.613  11.747  30.314  1.00  0.00    -0.349 N
HETATM   23  C14 UNL     1      31.112  10.548  29.685  1.00  0.00     0.145 C
HETATM   24  C18 UNL     1      33.011  12.045  30.132  1.00  0.00     0.145 C
HETATM   25  C15 UNL     1      31.520  10.455  28.237  1.00  0.00     0.147 C
HETATM   26  N6  UNL     1      32.576  11.318  27.861  1.00  0.00    -0.333 N
HETATM   27  C16 UNL     1      33.080  11.224  26.518  1.00  0.00     0.330 C
HETATM   28  C17 UNL     1      33.227  12.314  28.683  1.00  0.00     0.147 C
HETATM   29  N7  UNL     1      32.477  10.270  25.660  1.00  0.00    -0.040 NA
HETATM   30  O3  UNL     1      34.016  11.942  26.092  1.00  0.00    -0.251 OA
ENDBRANCH  19  20
ENDBRANCH  18  19
ENDBRANCH  17  18
ENDBRANCH  16  17
ENDBRANCH  15  16
ENDBRANCH  14  15
ENDBRANCH  10  14
BRANCH  12  31
HETATM   31  N9  UNL     1      25.579   9.945  28.788  1.00  0.00    -0.280 NA
HETATM   32  C19 UNL     1      24.526   9.631  28.331  1.00  0.00     0.299 C
HETATM   33  N10 UNL     1      23.309   9.466  29.075  1.00  0.00    -0.051 NA
HETATM   34  N11 UNL     1      24.373   9.392  26.910  1.00  0.00    -0.051 NA
ENDBRANCH  12  31
BRANCH   1  35
HETATM   35  C3  UNL     1      28.877   6.144  28.645  1.00  0.00     0.130 C
BRANCH  35  36
HETATM   36  C2  UNL     1      30.258   5.643  28.733  1.00  0.00    -0.028 C
HETATM   37  C1  UNL     1      30.629   4.672  27.920  1.00  0.00     0.007 C
ENDBRANCH  35  36
ENDBRANCH   1  35
TORSDOF 10
ENDMDL