MODEL 4
REMARK VINA RESULT: -6.092663520      3.878      4.894
REMARK  12 active torsions:
REMARK  status: ('A' for Active; 'I' for Inactive)
REMARK    1  A    between atoms: C1_4  and  C2_5
REMARK    2  A    between atoms: C1_4  and  N7_37
REMARK    3  A    between atoms: C2_5  and  C3_6
REMARK    4  A    between atoms: C3_6  and  S1_7
REMARK    5  A    between atoms: S1_7  and  C4_8
REMARK    6  A    between atoms: C4_8  and  C5_9
REMARK    7  A    between atoms: C10_15  and  N3_16
REMARK       I    between atoms: N3_16  and  C11_18
REMARK    8  A    between atoms: C11_18  and  C12_20
REMARK    9  A    between atoms: C12_20  and  C13_21
REMARK   10  A    between atoms: C13_21  and  N4_22
REMARK   11  A    between atoms: C19_31  and  C20_32
REMARK   12  A    between atoms: C20_32  and  N6_33
ROOT
HETATM    1  C5  UNL     1      30.650  14.078  32.381  1.00  0.00     0.022 C
HETATM    2  C6  UNL     1      32.029  13.694  31.912  1.00  0.00     0.035 C
HETATM    3  C7  UNL     1      31.823  13.599  30.414  1.00  0.00     0.238 C
HETATM    4  N2  UNL     1      30.539  12.941  30.329  1.00  0.00    -0.059 N
HETATM    5  C8  UNL     1      29.712  13.529  31.331  1.00  0.00     0.243 C
HETATM    6  C9  UNL     1      30.682  11.520  30.533  1.00  0.00     0.263 C
HETATM    7  C10 UNL     1      29.359  10.985  30.032  1.00  0.00     0.112 C
HETATM    8  C18 UNL     1      28.847  12.016  29.066  1.00  0.00     0.062 C
HETATM    9  C19 UNL     1      29.929  13.067  29.037  1.00  0.00     0.218 C
ENDROOT
BRANCH   9  10
HETATM   10  C20 UNL     1      30.891  12.763  27.931  1.00  0.00     0.263 C
BRANCH  10  11
HETATM   11  N6  UNL     1      30.239  12.191  26.771  1.00  0.00    -0.077 N
ATOM     12  H63 UNL     1      29.453  11.602  27.045  1.00  0.00     0.274 HD
ATOM     13  H62 UNL     1      29.735  12.904  26.244  1.00  0.00     0.274 HD
ATOM     14  H61 UNL     1      30.888  11.682  26.170  1.00  0.00     0.274 HD
ENDBRANCH  10  11
ENDBRANCH   9  10
BRANCH   1  15
HETATM   15  C4  UNL     1      30.488  15.571  32.529  1.00  0.00     0.080 C
BRANCH  15  16
HETATM   16  S1  UNL     1      28.817  16.156  32.318  1.00  0.00    -0.168 SA
BRANCH  16  17
HETATM   17  C3  UNL     1      27.756  15.657  33.686  1.00  0.00     0.081 C
BRANCH  17  18
HETATM   18  C2  UNL     1      26.639  14.744  33.226  1.00  0.00     0.086 C
BRANCH  18  19
HETATM   19  C1  UNL     1      25.693  14.367  34.269  1.00  0.00     0.077 C
HETATM   20  N1  UNL     1      24.609  13.727  34.017  1.00  0.00    -0.389 N
ATOM     21  H12 UNL     1      24.421  13.495  33.042  1.00  0.00     0.157 HD
ATOM     22  H11 UNL     1      23.947  13.463  34.747  1.00  0.00     0.157 HD
BRANCH  19  23
HETATM   23  N7  UNL     1      25.954  14.688  35.619  1.00  0.00    -0.323 N
HETATM   24  C21 UNL     1      25.376  15.567  36.328  1.00  0.00     0.202 C
HETATM   25  N8  UNL     1      24.329  16.415  35.871  1.00  0.00    -0.066 NA
HETATM   26  N9  UNL     1      25.786  15.749  37.700  1.00  0.00    -0.066 NA
ATOM     27  H7  UNL     1      26.691  14.152  36.077  1.00  0.00     0.169 HD
ENDBRANCH  19  23
ENDBRANCH  18  19
ENDBRANCH  17  18
ENDBRANCH  16  17
ENDBRANCH  15  16
ENDBRANCH   1  15
BRANCH   7  28
HETATM   28  N3  UNL     1      29.587   9.706  29.417  1.00  0.00    -0.355 N
HETATM   29  C11 UNL     1      28.617   8.683  29.316  1.00  0.00     0.219 C
HETATM   30  O1  UNL     1      27.466   8.855  29.778  1.00  0.00    -0.274 OA
ATOM     31  H3  UNL     1      30.512   9.524  29.028  1.00  0.00     0.162 HD
BRANCH  29  32
HETATM   32  C12 UNL     1      28.964   7.411  28.663  1.00  0.00     0.133 C
BRANCH  32  33
HETATM   33  C13 UNL     1      30.406   7.467  28.208  1.00  0.00     0.281 C
BRANCH  33  34
HETATM   34  N4  UNL     1      30.732   6.189  27.626  1.00  0.00     0.092 N
HETATM   35  C14 UNL     1      29.925   5.097  28.092  1.00  0.00     0.300 C
HETATM   36  C15 UNL     1      30.562   4.262  29.155  1.00  0.00     0.262 C
HETATM   37  N5  UNL     1      31.902   3.842  28.897  1.00  0.00    -0.072 N
HETATM   38  C16 UNL     1      32.417   4.414  27.685  1.00  0.00     0.262 C
ATOM     39  H52 UNL     1      32.512   4.042  29.689  1.00  0.00     0.277 HD
ATOM     40  H51 UNL     1      31.978   2.825  28.889  1.00  0.00     0.277 HD
HETATM   41  C17 UNL     1      32.143   5.902  27.642  1.00  0.00     0.300 C
ENDBRANCH  33  34
ENDBRANCH  32  33
ENDBRANCH  29  32
ENDBRANCH   7  28
TORSDOF 12
ENDMDL