MODEL 5
REMARK VINA RESULT: -6.910816684      2.114      6.576
REMARK  12 active torsions:
REMARK  status: ('A' for Active; 'I' for Inactive)
REMARK    1  A    between atoms: N3_4  and  C2_6
REMARK    2  A    between atoms: C2_6  and  C3_7
REMARK    3  A    between atoms: C3_7  and  C4_8
REMARK    4  A    between atoms: C4_8  and  C5_9
REMARK    5  A    between atoms: C7_14  and  C8_15
REMARK    6  A    between atoms: C8_15  and  O2_16
REMARK    7  A    between atoms: N5_18  and  C9_19
REMARK    8  A    between atoms: C9_19  and  C10_20
REMARK    9  A    between atoms: C15_26  and  C16_27
REMARK   10  A    between atoms: C16_27  and  C17_28
REMARK   11  A    between atoms: C17_28  and  C18_29
REMARK   12  A    between atoms: C18_29  and  N6_30
ROOT
HETATM    1  C5  UNL     1      27.630  11.224  29.315  1.00  0.00     0.176 C
HETATM    2  N4  UNL     1      28.607  11.334  30.366  1.00  0.00    -0.346 N
ATOM      3  H4  UNL     1      28.278  11.061  31.292  1.00  0.00     0.163 HD
HETATM    4  C6  UNL     1      29.923  11.752  30.311  1.00  0.00     0.243 C
HETATM    5  O1  UNL     1      30.318  12.428  31.341  1.00  0.00    -0.271 OA
HETATM    6  C7  UNL     1      30.974  11.587  29.314  1.00  0.00     0.202 C
HETATM    7  N5  UNL     1      30.724  10.818  28.153  1.00  0.00    -0.334 N
HETATM    8  C14 UNL     1      30.478   9.406  28.119  1.00  0.00     0.243 C
HETATM    9  O3  UNL     1      31.082   8.719  27.239  1.00  0.00    -0.271 OA
HETATM   10  C15 UNL     1      29.572   8.680  29.034  1.00  0.00     0.176 C
HETATM   11  N9  UNL     1      28.210   8.852  28.542  1.00  0.00    -0.346 N
ATOM     12  H9  UNL     1      27.896   8.216  27.809  1.00  0.00     0.163 HD
HETATM   13  C20 UNL     1      27.290   9.822  28.992  1.00  0.00     0.241 C
HETATM   14  O4  UNL     1      26.098   9.451  29.125  1.00  0.00    -0.271 OA
ENDROOT
BRANCH   1  15
HETATM   15  C4  UNL     1      26.356  11.902  29.770  1.00  0.00     0.036 C
BRANCH  15  16
HETATM   16  C3  UNL     1      25.887  12.950  28.794  1.00  0.00     0.022 C
BRANCH  16  17
HETATM   17  C2  UNL     1      24.550  12.475  28.244  1.00  0.00     0.122 C
BRANCH  17  18
HETATM   18  N3  UNL     1      24.684  11.655  27.082  1.00  0.00    -0.367 N
HETATM   19  C1  UNL     1      23.829  10.727  26.762  1.00  0.00     0.196 C
HETATM   20  N1  UNL     1      22.679  10.436  27.534  1.00  0.00    -0.067 NA
HETATM   21  N2  UNL     1      24.095   9.991  25.575  1.00  0.00    -0.067 NA
ATOM     22  H3  UNL     1      25.489  11.805  26.473  1.00  0.00     0.161 HD
ENDBRANCH  17  18
ENDBRANCH  16  17
ENDBRANCH  15  16
ENDBRANCH   1  15
BRANCH   6  23
HETATM   23  C8  UNL     1      32.263  11.221  30.061  1.00  0.00     0.199 C
BRANCH  23  24
HETATM   24  O2  UNL     1      32.140  10.144  30.893  1.00  0.00    -0.398 OA
ATOM     25  H2  UNL     1      31.567  10.292  31.637  1.00  0.00     0.209 HD
ENDBRANCH  23  24
ENDBRANCH   6  23
BRANCH  10  26
HETATM   26  C16 UNL     1      29.805   7.208  29.146  1.00  0.00     0.036 C
BRANCH  26  27
HETATM   27  C17 UNL     1      28.893   6.294  28.411  1.00  0.00     0.022 C
BRANCH  27  28
HETATM   28  C18 UNL     1      29.696   5.012  28.121  1.00  0.00     0.122 C
BRANCH  28  29
HETATM   29  N6  UNL     1      30.998   5.372  27.599  1.00  0.00    -0.367 N
HETATM   30  C19 UNL     1      32.046   4.665  27.829  1.00  0.00     0.196 C
HETATM   31  N7  UNL     1      33.277   5.104  27.270  1.00  0.00    -0.067 NA
HETATM   32  N8  UNL     1      32.059   3.477  28.600  1.00  0.00    -0.067 NA
ATOM     33  H6  UNL     1      31.087   6.214  27.031  1.00  0.00     0.161 HD
ENDBRANCH  28  29
ENDBRANCH  27  28
ENDBRANCH  26  27
ENDBRANCH  10  26
BRANCH   7  34
HETATM   34  C9  UNL     1      30.713  11.499  26.864  1.00  0.00     0.131 C
BRANCH  34  35
HETATM   35  C10 UNL     1      31.991  12.245  26.571  1.00  0.00     0.004 C
HETATM   36  C11 UNL     1      33.175  11.324  26.275  1.00  0.00     0.006 C
HETATM   37  C12 UNL     1      33.576  12.236  25.132  1.00  0.00     0.001 C
HETATM   38  C13 UNL     1      32.135  12.713  25.115  1.00  0.00     0.006 C
ENDBRANCH  34  35
ENDBRANCH   7  34
TORSDOF 12
ENDMDL