MODEL 5
REMARK VINA RESULT: -6.205383602      3.704      6.728
REMARK  11 active torsions:
REMARK  status: ('A' for Active; 'I' for Inactive)
REMARK    1  A    between atoms: C2_2  and  N1_3
REMARK    2  A    between atoms: N1_3  and  C3_4
REMARK    3  A    between atoms: C3_4  and  C4_5
REMARK    4  A    between atoms: C4_5  and  C5_6
REMARK    5  A    between atoms: C5_6  and  C6_7
REMARK    6  A    between atoms: C6_7  and  N2_8
REMARK    7  A    between atoms: C6_7  and  C7_12
REMARK    8  A    between atoms: C10_21  and  C11_22
REMARK    9  A    between atoms: C11_22  and  C12_23
REMARK   10  A    between atoms: C12_23  and  C13_24
REMARK   11  A    between atoms: C13_24  and  N5_25
ROOT
HETATM    1  C7  UNL     1      26.626  10.783  28.011  1.00  0.00     0.287 C
HETATM    2  N3  UNL     1      27.275  12.100  28.047  1.00  0.00    -0.054 N
ATOM      3  H31 UNL     1      26.645  12.820  27.693  1.00  0.00     0.278 HD
ATOM      4  H32 UNL     1      28.012  12.156  27.345  1.00  0.00     0.278 HD
HETATM    5  C8  UNL     1      27.782  12.464  29.347  1.00  0.00     0.335 C
HETATM    6  C9  UNL     1      29.110  13.083  29.095  1.00  0.00     0.244 C
HETATM    7  O1  UNL     1      29.126  14.301  28.788  1.00  0.00    -0.272 OA
HETATM    8  N4  UNL     1      30.306  12.350  29.186  1.00  0.00    -0.346 N
ATOM      9  H4  UNL     1      30.917  12.401  28.370  1.00  0.00     0.163 HD
HETATM   10  C10 UNL     1      30.778  11.553  30.256  1.00  0.00     0.176 C
HETATM   11  C15 UNL     1      30.115  10.241  30.452  1.00  0.00     0.243 C
HETATM   12  O2  UNL     1      29.873   9.927  31.685  1.00  0.00    -0.271 OA
HETATM   13  N8  UNL     1      29.718   9.299  29.496  1.00  0.00    -0.339 N
HETATM   14  C16 UNL     1      29.943   7.863  29.486  1.00  0.00     0.127 C
HETATM   15  C17 UNL     1      30.313   7.622  28.017  1.00  0.00     0.022 C
HETATM   16  C18 UNL     1      29.107   8.357  27.400  1.00  0.00     0.035 C
HETATM   17  C19 UNL     1      28.946   9.575  28.294  1.00  0.00     0.159 C
HETATM   18  C20 UNL     1      27.499   9.787  28.674  1.00  0.00     0.182 C
HETATM   19  O3  UNL     1      27.083   9.092  29.563  1.00  0.00    -0.293 OA
ENDROOT
BRANCH   1  20
HETATM   20  C6  UNL     1      25.232  10.864  28.515  1.00  0.00     0.221 C
BRANCH  20  21
HETATM   21  C5  UNL     1      24.356  11.854  27.813  1.00  0.00     0.037 C
BRANCH  21  22
HETATM   22  C4  UNL     1      23.960  13.013  28.699  1.00  0.00     0.030 C
BRANCH  22  23
HETATM   23  C3  UNL     1      24.094  12.613  30.123  1.00  0.00     0.237 C
BRANCH  23  24
HETATM   24  N1  UNL     1      24.223  13.658  31.083  1.00  0.00    -0.064 N
HETATM   25  C21 UNL     1      23.920  14.992  30.576  1.00  0.00     0.265 A
HETATM   26  C22 UNL     1      23.003  14.330  31.507  1.00  0.00     0.265 A
BRANCH  24  27
HETATM   27  C2  UNL     1      25.254  13.505  32.069  1.00  0.00     0.233 C
HETATM   28  C1  UNL     1      24.830  13.812  33.476  1.00  0.00     0.035 C
ENDBRANCH  24  27
ENDBRANCH  23  24
ENDBRANCH  22  23
ENDBRANCH  21  22
ENDBRANCH  20  21
BRANCH  20  29
HETATM   29  N2  UNL     1      24.526   9.573  28.368  1.00  0.00    -0.073 N
ATOM     30  H23 UNL     1      23.531   9.616  28.588  1.00  0.00     0.274 HD
ATOM     31  H22 UNL     1      24.415   9.267  27.401  1.00  0.00     0.274 HD
ATOM     32  H21 UNL     1      25.053   8.924  28.952  1.00  0.00     0.274 HD
ENDBRANCH  20  29
ENDBRANCH   1  20
BRANCH  10  33
HETATM   33  C11 UNL     1      32.286  11.371  30.291  1.00  0.00     0.036 C
BRANCH  33  34
HETATM   34  C12 UNL     1      32.959  11.614  31.588  1.00  0.00     0.022 C
BRANCH  34  35
HETATM   35  C13 UNL     1      33.370  12.994  31.937  1.00  0.00     0.122 C
BRANCH  35  36
HETATM   36  N5  UNL     1      32.527  13.387  33.096  1.00  0.00    -0.367 N
HETATM   37  C14 UNL     1      31.515  14.164  32.944  1.00  0.00     0.196 C
HETATM   38  N6  UNL     1      31.098  14.714  31.708  1.00  0.00    -0.067 NA
HETATM   39  N7  UNL     1      30.765  14.491  34.107  1.00  0.00    -0.067 NA
ATOM     40  H5  UNL     1      32.756  13.036  34.026  1.00  0.00     0.161 HD
ENDBRANCH  35  36
ENDBRANCH  34  35
ENDBRANCH  33  34
ENDBRANCH  10  33
TORSDOF 11
ENDMDL