MODEL 3
REMARK VINA RESULT: -6.721456269      1.339      3.114
REMARK  12 active torsions:
REMARK  status: ('A' for Active; 'I' for Inactive)
REMARK       I    between atoms: C2_5  and  N3_6
REMARK       I    between atoms: C2_5  and  N12_33
REMARK       I    between atoms: C3_8  and  N5_10
REMARK    1  A    between atoms: N5_10  and  C4_12
REMARK    2  A    between atoms: C4_12  and  C5_13
REMARK    3  A    between atoms: C5_13  and  C6_14
REMARK    4  A    between atoms: C6_14  and  C7_15
REMARK    5  A    between atoms: C7_15  and  N6_16
REMARK       I    between atoms: N6_16  and  C8_18
REMARK       I    between atoms: C8_18  and  N9_23
REMARK    6  A    between atoms: N9_23  and  N10_25
REMARK    7  A    between atoms: N12_33  and  C16_35
REMARK    8  A    between atoms: C16_35  and  C17_36
REMARK    9  A    between atoms: C17_36  and  C18_37
REMARK   10  A    between atoms: C18_37  and  C19_38
REMARK   11  A    between atoms: C19_38  and  C20_39
REMARK   12  A    between atoms: C20_39  and  N13_40
ROOT
HETATM    1  N1  UNL     1      28.345  10.881  31.189  1.00  0.00    -0.171 NA
HETATM    2  C1  UNL     1      28.311   9.803  30.734  1.00  0.00     0.196 C
HETATM    3  N2  UNL     1      28.272   8.530  30.168  1.00  0.00    -0.126 N
ATOM      4  H2  UNL     1      28.333   7.710  30.770  1.00  0.00     0.197 HD
HETATM    5  C2  UNL     1      28.160   8.377  28.896  1.00  0.00     0.689 C
HETATM    6  N3  UNL     1      28.080   9.579  28.106  1.00  0.00    -0.163 N
ATOM      7  H3  UNL     1      28.911   9.996  27.687  1.00  0.00     0.187 HD
HETATM    8  C3  UNL     1      26.924  10.099  27.952  1.00  0.00     0.202 C
HETATM    9  N4  UNL     1      25.791   9.501  28.539  1.00  0.00    -0.063 NA
HETATM   10  N5  UNL     1      26.781  11.292  27.199  1.00  0.00    -0.364 N
ATOM     11  H5  UNL     1      26.527  11.235  26.212  1.00  0.00     0.162 HD
HETATM   12  N12 UNL     1      28.092   7.129  28.260  1.00  0.00    -0.225 N
ATOM     13  H12 UNL     1      27.440   7.070  27.478  1.00  0.00     0.177 HD
ENDROOT
BRANCH  12  14
HETATM   14  C16 UNL     1      28.801   5.940  28.553  1.00  0.00     0.138 C
BRANCH  14  15
HETATM   15  C17 UNL     1      30.286   5.996  28.668  1.00  0.00     0.020 C
BRANCH  15  16
HETATM   16  C18 UNL     1      30.954   4.918  27.908  1.00  0.00     0.003 C
BRANCH  16  17
HETATM   17  C19 UNL     1      32.321   5.325  27.384  1.00  0.00     0.027 C
BRANCH  17  18
HETATM   18  C20 UNL     1      33.395   4.329  27.632  1.00  0.00     0.229 C
BRANCH  18  19
HETATM   19  N13 UNL     1      34.713   4.758  27.293  1.00  0.00    -0.079 N
ATOM     20 3H13 UNL     1      34.759   5.777  27.285  1.00  0.00     0.274 HD
ATOM     21 2H13 UNL     1      35.355   4.557  28.061  1.00  0.00     0.274 HD
ATOM     22 1H13 UNL     1      35.082   4.383  26.420  1.00  0.00     0.274 HD
ENDBRANCH  18  19
ENDBRANCH  17  18
ENDBRANCH  16  17
ENDBRANCH  15  16
ENDBRANCH  14  15
ENDBRANCH  12  14
BRANCH  10  23
HETATM   23  C4  UNL     1      26.990  12.598  27.811  1.00  0.00     0.122 C
BRANCH  23  24
HETATM   24  C5  UNL     1      28.435  12.967  27.808  1.00  0.00     0.021 C
BRANCH  24  25
HETATM   25  C6  UNL     1      28.699  14.155  26.959  1.00  0.00     0.022 C
BRANCH  25  26
HETATM   26  C7  UNL     1      30.045  14.007  26.277  1.00  0.00     0.138 C
BRANCH  26  27
HETATM   27  N6  UNL     1      30.655  12.732  26.658  1.00  0.00    -0.224 N
HETATM   28  C8  UNL     1      32.043  12.817  27.028  1.00  0.00     0.707 C
HETATM   29  N7  UNL     1      32.864  12.425  26.120  1.00  0.00    -0.125 N
HETATM   30  N9  UNL     1      32.387  13.304  28.294  1.00  0.00    -0.047 N
HETATM   31  C9  UNL     1      34.248  12.427  26.274  1.00  0.00     0.196 C
ATOM     32  H7  UNL     1      32.480  12.093  25.236  1.00  0.00     0.197 HD
HETATM   33  N8  UNL     1      35.402  12.421  26.421  1.00  0.00    -0.171 NA
ATOM     34  H9  UNL     1      32.611  14.297  28.349  1.00  0.00     0.213 HD
ATOM     35  H6  UNL     1      30.137  11.853  26.662  1.00  0.00     0.177 HD
BRANCH  30  36
HETATM   36  N10 UNL     1      32.460  12.600  29.477  1.00  0.00     0.031 N
HETATM   37  C10 UNL     1      31.986  13.383  30.579  1.00  0.00     0.295 C
HETATM   38  C11 UNL     1      31.738  12.510  31.814  1.00  0.00     0.302 C
HETATM   39  N11 UNL     1      32.496  11.280  31.647  1.00  0.00     0.093 N
HETATM   40  C12 UNL     1      31.841  10.530  30.587  1.00  0.00     0.302 C
HETATM   41  C14 UNL     1      33.838  11.677  31.212  1.00  0.00     0.302 C
HETATM   42  C13 UNL     1      31.710  11.358  29.333  1.00  0.00     0.295 C
HETATM   43  C15 UNL     1      33.823  12.200  29.796  1.00  0.00     0.295 C
ENDBRANCH  30  36
ENDBRANCH  26  27
ENDBRANCH  25  26
ENDBRANCH  24  25
ENDBRANCH  23  24
ENDBRANCH  10  23
TORSDOF 12
ENDMDL