MODEL 4
REMARK VINA RESULT: -6.967949230      1.228      1.398
REMARK  11 active torsions:
REMARK  status: ('A' for Active; 'I' for Inactive)
REMARK       I    between atoms: N1_2  and  C3_4
REMARK    1  A    between atoms: N3_6  and  C4_8
REMARK    2  A    between atoms: C4_8  and  C5_9
REMARK    3  A    between atoms: C5_9  and  C6_10
REMARK    4  A    between atoms: C6_10  and  C7_11
REMARK    5  A    between atoms: C9_16  and  C10_17
REMARK    6  A    between atoms: C10_17  and  C11_18
REMARK    7  A    between atoms: C11_18  and  C12_19
REMARK    8  A    between atoms: C12_19  and  N5_20
REMARK    9  A    between atoms: N9_33  and  C19_34
REMARK   10  A    between atoms: C19_34  and  C20_35
REMARK   11  A    between atoms: C20_35  and  N10_36
ROOT
HETATM    1  C7  UNL     1      30.285  12.531  30.269  1.00  0.00     0.177 C
HETATM    2  N4  UNL     1      30.162  11.075  30.392  1.00  0.00    -0.346 N
ATOM      3  H4  UNL     1      29.631  10.716  31.184  1.00  0.00     0.163 HD
HETATM    4  C8  UNL     1      30.712  10.140  29.515  1.00  0.00     0.241 C
HETATM    5  O1  UNL     1      31.266   9.109  30.046  1.00  0.00    -0.271 OA
HETATM    6  C9  UNL     1      30.706  10.243  28.034  1.00  0.00     0.176 C
HETATM    7  N8  UNL     1      32.042  10.180  27.485  1.00  0.00    -0.348 N
ATOM      8  H8  UNL     1      32.496   9.269  27.549  1.00  0.00     0.163 HD
HETATM    9  C14 UNL     1      32.798  11.181  26.883  1.00  0.00     0.218 C
HETATM   10  O2  UNL     1      33.197  10.944  25.681  1.00  0.00    -0.274 OA
HETATM   11  C15 UNL     1      33.201  12.494  27.463  1.00  0.00     0.106 C
HETATM   12  C16 UNL     1      32.208  13.571  27.164  1.00  0.00     0.038 C
HETATM   13  C17 UNL     1      32.163  14.731  28.039  1.00  0.00    -0.009 C
HETATM   14  C18 UNL     1      32.242  14.884  29.324  1.00  0.00     0.090 C
HETATM   15  N9  UNL     1      32.399  14.026  30.413  1.00  0.00    -0.325 N
HETATM   16  C21 UNL     1      31.582  12.914  30.799  1.00  0.00     0.246 C
HETATM   17  O3  UNL     1      32.028  12.140  31.729  1.00  0.00    -0.271 OA
ENDROOT
BRANCH   1  18
HETATM   18  C6  UNL     1      29.195  13.125  31.154  1.00  0.00     0.036 C
BRANCH  18  19
HETATM   19  C5  UNL     1      28.057  13.712  30.388  1.00  0.00     0.022 C
BRANCH  19  20
HETATM   20  C4  UNL     1      26.835  12.821  30.679  1.00  0.00     0.122 C
BRANCH  20  21
HETATM   21  N3  UNL     1      26.257  12.363  29.445  1.00  0.00    -0.365 N
HETATM   22  C3  UNL     1      26.386  11.157  29.037  1.00  0.00     0.185 C
HETATM   23  N1  UNL     1      25.766  10.804  27.786  1.00  0.00    -0.364 N
HETATM   24  N2  UNL     1      27.110  10.222  29.804  1.00  0.00    -0.064 NA
HETATM   25  C1  UNL     1      25.539   9.416  27.521  1.00  0.00     0.151 C
HETATM   26  C2  UNL     1      25.380  11.792  26.821  1.00  0.00     0.151 C
ATOM     27  H3  UNL     1      25.726  13.022  28.875  1.00  0.00     0.162 HD
ENDBRANCH  20  21
ENDBRANCH  19  20
ENDBRANCH  18  19
ENDBRANCH   1  18
BRANCH  15  28
HETATM   28  C19 UNL     1      33.525  14.258  31.328  1.00  0.00     0.158 C
BRANCH  28  29
HETATM   29  C20 UNL     1      34.709  14.890  30.654  1.00  0.00     0.249 C
BRANCH  29  30
HETATM   30  N10 UNL     1      35.391  15.859  31.441  1.00  0.00    -0.078 N
ATOM     31 3H10 UNL     1      36.038  15.402  32.082  1.00  0.00     0.274 HD
ATOM     32 2H10 UNL     1      36.052  16.382  30.866  1.00  0.00     0.274 HD
ATOM     33 1H10 UNL     1      34.780  16.499  31.950  1.00  0.00     0.274 HD
ENDBRANCH  29  30
ENDBRANCH  28  29
ENDBRANCH  15  28
BRANCH   6  34
HETATM   34  C10 UNL     1      29.875   9.049  27.547  1.00  0.00     0.036 C
BRANCH  34  35
HETATM   35  C11 UNL     1      30.707   8.109  26.708  1.00  0.00     0.022 C
BRANCH  35  36
HETATM   36  C12 UNL     1      30.715   6.776  27.466  1.00  0.00     0.122 C
BRANCH  36  37
HETATM   37  N5  UNL     1      32.048   6.254  27.381  1.00  0.00    -0.367 N
HETATM   38  C13 UNL     1      32.359   5.042  27.695  1.00  0.00     0.196 C
HETATM   39  N6  UNL     1      31.340   4.170  28.150  1.00  0.00    -0.067 NA
HETATM   40  N7  UNL     1      33.682   4.539  27.603  1.00  0.00    -0.067 NA
ATOM     41  H5  UNL     1      32.789   6.874  27.054  1.00  0.00     0.161 HD
ENDBRANCH  36  37
ENDBRANCH  35  36
ENDBRANCH  34  35
ENDBRANCH   6  34
TORSDOF 11
ENDMDL