MODEL 2
REMARK VINA RESULT: -7.302594271      0.537      1.277
REMARK  12 active torsions:
REMARK  status: ('A' for Active; 'I' for Inactive)
REMARK    1  A    between atoms: C2_2  and  C3_3
REMARK    2  A    between atoms: C3_3  and  C5_5
REMARK    3  A    between atoms: C3_3  and  C7_7
REMARK    4  A    between atoms: C8_10  and  O1_11
REMARK    5  A    between atoms: C9_15  and  C10_16
REMARK    6  A    between atoms: C10_16  and  C11_17
REMARK    7  A    between atoms: C11_17  and  C12_18
REMARK    8  A    between atoms: C12_18  and  N3_19
REMARK    9  A    between atoms: C15_28  and  C16_29
REMARK   10  A    between atoms: C16_29  and  C17_30
REMARK   11  A    between atoms: C17_30  and  C18_31
REMARK   12  A    between atoms: C18_31  and  N7_32
ROOT
HETATM    1  C7  UNL     1      31.337  10.421  28.751  1.00  0.00     0.101 C
HETATM    2  N1  UNL     1      31.346  10.242  30.194  1.00  0.00    -0.311 N
ATOM      3  H1  UNL     1      31.818   9.389  30.493  1.00  0.00     0.170 HD
HETATM    4  C8  UNL     1      30.845  10.993  31.249  1.00  0.00     0.218 C
HETATM    5  N2  UNL     1      29.734  11.858  31.376  1.00  0.00    -0.343 N
ATOM      6  H2  UNL     1      29.930  12.784  31.754  1.00  0.00     0.164 HD
HETATM    7  C9  UNL     1      28.354  11.595  31.037  1.00  0.00     0.177 C
HETATM    8  C14 UNL     1      27.886  10.275  31.489  1.00  0.00     0.241 C
HETATM    9  O2  UNL     1      27.550  10.149  32.724  1.00  0.00    -0.271 OA
HETATM   10  N6  UNL     1      27.760   9.110  30.702  1.00  0.00    -0.346 N
ATOM     11  H6  UNL     1      26.857   8.636  30.739  1.00  0.00     0.163 HD
HETATM   12  C15 UNL     1      28.752   8.518  29.859  1.00  0.00     0.177 C
HETATM   13  C20 UNL     1      29.067   9.253  28.615  1.00  0.00     0.247 C
HETATM   14  O3  UNL     1      28.066   9.622  27.914  1.00  0.00    -0.271 OA
HETATM   15  N10 UNL     1      30.345   9.610  28.080  1.00  0.00    -0.309 N
HETATM   16  C21 UNL     1      30.618   9.054  26.730  1.00  0.00     0.160 C
ENDROOT
BRANCH   7  17
HETATM   17  C10 UNL     1      27.382  12.654  31.439  1.00  0.00     0.036 C
BRANCH  17  18
HETATM   18  C11 UNL     1      26.356  13.163  30.540  1.00  0.00     0.022 C
BRANCH  18  19
HETATM   19  C12 UNL     1      24.972  12.595  30.610  1.00  0.00     0.122 C
BRANCH  19  20
HETATM   20  N3  UNL     1      24.482  12.204  29.300  1.00  0.00    -0.367 N
HETATM   21  C13 UNL     1      24.494  11.075  28.764  1.00  0.00     0.196 C
HETATM   22  N4  UNL     1      23.948  10.921  27.453  1.00  0.00    -0.067 NA
HETATM   23  N5  UNL     1      25.039   9.915  29.368  1.00  0.00    -0.067 NA
ATOM     24  H3  UNL     1      24.072  12.953  28.742  1.00  0.00     0.161 HD
ENDBRANCH  19  20
ENDBRANCH  18  19
ENDBRANCH  17  18
ENDBRANCH   7  17
BRANCH   4  25
HETATM   25  O1  UNL     1      31.524  10.897  32.359  1.00  0.00    -0.332 OA
ATOM     26  H1  UNL     1      31.022  11.065  33.148  1.00  0.00     0.220 HD
ENDBRANCH   4  25
BRANCH  12  27
HETATM   27  C16 UNL     1      28.288   7.094  29.525  1.00  0.00     0.036 C
BRANCH  27  28
HETATM   28  C17 UNL     1      29.341   6.059  29.554  1.00  0.00     0.022 C
BRANCH  28  29
HETATM   29  C18 UNL     1      29.562   5.442  28.167  1.00  0.00     0.122 C
BRANCH  29  30
HETATM   30  N7  UNL     1      30.726   4.619  28.092  1.00  0.00    -0.367 N
HETATM   31  C19 UNL     1      31.945   4.977  28.062  1.00  0.00     0.196 C
HETATM   32  N8  UNL     1      32.936   3.940  27.983  1.00  0.00    -0.067 NA
HETATM   33  N9  UNL     1      32.382   6.320  28.104  1.00  0.00    -0.067 NA
ATOM     34  H7  UNL     1      30.559   3.614  28.057  1.00  0.00     0.161 HD
ENDBRANCH  29  30
ENDBRANCH  28  29
ENDBRANCH  27  28
ENDBRANCH  12  27
BRANCH   1  35
HETATM   35  C3  UNL     1      31.752  11.723  28.215  1.00  0.00     0.032 C
HETATM   36  C4  UNL     1      32.540  12.600  29.237  1.00  0.00     0.028 C
BRANCH  35  37
HETATM   37  C2  UNL     1      32.589  11.769  27.003  1.00  0.00    -0.020 C
HETATM   38  C1  UNL     1      33.637  12.564  26.813  1.00  0.00     0.008 C
ENDBRANCH  35  37
BRANCH  35  39
HETATM   39  C5  UNL     1      30.567  12.661  27.936  1.00  0.00     0.016 C
HETATM   40  C6  UNL     1      30.548  13.946  28.643  1.00  0.00     0.006 C
ENDBRANCH  35  39
ENDBRANCH   1  35
TORSDOF 12
ENDMDL