MODEL 3
REMARK VINA RESULT: -6.875052125      1.155      1.376
REMARK  11 active torsions:
REMARK  status: ('A' for Active; 'I' for Inactive)
REMARK    1  A    between atoms: C2_2  and  N1_3
REMARK    2  A    between atoms: C5_9  and  C6_10
REMARK    3  A    between atoms: C6_10  and  C7_11
REMARK    4  A    between atoms: C7_11  and  C8_12
REMARK    5  A    between atoms: C8_12  and  N3_13
REMARK    6  A    between atoms: C11_22  and  C12_23
REMARK    7  A    between atoms: C12_23  and  C13_24
REMARK    8  A    between atoms: C17_31  and  C18_32
REMARK    9  A    between atoms: C18_32  and  C19_33
REMARK   10  A    between atoms: C19_33  and  C20_34
REMARK   11  A    between atoms: C20_34  and  N8_35
ROOT
HETATM    1  N1  UNL     1      26.923  11.484  28.801  1.00  0.00    -0.342 N
HETATM    2  C3  UNL     1      26.658  10.077  28.600  1.00  0.00     0.185 C
HETATM    3  N2  UNL     1      27.634   9.369  27.848  1.00  0.00    -0.321 N
ATOM      4  H2  UNL     1      27.273   8.894  27.020  1.00  0.00     0.169 HD
HETATM    5  C4  UNL     1      29.007   9.218  28.058  1.00  0.00     0.245 C
HETATM    6  O1  UNL     1      29.767   9.441  27.048  1.00  0.00    -0.271 OA
HETATM    7  C5  UNL     1      29.718   8.832  29.296  1.00  0.00     0.177 C
HETATM    8  N6  UNL     1      28.984   9.110  30.509  1.00  0.00    -0.346 N
ATOM      9  H6  UNL     1      28.276   8.424  30.773  1.00  0.00     0.163 HD
HETATM   10  C10 UNL     1      29.128  10.198  31.356  1.00  0.00     0.241 C
HETATM   11  O2  UNL     1      29.177  10.028  32.617  1.00  0.00    -0.271 OA
HETATM   12  C11 UNL     1      29.240  11.645  30.918  1.00  0.00     0.177 C
HETATM   13  N7  UNL     1      28.124  12.348  31.501  1.00  0.00    -0.343 N
ATOM     14  H7  UNL     1      28.195  12.558  32.497  1.00  0.00     0.163 HD
HETATM   15  C16 UNL     1      26.960  12.773  30.866  1.00  0.00     0.265 C
HETATM   16  O3  UNL     1      26.509  13.938  31.187  1.00  0.00    -0.266 OA
HETATM   17  C17 UNL     1      26.154  12.052  29.850  1.00  0.00     0.080 C
ENDROOT
BRANCH   7  18
HETATM   18  C6  UNL     1      30.043   7.344  29.292  1.00  0.00     0.036 C
BRANCH  18  19
HETATM   19  C7  UNL     1      29.035   6.532  28.525  1.00  0.00     0.022 C
BRANCH  19  20
HETATM   20  C8  UNL     1      29.591   5.153  28.176  1.00  0.00     0.122 C
BRANCH  20  21
HETATM   21  N3  UNL     1      30.975   5.352  27.788  1.00  0.00    -0.367 N
HETATM   22  C9  UNL     1      31.924   4.725  28.361  1.00  0.00     0.196 C
HETATM   23  N4  UNL     1      33.266   4.928  27.972  1.00  0.00    -0.067 NA
HETATM   24  N5  UNL     1      31.642   3.814  29.398  1.00  0.00    -0.067 NA
ATOM     25  H3  UNL     1      31.193   6.010  27.039  1.00  0.00     0.161 HD
ENDBRANCH  20  21
ENDBRANCH  19  20
ENDBRANCH  18  19
ENDBRANCH   7  18
BRANCH  12  26
HETATM   26  C12 UNL     1      30.577  12.070  31.410  1.00  0.00     0.038 C
BRANCH  26  27
HETATM   27  C13 UNL     1      31.777  11.442  30.852  1.00  0.00    -0.020 C
HETATM   28  C14 UNL     1      32.915  11.228  31.816  1.00  0.00     0.009 C
HETATM   29  C15 UNL     1      32.341  12.097  29.619  1.00  0.00     0.009 C
ENDBRANCH  26  27
ENDBRANCH  12  26
BRANCH   1  30
HETATM   30  C2  UNL     1      27.123  12.210  27.607  1.00  0.00     0.125 C
HETATM   31  C1  UNL     1      28.423  12.881  27.378  1.00  0.00     0.027 C
ENDBRANCH   1  30
BRANCH  17  32
HETATM   32  C18 UNL     1      24.918  12.787  29.511  1.00  0.00     0.065 C
BRANCH  32  33
HETATM   33  C19 UNL     1      23.619  12.206  29.895  1.00  0.00     0.026 C
BRANCH  33  34
HETATM   34  C20 UNL     1      22.896  11.606  28.675  1.00  0.00     0.122 C
BRANCH  34  35
HETATM   35  N8  UNL     1      22.946  10.174  28.703  1.00  0.00    -0.367 N
HETATM   36  C21 UNL     1      23.106   9.444  27.665  1.00  0.00     0.196 C
HETATM   37  N9  UNL     1      23.140   8.044  27.802  1.00  0.00    -0.067 NA
HETATM   38  N10 UNL     1      23.244  10.059  26.400  1.00  0.00    -0.067 NA
ATOM     39  H8  UNL     1      22.848   9.708  29.605  1.00  0.00     0.161 HD
ENDBRANCH  34  35
ENDBRANCH  33  34
ENDBRANCH  32  33
ENDBRANCH  17  32
TORSDOF 11
ENDMDL