MODEL 5
REMARK VINA RESULT: -7.312581611      1.947      2.556
REMARK  11 active torsions:
REMARK  status: ('A' for Active; 'I' for Inactive)
REMARK       I    between atoms: C1_4  and  N3_6
REMARK    1  A    between atoms: C5_10  and  N4_11
REMARK       I    between atoms: N4_11  and  C6_13
REMARK    2  A    between atoms: C6_13  and  C7_15
REMARK    3  A    between atoms: C7_15  and  C8_16
REMARK    4  A    between atoms: C7_15  and  N8_24
REMARK    5  A    between atoms: C8_16  and  C9_17
REMARK    6  A    between atoms: C9_17  and  C10_18
REMARK    7  A    between atoms: C10_18  and  N5_19
REMARK    8  A    between atoms: C15_28  and  C16_29
REMARK    9  A    between atoms: C16_29  and  C17_30
REMARK   10  A    between atoms: C17_30  and  C18_31
REMARK   11  A    between atoms: C18_31  and  N9_32
ROOT
HETATM    1  C7  UNL     1      29.314   9.261  28.111  1.00  0.00     0.179 C
ENDROOT
BRANCH   1   2
HETATM    2  C6  UNL     1      27.982   9.463  28.574  1.00  0.00     0.241 C
HETATM    3  N4  UNL     1      27.001  10.409  28.246  1.00  0.00    -0.353 N
ATOM      4  H4  UNL     1      27.243  11.109  27.544  1.00  0.00     0.163 HD
HETATM    5  O1  UNL     1      27.556   8.638  29.469  1.00  0.00    -0.271 OA
BRANCH   3   6
HETATM    6  C5  UNL     1      25.671  10.476  28.821  1.00  0.00     0.102 C
HETATM    7  C4  UNL     1      25.326  11.916  29.203  1.00  0.00     0.028 C
HETATM    8  C3  UNL     1      24.043  11.901  30.006  1.00  0.00     0.022 C
HETATM    9  C2  UNL     1      22.948  11.138  29.314  1.00  0.00     0.125 C
HETATM   10  N3  UNL     1      23.360  10.680  28.011  1.00  0.00    -0.354 N
HETATM   11  C1  UNL     1      22.485  10.851  26.912  1.00  0.00     0.184 C
HETATM   12  C21 UNL     1      24.637  10.056  27.800  1.00  0.00     0.150 C
HETATM   13  N1  UNL     1      21.284  10.396  27.013  1.00  0.00    -0.374 N
HETATM   14  N2  UNL     1      22.921  11.512  25.721  1.00  0.00    -0.064 NA
ATOM     15  H12 UNL     1      20.653  10.519  26.220  1.00  0.00     0.158 HD
ATOM     16  H11 UNL     1      20.973   9.925  27.862  1.00  0.00     0.158 HD
ENDBRANCH   3   6
ENDBRANCH   1   2
BRANCH   1  17
HETATM   17  C8  UNL     1      30.164   8.599  29.177  1.00  0.00     0.037 C
BRANCH  17  18
HETATM   18  C9  UNL     1      30.951   7.425  28.677  1.00  0.00     0.022 C
BRANCH  18  19
HETATM   19  C10 UNL     1      30.016   6.265  28.319  1.00  0.00     0.122 C
BRANCH  19  20
HETATM   20  N5  UNL     1      30.123   5.207  29.306  1.00  0.00    -0.367 N
HETATM   21  C11 UNL     1      31.059   4.320  29.249  1.00  0.00     0.196 C
HETATM   22  N6  UNL     1      32.057   4.264  28.264  1.00  0.00    -0.067 NA
HETATM   23  N7  UNL     1      31.054   3.331  30.281  1.00  0.00    -0.067 NA
ATOM     24  H5  UNL     1      29.442   5.162  30.064  1.00  0.00     0.161 HD
ENDBRANCH  19  20
ENDBRANCH  18  19
ENDBRANCH  17  18
ENDBRANCH   1  17
BRANCH   1  25
HETATM   25  N8  UNL     1      30.085  10.365  27.639  1.00  0.00    -0.338 N
HETATM   26  C12 UNL     1      30.422  11.582  28.272  1.00  0.00     0.127 C
HETATM   27  C13 UNL     1      30.183  12.798  27.420  1.00  0.00     0.021 C
HETATM   28  C14 UNL     1      30.361  12.574  25.942  1.00  0.00     0.015 C
HETATM   29  C15 UNL     1      31.305  11.409  25.731  1.00  0.00     0.078 C
HETATM   30  C20 UNL     1      30.638  10.228  26.327  1.00  0.00     0.224 C
HETATM   31  O2  UNL     1      30.597   9.175  25.649  1.00  0.00    -0.273 OA
BRANCH  29  32
HETATM   32  C16 UNL     1      31.726  11.247  24.315  1.00  0.00     0.015 C
BRANCH  32  33
HETATM   33  C17 UNL     1      33.172  11.391  24.021  1.00  0.00     0.020 C
BRANCH  33  34
HETATM   34  C18 UNL     1      33.720  12.652  24.697  1.00  0.00     0.122 C
BRANCH  34  35
HETATM   35  N9  UNL     1      35.101  12.884  24.404  1.00  0.00    -0.367 N
HETATM   36  C19 UNL     1      36.056  12.920  25.262  1.00  0.00     0.196 C
HETATM   37  N10 UNL     1      37.371  13.165  24.785  1.00  0.00    -0.067 NA
HETATM   38  N11 UNL     1      35.842  12.726  26.645  1.00  0.00    -0.067 NA
ATOM     39  H9  UNL     1      35.350  13.035  23.427  1.00  0.00     0.161 HD
ENDBRANCH  34  35
ENDBRANCH  33  34
ENDBRANCH  32  33
ENDBRANCH  29  32
ENDBRANCH   1  25
TORSDOF 11
ENDMDL