MODEL 1
REMARK VINA RESULT: -7.754382353      0.000      0.000
REMARK  10 active torsions:
REMARK  status: ('A' for Active; 'I' for Inactive)
REMARK    1  A    between atoms: C2_2  and  C3_3
REMARK    2  A    between atoms: C4_4  and  C5_5
REMARK    3  A    between atoms: C12_14  and  C13_15
REMARK    4  A    between atoms: C13_15  and  C14_16
REMARK    5  A    between atoms: C14_16  and  C15_17
REMARK    6  A    between atoms: C15_17  and  N2_18
REMARK    7  A    between atoms: C18_27  and  C19_28
REMARK    8  A    between atoms: C19_28  and  C20_29
REMARK    9  A    between atoms: C20_29  and  C21_30
REMARK   10  A    between atoms: C21_30  and  N6_31
ROOT
HETATM    1  C3  UNL     1      30.291  12.944  31.220  1.00  0.00     0.048 C
HETATM    2  C4  UNL     1      31.788  12.707  31.381  1.00  0.00     0.085 C
HETATM    3  C6  UNL     1      31.896  11.281  31.838  1.00  0.00     0.017 C
HETATM    4  C7  UNL     1      30.630  10.623  31.459  1.00  0.00     0.033 C
HETATM    5  C8  UNL     1      29.795  11.587  30.696  1.00  0.00     0.043 C
HETATM    6  C9  UNL     1      28.373  11.420  31.199  1.00  0.00     0.058 C
HETATM    7  C10 UNL     1      27.422  12.453  30.778  1.00  0.00    -0.027 C
HETATM    8  C11 UNL     1      26.662  12.521  29.713  1.00  0.00    -0.017 C
HETATM    9  C12 UNL     1      26.503  11.594  28.584  1.00  0.00     0.100 C
HETATM   10  C17 UNL     1      26.517  10.157  28.925  1.00  0.00     0.226 C
HETATM   11  O2  UNL     1      25.559   9.782  29.698  1.00  0.00    -0.273 OA
HETATM   12  N5  UNL     1      27.442   9.185  28.507  1.00  0.00    -0.347 N
ATOM     13  H5  UNL     1      27.057   8.388  28.001  1.00  0.00     0.163 HD
HETATM   14  C18 UNL     1      28.872   9.180  28.706  1.00  0.00     0.176 C
HETATM   15  C23 UNL     1      29.548  10.448  28.416  1.00  0.00     0.241 C
HETATM   16  O3  UNL     1      29.826  10.612  27.168  1.00  0.00    -0.271 OA
HETATM   17  N9  UNL     1      29.931  11.489  29.274  1.00  0.00    -0.349 N
ATOM     18  H9  UNL     1      30.371  12.290  28.821  1.00  0.00     0.163 HD
ENDROOT
BRANCH   1  19
HETATM   19  C2  UNL     1      30.080  14.055  30.296  1.00  0.00    -0.029 C
HETATM   20  C1  UNL     1      29.710  15.253  30.701  1.00  0.00     0.007 C
ENDBRANCH   1  19
BRANCH   2  21
HETATM   21  C5  UNL     1      32.359  13.583  32.431  1.00  0.00     0.236 C
HETATM   22  N1  UNL     1      31.784  13.661  33.727  1.00  0.00    -0.062 NA
HETATM   23  O1  UNL     1      33.383  14.297  32.210  1.00  0.00    -0.276 OA
ENDBRANCH   2  21
BRANCH  14  24
HETATM   24  C19 UNL     1      29.445   8.068  27.794  1.00  0.00     0.036 C
BRANCH  24  25
HETATM   25  C20 UNL     1      30.636   7.397  28.421  1.00  0.00     0.022 C
BRANCH  25  26
HETATM   26  C21 UNL     1      30.938   6.126  27.666  1.00  0.00     0.122 C
BRANCH  26  27
HETATM   27  N6  UNL     1      32.352   5.892  27.528  1.00  0.00    -0.367 N
HETATM   28  C22 UNL     1      32.940   4.866  28.042  1.00  0.00     0.196 C
HETATM   29  N7  UNL     1      34.335   4.661  27.891  1.00  0.00    -0.067 NA
HETATM   30  N8  UNL     1      32.147   3.943  28.767  1.00  0.00    -0.067 NA
ATOM     31  H6  UNL     1      32.910   6.565  27.003  1.00  0.00     0.161 HD
ENDBRANCH  26  27
ENDBRANCH  25  26
ENDBRANCH  24  25
ENDBRANCH  14  24
BRANCH   9  32
HETATM   32  C13 UNL     1      25.266  11.958  27.786  1.00  0.00     0.019 C
BRANCH  32  33
HETATM   33  C14 UNL     1      24.181  12.634  28.529  1.00  0.00     0.021 C
BRANCH  33  34
HETATM   34  C15 UNL     1      22.895  11.837  28.207  1.00  0.00     0.122 C
BRANCH  34  35
HETATM   35  N2  UNL     1      23.085  10.441  28.483  1.00  0.00    -0.367 N
HETATM   36  C16 UNL     1      22.814   9.583  27.566  1.00  0.00     0.196 C
HETATM   37  N3  UNL     1      22.985   8.189  27.788  1.00  0.00    -0.067 NA
HETATM   38  N4  UNL     1      22.335  10.008  26.301  1.00  0.00    -0.067 NA
ATOM     39  H2  UNL     1      23.429  10.136  29.393  1.00  0.00     0.161 HD
ENDBRANCH  34  35
ENDBRANCH  33  34
ENDBRANCH  32  33
ENDBRANCH   9  32
TORSDOF 10
ENDMDL