MODEL 4
REMARK VINA RESULT: -7.684530600      2.963      5.439
REMARK  12 active torsions:
REMARK  status: ('A' for Active; 'I' for Inactive)
REMARK    1  A    between atoms: C3_3  and  N1_4
REMARK    2  A    between atoms: C6_7  and  N2_8
REMARK    3  A    between atoms: N2_8  and  C7_11
REMARK    4  A    between atoms: C7_11  and  C8_12
REMARK    5  A    between atoms: C8_12  and  C9_14
REMARK    6  A    between atoms: C9_14  and  C10_15
REMARK    7  A    between atoms: C12_19  and  N4_20
REMARK    8  A    between atoms: C14_29  and  C15_30
REMARK    9  A    between atoms: C15_30  and  C16_31
REMARK   10  A    between atoms: C16_31  and  C17_32
REMARK   11  A    between atoms: C17_32  and  N7_33
REMARK   12  A    between atoms: C21_41  and  C22_42
ROOT
HETATM    1  C1  UNL     1      33.550  10.669  32.081  1.00  0.00     0.014 C
HETATM    2  C2  UNL     1      32.955  11.639  31.675  1.00  0.00    -0.098 C
HETATM    3  C3  UNL     1      32.199  12.820  31.186  1.00  0.00     0.215 C
ENDROOT
BRANCH   3   4
HETATM    4  N1  UNL     1      31.589  12.487  29.925  1.00  0.00    -0.377 N
HETATM    5  C4  UNL     1      32.598  12.259  28.892  1.00  0.00     0.150 C
HETATM    6  C5  UNL     1      30.334  12.390  29.696  1.00  0.00     0.057 C
HETATM    7  C6  UNL     1      30.027  12.021  28.249  1.00  0.00     0.325 C
HETATM    8  C21 UNL     1      29.369  12.642  30.772  1.00  0.00     0.244 C
HETATM    9  C13 UNL     1      28.546  12.003  28.135  1.00  0.00     0.259 C
HETATM   10  O2  UNL     1      27.998  10.951  27.637  1.00  0.00    -0.270 OA
HETATM   11  N6  UNL     1      27.645  13.019  28.516  1.00  0.00    -0.308 N
HETATM   12  C14 UNL     1      27.539  13.863  29.669  1.00  0.00     0.187 C
ATOM     13  H6  UNL     1      26.915  13.190  27.825  1.00  0.00     0.170 HD
HETATM   14  N10 UNL     1      28.598  13.842  30.606  1.00  0.00    -0.024 N
HETATM   15  C19 UNL     1      29.585  14.904  30.267  1.00  0.00     0.281 C
HETATM   16  C20 UNL     1      28.191  14.269  31.956  1.00  0.00     0.281 C
BRANCH   7  17
HETATM   17  N2  UNL     1      30.694  10.861  27.796  1.00  0.00    -0.051 N
ATOM     18  H22 UNL     1      30.615  10.758  26.784  1.00  0.00     0.279 HD
ATOM     19  H21 UNL     1      31.706  10.963  27.867  1.00  0.00     0.279 HD
BRANCH  17  20
HETATM   20  C7  UNL     1      30.237   9.689  28.478  1.00  0.00     0.312 C
BRANCH  20  21
HETATM   21  C8  UNL     1      30.209   8.466  27.616  1.00  0.00     0.158 C
HETATM   22  O1  UNL     1      30.482   8.552  26.453  1.00  0.00    -0.296 OA
BRANCH  21  23
HETATM   23  C9  UNL     1      29.847   7.174  28.217  1.00  0.00     0.139 C
BRANCH  23  24
HETATM   24  C10 UNL     1      30.922   6.162  28.110  1.00  0.00     0.049 A
HETATM   25  C11 UNL     1      30.975   4.974  28.873  1.00  0.00     0.132 A
HETATM   26  N3  UNL     1      32.071   4.274  28.552  1.00  0.00    -0.200 N
HETATM   27  C12 UNL     1      32.722   4.980  27.601  1.00  0.00     0.675 A
ATOM     28  H3  UNL     1      32.359   3.379  28.949  1.00  0.00     0.183 HD
HETATM   29  N5  UNL     1      32.021   6.106  27.349  1.00  0.00    -0.194 N
ATOM     30  H5  UNL     1      32.292   6.817  26.670  1.00  0.00     0.184 HD
BRANCH  27  31
HETATM   31  N4  UNL     1      33.821   4.602  27.061  1.00  0.00    -0.234 N
ATOM     32  H42 UNL     1      34.211   3.660  27.030  1.00  0.00     0.174 HD
ATOM     33  H41 UNL     1      34.461   5.232  26.578  1.00  0.00     0.174 HD
ENDBRANCH  27  31
ENDBRANCH  23  24
ENDBRANCH  21  23
ENDBRANCH  20  21
ENDBRANCH  17  20
ENDBRANCH   7  17
BRANCH  12  34
HETATM   34  C15 UNL     1      26.162  14.103  30.192  1.00  0.00     0.089 C
BRANCH  34  35
HETATM   35  C16 UNL     1      25.225  13.008  30.428  1.00  0.00     0.052 C
BRANCH  35  36
HETATM   36  C17 UNL     1      24.407  12.490  29.302  1.00  0.00     0.063 C
BRANCH  36  37
HETATM   37  N7  UNL     1      24.778  11.295  28.680  1.00  0.00    -0.347 N
HETATM   38  C18 UNL     1      24.377  10.118  28.659  1.00  0.00     0.200 C
HETATM   39  N8  UNL     1      23.268   9.570  29.364  1.00  0.00    -0.067 NA
HETATM   40  N9  UNL     1      25.096   9.178  27.844  1.00  0.00    -0.067 NA
ATOM     41  H7  UNL     1      25.596  11.421  28.084  1.00  0.00     0.167 HD
ENDBRANCH  36  37
ENDBRANCH  35  36
ENDBRANCH  34  35
ENDBRANCH  12  34
BRANCH   8  42
HETATM   42  C22 UNL     1      28.506  11.465  31.158  1.00  0.00     0.035 C
HETATM   43  C23 UNL     1      29.288  10.344  31.825  1.00  0.00     0.007 C
ENDBRANCH   8  42
ENDBRANCH   3   4
TORSDOF 12
ENDMDL