MODEL 5
REMARK VINA RESULT: -6.705847061      2.600      5.549
REMARK  11 active torsions:
REMARK  status: ('A' for Active; 'I' for Inactive)
REMARK    1  A    between atoms: C2_2  and  N1_3
REMARK    2  A    between atoms: C3_4  and  C4_5
REMARK    3  A    between atoms: C4_5  and  C5_6
REMARK    4  A    between atoms: C5_6  and  C6_7
REMARK    5  A    between atoms: C6_7  and  N2_8
REMARK    6  A    between atoms: C9_17  and  C10_18
REMARK    7  A    between atoms: C10_18  and  C11_19
REMARK    8  A    between atoms: C11_19  and  C12_20
REMARK    9  A    between atoms: C12_20  and  N6_21
REMARK       I    between atoms: N6_21  and  C13_23
REMARK   10  A    between atoms: N10_38  and  C20_39
REMARK   11  A    between atoms: C20_39  and  C21_40
ROOT
HETATM    1  N1  UNL     1      30.743  13.450  30.055  1.00  0.00    -0.286 N
HETATM    2  C3  UNL     1      31.716  12.494  29.886  1.00  0.00     0.096 C
HETATM    3  C8  UNL     1      31.601  11.176  30.505  1.00  0.00     0.266 C
HETATM    4  O1  UNL     1      31.993  11.063  31.722  1.00  0.00    -0.266 OA
HETATM    5  N5  UNL     1      31.094  10.009  29.879  1.00  0.00    -0.343 N
ATOM      6  H5  UNL     1      31.565   9.129  30.088  1.00  0.00     0.163 HD
HETATM    7  C9  UNL     1      29.973   9.954  28.974  1.00  0.00     0.177 C
HETATM    8  C14 UNL     1      28.895   9.136  29.563  1.00  0.00     0.240 C
HETATM    9  O2  UNL     1      29.142   8.383  30.527  1.00  0.00    -0.271 OA
HETATM   10  N9  UNL     1      27.565   9.177  29.064  1.00  0.00    -0.359 N
ATOM     11  H9  UNL     1      27.047   8.309  28.931  1.00  0.00     0.162 HD
HETATM   12  C15 UNL     1      26.932  10.457  28.739  1.00  0.00     0.122 C
HETATM   13  C16 UNL     1      26.538  11.153  30.020  1.00  0.00     0.020 C
HETATM   14  C17 UNL     1      27.115  12.564  30.121  1.00  0.00     0.011 C
HETATM   15  C18 UNL     1      28.037  12.572  31.322  1.00  0.00     0.105 C
HETATM   16  C19 UNL     1      28.814  13.816  31.464  1.00  0.00     0.238 C
HETATM   17  O3  UNL     1      28.152  14.834  31.903  1.00  0.00    -0.272 OA
HETATM   18  N10 UNL     1      30.197  13.963  31.161  1.00  0.00    -0.254 N
ENDROOT
BRANCH   7  19
HETATM   19  C10 UNL     1      30.282   9.745  27.549  1.00  0.00     0.036 C
BRANCH  19  20
HETATM   20  C11 UNL     1      30.362   8.407  26.966  1.00  0.00     0.022 C
BRANCH  20  21
HETATM   21  C12 UNL     1      31.519   7.545  27.391  1.00  0.00     0.122 C
BRANCH  21  22
HETATM   22  N6  UNL     1      31.106   6.683  28.512  1.00  0.00    -0.365 N
HETATM   23  C13 UNL     1      30.869   5.297  28.363  1.00  0.00     0.181 C
HETATM   24  N7  UNL     1      29.745   4.829  27.954  1.00  0.00    -0.374 N
HETATM   25  N8  UNL     1      31.956   4.424  28.695  1.00  0.00    -0.064 NA
ATOM     26  H72 UNL     1      28.971   5.450  27.718  1.00  0.00     0.158 HD
ATOM     27  H71 UNL     1      29.573   3.830  27.846  1.00  0.00     0.158 HD
ATOM     28  H6  UNL     1      30.987   7.104  29.434  1.00  0.00     0.162 HD
ENDBRANCH  21  22
ENDBRANCH  20  21
ENDBRANCH  19  20
ENDBRANCH   7  19
BRANCH   2  29
HETATM   29  C4  UNL     1      33.164  12.967  29.969  1.00  0.00     0.066 C
BRANCH  29  30
HETATM   30  C5  UNL     1      34.062  12.239  28.991  1.00  0.00     0.026 C
BRANCH  30  31
HETATM   31  C6  UNL     1      33.660  12.625  27.585  1.00  0.00     0.122 C
BRANCH  31  32
HETATM   32  N2  UNL     1      33.302  11.465  26.792  1.00  0.00    -0.367 N
HETATM   33  C7  UNL     1      32.840  11.666  25.617  1.00  0.00     0.196 C
HETATM   34  N3  UNL     1      32.670  12.993  25.074  1.00  0.00    -0.067 NA
HETATM   35  N4  UNL     1      32.473  10.562  24.796  1.00  0.00    -0.067 NA
ATOM     36  H2  UNL     1      33.416  10.520  27.159  1.00  0.00     0.161 HD
ENDBRANCH  31  32
ENDBRANCH  30  31
ENDBRANCH  29  30
ENDBRANCH   2  29
BRANCH   1  37
HETATM   37  C2  UNL     1      30.773  14.438  28.957  1.00  0.00     0.145 C
HETATM   38  C1  UNL     1      30.111  13.884  27.747  1.00  0.00     0.028 C
ENDBRANCH   1  37
BRANCH  18  39
HETATM   39  C20 UNL     1      30.950  14.803  32.073  1.00  0.00     0.196 C
BRANCH  39  40
HETATM   40  C21 UNL     1      31.323  14.224  33.354  1.00  0.00     0.074 C
HETATM   41  N11 UNL     1      32.355  13.490  33.471  1.00  0.00    -0.410 N
ATOM     42 2H11 UNL     1      32.920  13.313  32.640  1.00  0.00     0.155 HD
ATOM     43 1H11 UNL     1      32.616  13.084  34.369  1.00  0.00     0.155 HD
ENDBRANCH  39  40
ENDBRANCH  18  39
TORSDOF 11
ENDMDL