MODEL 1
REMARK VINA RESULT: -7.236264710      0.000      0.000
REMARK  11 active torsions:
REMARK  status: ('A' for Active; 'I' for Inactive)
REMARK    1  A    between atoms: C2_2  and  C4_4
REMARK    2  A    between atoms: C4_4  and  C5_5
REMARK    3  A    between atoms: C5_5  and  N1_6
REMARK    4  A    between atoms: C9_13  and  C10_14
REMARK    5  A    between atoms: C10_14  and  C11_15
REMARK    6  A    between atoms: C11_15  and  C12_16
REMARK    7  A    between atoms: C12_16  and  N3_17
REMARK    8  A    between atoms: C15_26  and  C16_27
REMARK    9  A    between atoms: C16_27  and  C17_28
REMARK   10  A    between atoms: C17_28  and  C18_29
REMARK   11  A    between atoms: C18_29  and  N7_30
ROOT
HETATM    1  N1  UNL     1      29.875  11.969  27.445  1.00  0.00    -0.312 N
HETATM    2  C6  UNL     1      28.539  12.177  27.679  1.00  0.00     0.088 C
HETATM    3  C7  UNL     1      27.585  13.135  27.200  1.00  0.00     0.167 C
HETATM    4  N2  UNL     1      26.278  12.760  27.714  1.00  0.00    -0.355 N
ATOM      5  H2  UNL     1      25.519  13.347  27.367  1.00  0.00     0.162 HD
HETATM    6  C8  UNL     1      25.854  11.756  28.588  1.00  0.00     0.240 C
HETATM    7  O1  UNL     1      25.361  12.178  29.713  1.00  0.00    -0.271 OA
HETATM    8  C9  UNL     1      25.848  10.297  28.492  1.00  0.00     0.177 C
HETATM    9  N6  UNL     1      26.527   9.572  29.531  1.00  0.00    -0.343 N
ATOM     10  H6  UNL     1      25.906   8.940  30.037  1.00  0.00     0.163 HD
HETATM   11  C14 UNL     1      27.824   9.532  30.003  1.00  0.00     0.265 C
HETATM   12  O2  UNL     1      27.970   9.826  31.259  1.00  0.00    -0.266 OA
HETATM   13  C15 UNL     1      29.125   9.210  29.344  1.00  0.00     0.083 C
HETATM   14  N10 UNL     1      30.088  10.278  29.391  1.00  0.00    -0.302 N
HETATM   15  C20 UNL     1      30.683  10.507  30.760  1.00  0.00     0.161 C
HETATM   16  C21 UNL     1      30.586  11.126  28.396  1.00  0.00     0.328 C
HETATM   17  O3  UNL     1      31.873  11.199  28.276  1.00  0.00    -0.246 OA
ENDROOT
BRANCH   8  18
HETATM   18  C10 UNL     1      24.352   9.884  28.499  1.00  0.00     0.036 C
BRANCH  18  19
HETATM   19  C11 UNL     1      23.703   9.979  27.191  1.00  0.00     0.022 C
BRANCH  19  20
HETATM   20  C12 UNL     1      22.529  10.927  27.300  1.00  0.00     0.122 C
BRANCH  20  21
HETATM   21  N3  UNL     1      22.075  11.392  26.021  1.00  0.00    -0.367 N
HETATM   22  C13 UNL     1      22.560  12.458  25.459  1.00  0.00     0.196 C
HETATM   23  N4  UNL     1      22.037  12.836  24.181  1.00  0.00    -0.067 NA
HETATM   24  N5  UNL     1      23.578  13.237  26.079  1.00  0.00    -0.067 NA
ATOM     25  H3  UNL     1      21.347  10.868  25.536  1.00  0.00     0.161 HD
ENDBRANCH  20  21
ENDBRANCH  19  20
ENDBRANCH  18  19
ENDBRANCH   8  18
BRANCH  13  26
HETATM   26  C16 UNL     1      29.020   8.403  28.111  1.00  0.00     0.065 C
BRANCH  26  27
HETATM   27  C17 UNL     1      30.276   7.816  27.578  1.00  0.00     0.026 C
BRANCH  27  28
HETATM   28  C18 UNL     1      30.901   6.796  28.508  1.00  0.00     0.122 C
BRANCH  28  29
HETATM   29  N7  UNL     1      32.101   6.295  27.883  1.00  0.00    -0.367 N
HETATM   30  C19 UNL     1      32.492   5.075  28.086  1.00  0.00     0.196 C
HETATM   31  N8  UNL     1      31.726   4.233  28.933  1.00  0.00    -0.067 NA
HETATM   32  N9  UNL     1      33.665   4.559  27.484  1.00  0.00    -0.067 NA
ATOM     33  H7  UNL     1      32.647   6.907  27.275  1.00  0.00     0.161 HD
ENDBRANCH  28  29
ENDBRANCH  27  28
ENDBRANCH  26  27
ENDBRANCH  13  26
BRANCH   1  34
HETATM   34  C5  UNL     1      30.678  12.407  26.334  1.00  0.00     0.133 C
BRANCH  34  35
HETATM   35  C4  UNL     1      30.299  11.840  25.020  1.00  0.00     0.024 C
BRANCH  35  36
HETATM   36  C2  UNL     1      30.972  10.627  24.527  1.00  0.00    -0.021 C
HETATM   37  C1  UNL     1      32.444  10.586  24.889  1.00  0.00     0.009 C
HETATM   38  C3  UNL     1      30.889  10.648  22.996  1.00  0.00     0.009 C
ENDBRANCH  35  36
ENDBRANCH  34  35
ENDBRANCH   1  34
TORSDOF 11
ENDMDL