MODEL 3
REMARK VINA RESULT: -6.773205500      2.325      6.840
REMARK  12 active torsions:
REMARK  status: ('A' for Active; 'I' for Inactive)
REMARK    1  A    between atoms: C2_2  and  N1_3
REMARK    2  A    between atoms: C3_4  and  O1_5
REMARK    3  A    between atoms: C4_7  and  C5_8
REMARK    4  A    between atoms: C5_8  and  C6_9
REMARK    5  A    between atoms: C6_9  and  C7_10
REMARK    6  A    between atoms: C7_10  and  N2_11
REMARK    7  A    between atoms: C10_20  and  C11_21
REMARK    8  A    between atoms: C11_21  and  C12_22
REMARK    9  A    between atoms: C16_29  and  C17_30
REMARK   10  A    between atoms: C17_30  and  C18_31
REMARK   11  A    between atoms: C18_31  and  C19_32
REMARK   12  A    between atoms: C19_32  and  N7_33
ROOT
HETATM    1  N1  UNL     1      28.949  11.005  29.753  1.00  0.00    -0.340 N
HETATM    2  C3  UNL     1      28.453  10.384  28.592  1.00  0.00     0.163 C
HETATM    3  C4  UNL     1      28.820   9.197  27.858  1.00  0.00     0.063 C
HETATM    4  N5  UNL     1      29.986   9.147  27.053  1.00  0.00    -0.325 N
ATOM      5  H5  UNL     1      30.117   8.225  26.637  1.00  0.00     0.169 HD
HETATM    6  C9  UNL     1      30.982  10.014  26.689  1.00  0.00     0.244 C
HETATM    7  O2  UNL     1      32.182   9.577  26.700  1.00  0.00    -0.271 OA
HETATM    8  C10 UNL     1      30.864  11.461  26.258  1.00  0.00     0.177 C
HETATM    9  N6  UNL     1      32.138  12.081  26.461  1.00  0.00    -0.346 N
ATOM     10  H6  UNL     1      32.778  12.036  25.668  1.00  0.00     0.163 HD
HETATM   11  C15 UNL     1      32.631  12.741  27.591  1.00  0.00     0.240 C
HETATM   12  O3  UNL     1      33.461  13.689  27.360  1.00  0.00    -0.271 OA
HETATM   13  C16 UNL     1      32.270  12.427  29.018  1.00  0.00     0.171 C
HETATM   14  N10 UNL     1      30.910  12.176  29.048  1.00  0.00    -0.389 N
ATOM     15  H10 UNL     1      30.310  12.583  28.330  1.00  0.00     0.156 HD
HETATM   16  C21 UNL     1      30.331  11.361  30.060  1.00  0.00     0.177 C
HETATM   17  C22 UNL     1      31.181  10.235  30.530  1.00  0.00     0.055 C
ENDROOT
BRANCH   3  18
HETATM   18  C5  UNL     1      28.699   7.874  28.596  1.00  0.00     0.063 C
BRANCH  18  19
HETATM   19  C6  UNL     1      29.972   7.167  28.862  1.00  0.00     0.026 C
BRANCH  19  20
HETATM   20  C7  UNL     1      30.126   5.862  28.113  1.00  0.00     0.122 C
BRANCH  20  21
HETATM   21  N2  UNL     1      31.473   5.680  27.665  1.00  0.00    -0.367 N
HETATM   22  C8  UNL     1      32.208   4.772  28.196  1.00  0.00     0.196 C
HETATM   23  N3  UNL     1      33.531   4.628  27.723  1.00  0.00    -0.067 NA
HETATM   24  N4  UNL     1      31.759   3.914  29.227  1.00  0.00    -0.067 NA
ATOM     25  H2  UNL     1      31.848   6.271  26.923  1.00  0.00     0.161 HD
ENDBRANCH  20  21
ENDBRANCH  19  20
ENDBRANCH  18  19
ENDBRANCH   3  18
BRANCH   2  26
HETATM   26  O1  UNL     1      27.436  11.038  28.079  1.00  0.00    -0.345 OA
ATOM     27  H1  UNL     1      27.067  10.590  27.327  1.00  0.00     0.219 HD
ENDBRANCH   2  26
BRANCH   1  28
HETATM   28  C2  UNL     1      27.994  11.382  30.809  1.00  0.00     0.122 C
HETATM   29  C1  UNL     1      27.786  10.307  31.828  1.00  0.00     0.026 C
ENDBRANCH   1  28
BRANCH   8  30
HETATM   30  C11 UNL     1      30.553  11.414  24.780  1.00  0.00     0.038 C
BRANCH  30  31
HETATM   31  C12 UNL     1      31.620  11.827  23.853  1.00  0.00    -0.020 C
HETATM   32  C13 UNL     1      30.903  12.540  22.679  1.00  0.00     0.009 C
HETATM   33  C14 UNL     1      32.393  10.721  23.179  1.00  0.00     0.009 C
ENDBRANCH  30  31
ENDBRANCH   8  30
BRANCH  13  34
HETATM   34  C17 UNL     1      32.589  13.615  29.891  1.00  0.00     0.036 C
BRANCH  34  35
HETATM   35  C18 UNL     1      33.625  13.369  30.941  1.00  0.00     0.022 C
BRANCH  35  36
HETATM   36  C19 UNL     1      32.875  12.942  32.208  1.00  0.00     0.122 C
BRANCH  36  37
HETATM   37  N7  UNL     1      32.648  14.085  33.029  1.00  0.00    -0.367 N
HETATM   38  C20 UNL     1      31.460  14.550  33.298  1.00  0.00     0.196 C
HETATM   39  N8  UNL     1      30.351  13.871  32.736  1.00  0.00    -0.067 NA
HETATM   40  N9  UNL     1      31.256  15.683  34.113  1.00  0.00    -0.067 NA
ATOM     41  H7  UNL     1      33.456  14.564  33.427  1.00  0.00     0.161 HD
ENDBRANCH  36  37
ENDBRANCH  35  36
ENDBRANCH  34  35
ENDBRANCH  13  34
TORSDOF 12
ENDMDL