MODEL 5
REMARK VINA RESULT: -6.546332669      2.937      6.451
REMARK  11 active torsions:
REMARK  status: ('A' for Active; 'I' for Inactive)
REMARK    1  A    between atoms: C2_2  and  C3_3
REMARK    2  A    between atoms: C3_3  and  C4_4
REMARK    3  A    between atoms: C4_4  and  N1_5
REMARK    4  A    between atoms: C9_16  and  C10_17
REMARK    5  A    between atoms: C10_17  and  C11_18
REMARK    6  A    between atoms: C11_18  and  C12_19
REMARK    7  A    between atoms: C12_19  and  N4_20
REMARK    8  A    between atoms: C15_29  and  C16_30
REMARK    9  A    between atoms: C16_30  and  C17_31
REMARK   10  A    between atoms: C17_31  and  C18_32
REMARK   11  A    between atoms: C18_32  and  N8_33
ROOT
HETATM    1  N1  UNL     1      33.753  12.873  25.875  1.00  0.00    -0.268 N
HETATM    2  C5  UNL     1      34.833  12.870  26.796  1.00  0.00     0.325 C
HETATM    3  O1  UNL     1      35.982  12.546  26.332  1.00  0.00    -0.247 OA
HETATM    4  N2  UNL     1      34.762  13.189  28.163  1.00  0.00    -0.342 N
ATOM      5  H2  UNL     1      35.316  12.623  28.805  1.00  0.00     0.164 HD
HETATM    6  C6  UNL     1      33.966  14.258  28.737  1.00  0.00     0.133 C
HETATM    7  C7  UNL     1      34.067  14.245  30.233  1.00  0.00     0.122 C
HETATM    8  C8  UNL     1      32.762  14.315  30.921  1.00  0.00     0.219 C
HETATM    9  O2  UNL     1      32.729  15.041  31.950  1.00  0.00    -0.274 OA
HETATM   10  N3  UNL     1      31.590  13.656  30.533  1.00  0.00    -0.348 N
ATOM     11  H3  UNL     1      30.714  14.173  30.600  1.00  0.00     0.163 HD
HETATM   12  C9  UNL     1      31.531  12.283  30.039  1.00  0.00     0.176 C
HETATM   13  C14 UNL     1      30.634  12.243  28.875  1.00  0.00     0.241 C
HETATM   14  O3  UNL     1      29.595  12.963  28.901  1.00  0.00    -0.271 OA
HETATM   15  N7  UNL     1      30.851  11.451  27.722  1.00  0.00    -0.346 N
ATOM     16  H7  UNL     1      30.054  10.998  27.276  1.00  0.00     0.163 HD
HETATM   17  C15 UNL     1      32.192  11.260  27.146  1.00  0.00     0.177 C
HETATM   18  C20 UNL     1      32.452  12.357  26.187  1.00  0.00     0.250 C
HETATM   19  O4  UNL     1      31.482  12.879  25.601  1.00  0.00    -0.271 OA
ENDROOT
BRANCH  12  20
HETATM   20  C10 UNL     1      30.976  11.350  31.095  1.00  0.00     0.036 C
BRANCH  20  21
HETATM   21  C11 UNL     1      30.741   9.955  30.625  1.00  0.00     0.022 C
BRANCH  21  22
HETATM   22  C12 UNL     1      29.263   9.655  30.912  1.00  0.00     0.122 C
BRANCH  22  23
HETATM   23  N4  UNL     1      28.803   8.492  30.220  1.00  0.00    -0.367 N
HETATM   24  C13 UNL     1      28.170   8.575  29.095  1.00  0.00     0.196 C
HETATM   25  N5  UNL     1      27.917   9.853  28.517  1.00  0.00    -0.067 NA
HETATM   26  N6  UNL     1      27.713   7.428  28.408  1.00  0.00    -0.067 NA
ATOM     27  H4  UNL     1      28.979   7.572  30.624  1.00  0.00     0.161 HD
ENDBRANCH  22  23
ENDBRANCH  21  22
ENDBRANCH  20  21
ENDBRANCH  12  20
BRANCH  17  28
HETATM   28  C16 UNL     1      32.132   9.965  26.363  1.00  0.00     0.036 C
BRANCH  28  29
HETATM   29  C17 UNL     1      30.990   9.087  26.737  1.00  0.00     0.022 C
BRANCH  29  30
HETATM   30  C18 UNL     1      31.583   7.892  27.493  1.00  0.00     0.122 C
BRANCH  30  31
HETATM   31  N8  UNL     1      30.627   6.814  27.490  1.00  0.00    -0.367 N
HETATM   32  C19 UNL     1      30.897   5.653  27.982  1.00  0.00     0.196 C
HETATM   33  N9  UNL     1      32.154   5.346  28.560  1.00  0.00    -0.067 NA
HETATM   34  N10 UNL     1      29.917   4.626  27.953  1.00  0.00    -0.067 NA
ATOM     35  H8  UNL     1      29.705   6.975  27.086  1.00  0.00     0.161 HD
ENDBRANCH  30  31
ENDBRANCH  29  30
ENDBRANCH  28  29
ENDBRANCH  17  28
BRANCH   1  36
HETATM   36  C4  UNL     1      34.003  13.435  24.548  1.00  0.00     0.137 C
BRANCH  36  37
HETATM   37  C3  UNL     1      34.251  12.382  23.520  1.00  0.00     0.020 C
BRANCH  37  38
HETATM   38  C2  UNL     1      33.135  12.449  22.504  1.00  0.00    -0.003 C
HETATM   39  C1  UNL     1      32.236  11.246  22.559  1.00  0.00     0.005 C
ENDBRANCH  37  38
ENDBRANCH  36  37
ENDBRANCH   1  36
TORSDOF 11
ENDMDL