MODEL 5
REMARK VINA RESULT: -7.240476620      3.221      7.947
REMARK  10 active torsions:
REMARK  status: ('A' for Active; 'I' for Inactive)
REMARK       I    between atoms: N1_2  and  C2_4
REMARK    1  A    between atoms: N3_6  and  C3_8
REMARK    2  A    between atoms: C3_8  and  C4_9
REMARK    3  A    between atoms: C4_9  and  C5_10
REMARK    4  A    between atoms: C5_10  and  C6_11
REMARK    5  A    between atoms: C7_12  and  N4_13
REMARK       I    between atoms: N4_13  and  C8_14
REMARK    6  A    between atoms: C9_17  and  N7_18
REMARK       I    between atoms: N7_18  and  C10_20
REMARK    7  A    between atoms: C10_20  and  C11_22
REMARK    8  A    between atoms: C11_22  and  C12_23
REMARK    9  A    between atoms: N9_35  and  C21_36
REMARK   10  A    between atoms: C21_36  and  C22_37
ROOT
HETATM    1  C6  UNL     1      30.339  10.284  28.506  1.00  0.00     0.043 C
HETATM    2  C7  UNL     1      31.464  11.150  28.891  1.00  0.00     0.138 C
HETATM    3  C9  UNL     1      31.966  12.269  28.022  1.00  0.00     0.243 C
HETATM    4  C18 UNL     1      30.998  13.339  27.606  1.00  0.00     0.248 C
HETATM    5  O2  UNL     1      31.416  13.905  26.531  1.00  0.00    -0.271 OA
HETATM    6  N8  UNL     1      29.770  13.948  27.975  1.00  0.00    -0.348 N
ATOM      7  H8  UNL     1      29.739  14.961  27.863  1.00  0.00     0.163 HD
HETATM    8  C19 UNL     1      28.513  13.329  28.504  1.00  0.00     0.222 C
HETATM    9  C20 UNL     1      28.779  11.934  28.609  1.00  0.00    -0.068 C
HETATM   10  N9  UNL     1      28.931  10.661  28.840  1.00  0.00    -0.195 NA
ENDROOT
BRANCH   3  11
HETATM   11  N7  UNL     1      33.136  12.836  28.622  1.00  0.00    -0.342 N
HETATM   12  C10 UNL     1      34.488  12.731  28.392  1.00  0.00     0.218 C
HETATM   13  O1  UNL     1      35.102  12.090  27.508  1.00  0.00    -0.274 OA
ATOM     14  H7  UNL     1      32.917  13.460  29.399  1.00  0.00     0.163 HD
BRANCH  12  15
HETATM   15  C11 UNL     1      35.419  13.483  29.322  1.00  0.00     0.107 C
BRANCH  15  16
HETATM   16  C12 UNL     1      35.545  14.934  29.024  1.00  0.00    -0.006 C
HETATM   17  C13 UNL     1      37.023  15.229  28.827  1.00  0.00     0.005 C
HETATM   18  C14 UNL     1      37.843  15.110  30.084  1.00  0.00     0.000 C
HETATM   19  C15 UNL     1      37.325  16.221  31.005  1.00  0.00     0.000 C
HETATM   20  C16 UNL     1      35.891  15.844  31.346  1.00  0.00     0.000 C
HETATM   21  C17 UNL     1      34.981  15.799  30.143  1.00  0.00     0.005 C
ENDBRANCH  15  16
ENDBRANCH  12  15
ENDBRANCH   3  11
BRANCH   2  22
HETATM   22  N4  UNL     1      31.703  11.331  30.251  1.00  0.00    -0.377 NA
HETATM   23  C8  UNL     1      32.081  11.320  31.358  1.00  0.00     0.275 C
HETATM   24  N5  UNL     1      33.157  10.561  31.960  1.00  0.00    -0.052 NA
HETATM   25  N6  UNL     1      31.415  12.168  32.354  1.00  0.00    -0.052 NA
ENDBRANCH   2  22
BRANCH   1  26
HETATM   26  C5  UNL     1      30.509   8.827  28.802  1.00  0.00     0.057 C
BRANCH  26  27
HETATM   27  C4  UNL     1      30.448   7.866  27.649  1.00  0.00     0.025 C
BRANCH  27  28
HETATM   28  C3  UNL     1      30.862   6.476  28.101  1.00  0.00     0.122 C
BRANCH  28  29
HETATM   29  N3  UNL     1      32.089   6.134  27.381  1.00  0.00    -0.365 N
HETATM   30  C2  UNL     1      32.679   5.017  27.714  1.00  0.00     0.183 C
HETATM   31  N1  UNL     1      33.857   4.587  27.094  1.00  0.00    -0.369 N
HETATM   32  N2  UNL     1      32.134   4.185  28.732  1.00  0.00    -0.064 NA
HETATM   33  C1  UNL     1      35.127   4.714  27.811  1.00  0.00     0.148 C
ATOM     34  H1  UNL     1      33.831   4.190  26.155  1.00  0.00     0.161 HD
ATOM     35  H3  UNL     1      32.466   6.739  26.653  1.00  0.00     0.162 HD
ENDBRANCH  28  29
ENDBRANCH  27  28
ENDBRANCH  26  27
ENDBRANCH   1  26
BRANCH  10  36
HETATM   36  C21 UNL     1      28.484  10.096  30.043  1.00  0.00     0.093 C
BRANCH  36  37
HETATM   37  C22 UNL     1      27.061  10.473  30.359  1.00  0.00     0.113 C
HETATM   38  N10 UNL     1      26.036   9.843  29.625  1.00  0.00    -0.114 NA
ENDBRANCH  36  37
ENDBRANCH  10  36
TORSDOF 10
ENDMDL