MODEL 4
REMARK VINA RESULT: -5.827373782      1.760      2.279
REMARK  3 active torsions:
REMARK  status: ('A' for Active; 'I' for Inactive)
REMARK    1  A    between atoms: C2_2  and  N1_3
REMARK       I    between atoms: N1_3  and  C3_5
REMARK    2  A    between atoms: C3_5  and  C4_7
REMARK    3  A    between atoms: C4_7  and  N2_8
ROOT
HETATM    1  C4  UNL     1      29.843  25.426  88.676  1.00  0.00     0.275 C
HETATM    2  C5  UNL     1      29.533  24.091  89.311  1.00  0.00     0.179 C
HETATM    3  N3  UNL     1      28.837  24.260  90.533  1.00  0.00    -0.361 N
ATOM      4  H3  UNL     1      28.232  23.486  90.806  1.00  0.00     0.162 HD
HETATM    5  C6  UNL     1      28.865  25.254  91.343  1.00  0.00     0.192 C
HETATM    6  N4  UNL     1      28.135  25.344  92.554  1.00  0.00    -0.063 NA
HETATM    7  N5  UNL     1      29.717  26.352  90.947  1.00  0.00    -0.309 N
HETATM    8  C7  UNL     1      29.778  27.497  91.836  1.00  0.00     0.135 C
HETATM    9  C8  UNL     1      30.902  28.432  91.471  1.00  0.00     0.040 C
HETATM   10  C9  UNL     1      32.029  27.733  90.744  1.00  0.00     0.122 C
HETATM   11  N6  UNL     1      31.544  26.931  89.632  1.00  0.00    -0.377 N
ATOM     12  H6  UNL     1      32.083  26.890  88.767  1.00  0.00     0.160 HD
HETATM   13  C10 UNL     1      30.450  26.277  89.727  1.00  0.00     0.130 C
ENDROOT
BRANCH   1  14
HETATM   14  C3  UNL     1      30.752  25.275  87.504  1.00  0.00     0.263 C
HETATM   15  N1  UNL     1      31.507  24.097  87.281  1.00  0.00    -0.359 N
ATOM     16  H1  UNL     1      31.428  23.325  87.942  1.00  0.00     0.162 HD
HETATM   17  O1  UNL     1      30.850  26.214  86.697  1.00  0.00    -0.270 OA
BRANCH  15  18
HETATM   18  C2  UNL     1      32.386  23.958  86.144  1.00  0.00     0.118 C
HETATM   19  C1  UNL     1      32.053  22.791  85.279  1.00  0.00     0.026 C
ENDBRANCH  15  18
ENDBRANCH   1  14
BRANCH   1  20
HETATM   20  N2  UNL     1      28.605  25.986  88.181  1.00  0.00    -0.053 N
ATOM     21  H23 UNL     1      27.846  25.306  88.141  1.00  0.00     0.276 HD
ATOM     22  H22 UNL     1      28.167  26.632  88.838  1.00  0.00     0.276 HD
ATOM     23  H21 UNL     1      28.810  26.412  87.277  1.00  0.00     0.276 HD
ENDBRANCH   1  20
TORSDOF 3
ENDMDL