MODEL 1
REMARK VINA RESULT: -6.471996349      0.000      0.000
REMARK  4 active torsions:
REMARK  status: ('A' for Active; 'I' for Inactive)
REMARK    1  A    between atoms: N1_2  and  N2_3
REMARK    2  A    between atoms: N1_2  and  C2_6
REMARK    3  A    between atoms: C2_6  and  C3_7
REMARK    4  A    between atoms: C5_11  and  N4_12
ROOT
HETATM    1  C3  UNL     1      32.802  23.351  86.773  1.00  0.00     0.158 C
HETATM    2  C4  UNL     1      31.454  23.026  86.224  1.00  0.00     0.166 C
HETATM    3  N3  UNL     1      30.593  24.177  86.324  1.00  0.00    -0.223 N
ATOM      4  H3  UNL     1      29.670  24.104  85.896  1.00  0.00     0.177 HD
HETATM    5  C5  UNL     1      30.909  25.403  86.964  1.00  0.00     0.691 C
HETATM    6  N6  UNL     1      32.199  25.663  87.016  1.00  0.00    -0.136 N
ATOM      7  H6  UNL     1      32.542  26.518  87.453  1.00  0.00     0.201 HD
HETATM    8  N7  UNL     1      33.102  24.726  86.450  1.00  0.00    -0.114 NA
ENDROOT
BRANCH   5   9
HETATM    9  N4  UNL     1      29.955  26.282  87.508  1.00  0.00    -0.170 N
HETATM   10  C6  UNL     1      29.458  26.319  88.651  1.00  0.00     0.155 C
HETATM   11  N5  UNL     1      28.503  27.210  89.171  1.00  0.00    -0.370 N
HETATM   12  S1  UNL     1      29.840  25.198  89.980  1.00  0.00    -0.092 SA
HETATM   13  C7  UNL     1      28.568  27.337  90.588  1.00  0.00     0.132 C
ATOM     14  H5  UNL     1      27.832  27.715  88.592  1.00  0.00     0.161 HD
HETATM   15  C8  UNL     1      28.658  25.930  91.197  1.00  0.00     0.102 C
ATOM     16  H4  UNL     1      29.618  27.001  86.868  1.00  0.00     0.186 HD
ENDBRANCH   5   9
BRANCH   1  17
HETATM   17  C2  UNL     1      33.840  22.381  86.292  1.00  0.00     0.106 C
BRANCH  17  18
HETATM   18  N1  UNL     1      34.288  22.527  84.976  1.00  0.00    -0.316 N
HETATM   19  C1  UNL     1      35.527  23.135  84.730  1.00  0.00     0.176 C
BRANCH  18  20
HETATM   20  N2  UNL     1      33.768  21.712  84.016  1.00  0.00    -0.344 N
ATOM     21  H22 UNL     1      33.774  22.033  83.047  1.00  0.00     0.177 HD
ATOM     22  H21 UNL     1      33.108  20.987  84.301  1.00  0.00     0.177 HD
ENDBRANCH  18  20
ENDBRANCH  17  18
ENDBRANCH   1  17
TORSDOF 4
ENDMDL