MODEL 3
REMARK VINA RESULT: -6.076073635      1.414      3.841
REMARK  3 active torsions:
REMARK  status: ('A' for Active; 'I' for Inactive)
REMARK    1  A    between atoms: C2_2  and  C3_3
REMARK    2  A    between atoms: C3_3  and  N1_4
REMARK    3  A    between atoms: N3_10  and  O1_11
ROOT
HETATM    1  N1  UNL     1      32.252  24.586  87.988  1.00  0.00     0.099 N
HETATM    2  C4  UNL     1      31.069  24.165  87.326  1.00  0.00     0.315 C
HETATM    3  C5  UNL     1      29.813  24.680  87.887  1.00  0.00     0.016 A
HETATM    4  C6  UNL     1      28.505  24.409  87.542  1.00  0.00     0.120 A
HETATM    5  N2  UNL     1      27.699  25.127  88.347  1.00  0.00    -0.285 N
ATOM      6  H2  UNL     1      26.680  25.136  88.331  1.00  0.00     0.188 HD
HETATM    7  N3  UNL     1      28.479  25.821  89.164  1.00  0.00    -0.165 N
HETATM    8  C7  UNL     1      29.766  25.577  88.917  1.00  0.00     0.100 A
HETATM    9  C8  UNL     1      31.014  26.069  89.513  1.00  0.00     0.122 C
HETATM   10  C9  UNL     1      31.273  25.487  90.876  1.00  0.00     0.162 C
HETATM   11  N4  UNL     1      31.965  26.531  91.574  1.00  0.00    -0.362 N
ATOM     12  H4  UNL     1      32.522  26.404  92.419  1.00  0.00     0.162 HD
HETATM   13  C10 UNL     1      31.779  27.643  90.978  1.00  0.00     0.185 C
HETATM   14  N5  UNL     1      32.298  28.934  91.354  1.00  0.00    -0.064 NA
HETATM   15  N6  UNL     1      30.967  27.482  89.831  1.00  0.00    -0.346 N
ATOM     16  H6  UNL     1      30.454  28.210  89.331  1.00  0.00     0.163 HD
HETATM   17  C11 UNL     1      32.194  25.872  88.601  1.00  0.00     0.312 C
ENDROOT
BRANCH   7  18
HETATM   18  O1  UNL     1      28.023  26.679  90.138  1.00  0.00    -0.268 OA
ATOM     19  H1  UNL     1      27.228  26.550  90.643  1.00  0.00     0.247 HD
ENDBRANCH   7  18
BRANCH   1  20
HETATM   20  C3  UNL     1      33.320  24.636  86.978  1.00  0.00     0.299 C
BRANCH  20  21
HETATM   21  C2  UNL     1      33.045  23.794  85.815  1.00  0.00    -0.007 C
HETATM   22  C1  UNL     1      34.005  23.115  85.240  1.00  0.00     0.008 C
ENDBRANCH  20  21
ENDBRANCH   1  20
TORSDOF 3
ENDMDL