MODEL 5
REMARK VINA RESULT: -7.555380595      1.375      1.871
REMARK  3 active torsions:
REMARK  status: ('A' for Active; 'I' for Inactive)
REMARK    1  A    between atoms: C2_2  and  C7_18
REMARK    2  A    between atoms: N1_3  and  N2_5
REMARK    3  A    between atoms: N2_5  and  C3_7
ROOT
HETATM    1  C3  UNL     1      31.879  25.002  87.936  1.00  0.00     0.702 C
HETATM    2  N3  UNL     1      31.296  23.864  88.102  1.00  0.00    -0.115 N
ATOM      3  H3  UNL     1      31.755  23.012  87.779  1.00  0.00     0.197 HD
HETATM    4  S1  UNL     1      29.762  23.762  88.857  1.00  0.00     0.246 S
HETATM    5  O1  UNL     1      29.836  23.204  90.250  1.00  0.00    -0.205 OA
HETATM    6  O2  UNL     1      28.829  22.848  88.081  1.00  0.00    -0.205 OA
HETATM    7  C4  UNL     1      29.070  25.397  88.878  1.00  0.00     0.189 C
HETATM    8  C5  UNL     1      30.183  26.350  89.249  1.00  0.00     0.111 C
HETATM    9  C6  UNL     1      30.695  26.096  90.648  1.00  0.00     0.034 C
HETATM   10  N4  UNL     1      31.314  26.230  88.354  1.00  0.00    -0.219 N
ATOM     11  H4  UNL     1      31.732  27.089  88.000  1.00  0.00     0.178 HD
ENDROOT
BRANCH   1  12
HETATM   12  N2  UNL     1      33.166  25.014  87.295  1.00  0.00    -0.131 N
ATOM     13  H2  UNL     1      33.846  25.725  87.567  1.00  0.00     0.205 HD
BRANCH  12  14
HETATM   14  N1  UNL     1      33.515  24.096  86.323  1.00  0.00    -0.286 N
HETATM   15  C2  UNL     1      34.756  24.038  85.943  1.00  0.00     0.087 C
HETATM   16  C1  UNL     1      35.780  24.939  86.541  1.00  0.00     0.075 C
ATOM     17  H1  UNL     1      32.815  23.479  85.913  1.00  0.00     0.187 HD
BRANCH  15  18
HETATM   18  C7  UNL     1      35.118  23.072  84.922  1.00  0.00     0.278 C
HETATM   19  N5  UNL     1      34.125  22.233  84.366  1.00  0.00    -0.056 NA
HETATM   20  O3  UNL     1      36.317  23.013  84.559  1.00  0.00    -0.270 OA
ENDBRANCH  15  18
ENDBRANCH  12  14
ENDBRANCH   1  12
TORSDOF 3
ENDMDL