MODEL 1
REMARK VINA RESULT: -7.090006892      0.000      0.000
REMARK  6 active torsions:
REMARK  status: ('A' for Active; 'I' for Inactive)
REMARK    1  A    between atoms: C2_2  and  O1_3
REMARK    2  A    between atoms: C2_2  and  O2_5
REMARK    3  A    between atoms: O2_5  and  C3_6
REMARK    4  A    between atoms: C6_11  and  N2_12
REMARK    5  A    between atoms: C6_11  and  C7_16
REMARK    6  A    between atoms: N4_19  and  O3_20
ROOT
HETATM    1  C7  UNL     1      29.529  24.148  90.344  1.00  0.00     0.187 C
HETATM    2  C8  UNL     1      28.873  25.002  91.331  1.00  0.00     0.063 C
HETATM    3  N3  UNL     1      28.336  25.670  92.106  1.00  0.00    -0.197 NA
ENDROOT
BRANCH   1   4
HETATM    4  C6  UNL     1      29.211  24.529  88.939  1.00  0.00     0.234 C
HETATM    5  C5  UNL     1      29.401  23.351  87.964  1.00  0.00     0.096 C
HETATM    6  C4  UNL     1      30.895  23.344  87.907  1.00  0.00     0.136 C
HETATM    7  N1  UNL     1      31.476  22.920  86.700  1.00  0.00    -0.364 N
HETATM    8  C9  UNL     1      31.209  24.799  87.914  1.00  0.00     0.046 C
HETATM    9  C3  UNL     1      32.376  23.702  86.276  1.00  0.00     0.122 C
ATOM     10  H1  UNL     1      31.199  22.067  86.213  1.00  0.00     0.162 HD
HETATM   11  C10 UNL     1      32.531  24.840  87.211  1.00  0.00     0.141 C
HETATM   12  N4  UNL     1      30.279  25.433  88.482  1.00  0.00    -0.228 N
BRANCH   9  13
HETATM   13  O2  UNL     1      33.142  23.531  85.076  1.00  0.00    -0.309 OA
BRANCH  13  14
HETATM   14  C2  UNL     1      34.144  22.534  85.118  1.00  0.00     0.260 C
HETATM   15  C1  UNL     1      35.517  23.113  84.789  1.00  0.00     0.071 C
BRANCH  14  16
HETATM   16  O1  UNL     1      33.796  21.574  84.161  1.00  0.00    -0.371 OA
ATOM     17  H1  UNL     1      32.946  21.783  83.792  1.00  0.00     0.212 HD
ENDBRANCH  14  16
ENDBRANCH  13  14
ENDBRANCH   9  13
BRANCH  12  18
HETATM   18  O3  UNL     1      30.262  26.805  88.656  1.00  0.00    -0.285 OA
ATOM     19  H3  UNL     1      30.564  27.247  89.441  1.00  0.00     0.245 HD
ENDBRANCH  12  18
BRANCH   4  20
HETATM   20  N2  UNL     1      27.970  25.199  88.748  1.00  0.00    -0.049 N
ATOM     21  H23 UNL     1      27.185  24.579  88.943  1.00  0.00     0.277 HD
ATOM     22  H22 UNL     1      27.814  25.896  89.477  1.00  0.00     0.277 HD
ATOM     23  H21 UNL     1      27.888  25.614  87.820  1.00  0.00     0.277 HD
ENDBRANCH   4  20
ENDBRANCH   1   4
TORSDOF 6
ENDMDL