MODEL 5
REMARK VINA RESULT: -8.421353432      1.768      2.288
REMARK  5 active torsions:
REMARK  status: ('A' for Active; 'I' for Inactive)
REMARK    1  A    between atoms: O1_1  and  C1_3
REMARK    2  A    between atoms: N2_9  and  O3_10
REMARK    3  A    between atoms: C6_14  and  C7_15
REMARK    4  A    between atoms: C7_15  and  N3_16
REMARK    5  A    between atoms: N3_16  and  C8_18
ROOT
HETATM    1  C1  UNL     1      32.088  23.241  86.157  1.00  0.00     0.075 A
HETATM    2  C2  UNL     1      32.995  22.621  85.309  1.00  0.00     0.071 A
HETATM    3  C3  UNL     1      34.261  23.154  85.175  1.00  0.00     0.090 A
HETATM    4  N1  UNL     1      35.366  22.812  84.453  1.00  0.00    -0.237 N
ATOM      5  H1  UNL     1      35.448  22.016  83.821  1.00  0.00     0.197 HD
HETATM    6  O2  UNL     1      36.292  23.675  84.710  1.00  0.00    -0.128 OA
HETATM    7  N2  UNL     1      35.913  24.573  85.543  1.00  0.00    -0.100 N
HETATM    8  C4  UNL     1      34.636  24.288  85.869  1.00  0.00     0.119 A
HETATM    9  C5  UNL     1      33.701  24.878  86.706  1.00  0.00     0.048 A
HETATM   10  C6  UNL     1      32.431  24.373  86.863  1.00  0.00    -0.004 A
ENDROOT
BRANCH  10  11
HETATM   11  C7  UNL     1      31.409  24.983  87.753  1.00  0.00     0.179 C
BRANCH  11  12
HETATM   12  N3  UNL     1      30.978  24.073  88.779  1.00  0.00    -0.219 N
ATOM     13  H3  UNL     1      31.661  23.632  89.395  1.00  0.00     0.178 HD
BRANCH  12  14
HETATM   14  C8  UNL     1      29.702  23.817  88.915  1.00  0.00     0.709 A
HETATM   15  N4  UNL     1      29.136  22.953  89.776  1.00  0.00    -0.115 N
HETATM   16  N5  UNL     1      27.831  23.014  89.570  1.00  0.00    -0.213 N
ATOM     17  H4  UNL     1      29.620  22.366  90.456  1.00  0.00     0.207 HD
HETATM   18  N6  UNL     1      27.546  23.872  88.622  1.00  0.00    -0.213 N
ATOM     19  H5  UNL     1      27.139  22.466  90.081  1.00  0.00     0.210 HD
HETATM   20  N7  UNL     1      28.698  24.372  88.213  1.00  0.00    -0.115 N
ATOM     21  H6  UNL     1      26.618  24.108  88.269  1.00  0.00     0.210 HD
ATOM     22  H7  UNL     1      28.809  25.071  87.479  1.00  0.00     0.207 HD
ENDBRANCH  12  14
ENDBRANCH  11  12
ENDBRANCH  10  11
BRANCH   1  23
HETATM   23  O1  UNL     1      30.829  22.654  86.248  1.00  0.00    -0.360 OA
ATOM     24  H1  UNL     1      30.232  23.035  86.881  1.00  0.00     0.217 HD
ENDBRANCH   1  23
BRANCH   7  25
HETATM   25  O3  UNL     1      36.582  25.654  86.074  1.00  0.00    -0.261 OA
ATOM     26  H3  UNL     1      36.470  26.113  86.898  1.00  0.00     0.247 HD
ENDBRANCH   7  25
TORSDOF 5
ENDMDL