MODEL 4
REMARK VINA RESULT: -4.553052328      1.585      1.925
REMARK  2 active torsions:
REMARK  status: ('A' for Active; 'I' for Inactive)
REMARK    1  A    between atoms: O1_2  and  C2_3
REMARK    2  A    between atoms: C2_3  and  C3_4
ROOT
HETATM    1  C3  UNL     1      32.182  28.402  93.104  1.00  0.00     0.237 C
HETATM    2  C4  UNL     1      31.520  29.557  92.431  1.00  0.00     0.307 C
HETATM    3  N1  UNL     1      30.088  29.451  92.372  1.00  0.00     0.087 N
HETATM    4  C5  UNL     1      29.544  30.518  93.223  1.00  0.00     0.310 C
HETATM    5  C6  UNL     1      29.550  29.672  91.047  1.00  0.00     0.299 C
HETATM    6  C7  UNL     1      29.159  28.389  90.358  1.00  0.00     0.262 C
HETATM    7  N2  UNL     1      30.286  27.600  89.945  1.00  0.00    -0.072 N
ATOM      8  H21 UNL     1      31.016  27.543  90.656  1.00  0.00     0.277 HD
ATOM      9  H22 UNL     1      30.845  28.049  89.220  1.00  0.00     0.277 HD
HETATM   10  C8  UNL     1      29.772  26.288  89.545  1.00  0.00     0.250 C
HETATM   11  C9  UNL     1      29.400  25.447  90.739  1.00  0.00     0.170 C
HETATM   12  N3  UNL     1      30.527  24.617  91.145  1.00  0.00    -0.100 NA
HETATM   13  O2  UNL     1      31.374  25.436  91.825  1.00  0.00    -0.285 OA
HETATM   14  C10 UNL     1      31.314  25.036  93.171  1.00  0.00     0.223 C
HETATM   15  C11 UNL     1      31.913  26.202  93.967  1.00  0.00     0.261 C
HETATM   16  N4  UNL     1      31.255  27.414  93.602  1.00  0.00    -0.065 N
ATOM     17  H41 UNL     1      30.503  27.242  92.934  1.00  0.00     0.277 HD
ATOM     18  H42 UNL     1      30.700  27.782  94.375  1.00  0.00     0.277 HD
ENDROOT
BRANCH   1  19
HETATM   19  C2  UNL     1      33.158  28.817  94.180  1.00  0.00     0.201 C
BRANCH  19  20
HETATM   20  O1  UNL     1      34.369  29.151  93.581  1.00  0.00    -0.394 OA
HETATM   21  C1  UNL     1      35.147  28.048  93.301  1.00  0.00     0.201 C
ENDBRANCH  19  20
ENDBRANCH   1  19
TORSDOF 2
ENDMDL