MODEL 4
REMARK VINA RESULT: -5.770293339      1.745      3.406
REMARK  1 active torsions:
REMARK  status: ('A' for Active; 'I' for Inactive)
REMARK       I    between atoms: N3_13  and  C9_14
REMARK       I    between atoms: C9_14  and  N4_16
REMARK    1  A    between atoms: N4_16  and  O2_18
ROOT
HETATM    1  C1  UNL     1      31.502  22.230  84.339  1.00  0.00     0.028 C
HETATM    2  C2  UNL     1      32.264  22.954  85.141  1.00  0.00     0.011 A
HETATM    3  C3  UNL     1      33.610  22.897  84.994  1.00  0.00    -0.003 A
HETATM    4  C4  UNL     1      34.249  22.168  84.109  1.00  0.00     0.026 C
HETATM    5  C5  UNL     1      34.438  23.655  85.827  1.00  0.00     0.072 A
HETATM    6  N1  UNL     1      35.768  23.609  85.663  1.00  0.00    -0.350 N
ATOM      7  H1  UNL     1      36.144  23.002  84.936  1.00  0.00     0.166 HD
HETATM    8  C6  UNL     1      36.629  24.320  86.404  1.00  0.00     0.180 A
HETATM    9  N2  UNL     1      36.099  25.104  87.343  1.00  0.00    -0.360 N
ATOM     10  H2  UNL     1      36.723  25.661  87.926  1.00  0.00     0.166 HD
HETATM   11  C7  UNL     1      34.734  25.191  87.556  1.00  0.00     0.121 A
HETATM   12  C8  UNL     1      33.856  24.459  86.798  1.00  0.00     0.088 A
HETATM   13  N3  UNL     1      32.524  24.531  86.965  1.00  0.00    -0.244 N
HETATM   14  C9  UNL     1      31.953  25.268  88.007  1.00  0.00     0.352 C
HETATM   15  O1  UNL     1      32.711  25.764  88.909  1.00  0.00    -0.244 OA
HETATM   16  N4  UNL     1      30.601  25.593  88.265  1.00  0.00    -0.216 N
ATOM     17  H4  UNL     1      29.864  25.278  87.634  1.00  0.00     0.199 HD
HETATM   18  C11 UNL     1      31.738  23.768  86.122  1.00  0.00     0.120 A
HETATM   19  N5  UNL     1      30.503  23.812  86.274  1.00  0.00    -0.384 N
ATOM     20  H51 UNL     1      30.113  24.415  87.000  1.00  0.00     0.157 HD
ATOM     21  H52 UNL     1      29.923  23.249  85.652  1.00  0.00     0.157 HD
ENDROOT
BRANCH  16  22
HETATM   22  O2  UNL     1      30.289  26.348  89.394  1.00  0.00    -0.281 OA
HETATM   23  C10 UNL     1      28.951  26.273  89.690  1.00  0.00     0.237 C
ENDBRANCH  16  22
TORSDOF 1
ENDMDL