MODEL 3
REMARK VINA RESULT: -7.387991888      5.436      7.634
REMARK  4 active torsions:
REMARK  status: ('A' for Active; 'I' for Inactive)
REMARK    1  A    between atoms: C7_10  and  N2_11
REMARK    2  A    between atoms: N2_11  and  O2_12
REMARK    3  A    between atoms: N2_11  and  N3_14
REMARK    4  A    between atoms: N3_14  and  N4_16
ROOT
HETATM    1  C1  UNL     1      31.706  22.784  85.631  1.00  0.00     0.017 C
HETATM    2  C2  UNL     1      31.917  23.891  86.617  1.00  0.00    -0.021 C
HETATM    3  C3  UNL     1      33.397  24.158  86.744  1.00  0.00     0.017 C
HETATM    4  C4  UNL     1      31.395  23.463  87.977  1.00  0.00     0.177 C
HETATM    5  O1  UNL     1      30.054  23.111  87.835  1.00  0.00    -0.378 OA
HETATM    6  C5  UNL     1      29.258  24.243  87.589  1.00  0.00     0.185 A
HETATM    7  C6  UNL     1      28.243  24.463  88.644  1.00  0.00     0.176 A
HETATM    8  N1  UNL     1      28.281  25.753  89.212  1.00  0.00    -0.220 N
ATOM      9  H1  UNL     1      27.595  25.939  89.943  1.00  0.00     0.177 HD
HETATM   10  C7  UNL     1      29.054  26.702  88.929  1.00  0.00     0.721 A
HETATM   11  N6  UNL     1      30.044  26.509  87.910  1.00  0.00    -0.193 N
ATOM     12  H6  UNL     1      30.676  27.273  87.673  1.00  0.00     0.184 HD
HETATM   13  C8  UNL     1      30.145  25.388  87.292  1.00  0.00     0.035 A
HETATM   14  C9  UNL     1      31.171  25.164  86.223  1.00  0.00     0.066 C
ENDROOT
BRANCH  10  15
HETATM   15  N2  UNL     1      29.001  27.983  89.578  1.00  0.00     0.032 N
BRANCH  15  16
HETATM   16  O2  UNL     1      29.930  28.224  90.520  1.00  0.00    -0.253 OA
ATOM     17  H2  UNL     1      30.373  29.065  90.479  1.00  0.00     0.247 HD
ENDBRANCH  15  16
BRANCH  15  18
HETATM   18  N3  UNL     1      28.046  28.922  89.253  1.00  0.00    -0.187 N
ATOM     19  H3  UNL     1      27.234  29.006  89.864  1.00  0.00     0.213 HD
BRANCH  18  20
HETATM   20  N4  UNL     1      28.115  29.757  88.153  1.00  0.00    -0.232 N
HETATM   21  N5  UNL     1      27.963  29.289  86.999  1.00  0.00    -0.330 N
ATOM     22  H52 UNL     1      27.789  28.291  86.890  1.00  0.00     0.178 HD
ATOM     23  H51 UNL     1      28.013  29.905  86.188  1.00  0.00     0.178 HD
ATOM     24  H4  UNL     1      28.289  30.754  88.279  1.00  0.00     0.209 HD
ENDBRANCH  18  20
ENDBRANCH  15  18
ENDBRANCH  10  15
TORSDOF 4
ENDMDL