MODEL 5
REMARK VINA RESULT: -5.676972006      2.522      3.382
REMARK  3 active torsions:
REMARK  status: ('A' for Active; 'I' for Inactive)
REMARK    1  A    between atoms: N1_2  and  C2_4
REMARK    2  A    between atoms: N4_11  and  C4_12
REMARK    3  A    between atoms: N5_13  and  N6_15
ROOT
HETATM    1  C2  UNL     1      -0.275  10.180   9.749  1.00  0.00     0.704 A
HETATM    2  N2  UNL     1      -0.945  10.699  10.792  1.00  0.00    -0.128 N
ATOM      3  H2  UNL     1      -1.206  11.681  10.886  1.00  0.00     0.205 HD
HETATM    4  N3  UNL     1      -1.218   9.757  11.679  1.00  0.00    -0.236 N
ATOM      5  H3  UNL     1      -1.715   9.870  12.562  1.00  0.00     0.192 HD
HETATM    6  C3  UNL     1      -0.705   8.618  11.179  1.00  0.00     0.361 A
HETATM    7  O1  UNL     1      -0.746   7.484  11.712  1.00  0.00    -0.244 OA
HETATM    8  N4  UNL     1      -0.113   8.864   9.975  1.00  0.00    -0.089 N
ENDROOT
BRANCH   8   9
HETATM    9  C4  UNL     1       0.536   7.905   9.151  1.00  0.00     0.227 C
HETATM   10  N5  UNL     1      -0.053   6.782   8.928  1.00  0.00    -0.301 N
ATOM     11  H5  UNL     1      -0.967   6.601   9.343  1.00  0.00     0.187 HD
BRANCH  10  12
HETATM   12  N6  UNL     1       0.548   5.808   8.122  1.00  0.00    -0.344 N
ATOM     13  H62 UNL     1       1.555   5.852   7.970  1.00  0.00     0.176 HD
ATOM     14  H61 UNL     1      -0.011   5.069   7.695  1.00  0.00     0.176 HD
ENDBRANCH  10  12
ENDBRANCH   8   9
BRANCH   1  15
HETATM   15  N1  UNL     1       0.158  10.790   8.697  1.00  0.00    -0.228 N
HETATM   16  C1  UNL     1      -0.267  12.153   8.451  1.00  0.00     0.165 C
ATOM     17  H1  UNL     1       0.790  10.319   8.048  1.00  0.00     0.177 HD
ENDBRANCH   1  15
TORSDOF 3
ENDMDL