MODEL 3
REMARK VINA RESULT: -5.211652334      1.743      2.185
REMARK  3 active torsions:
REMARK  status: ('A' for Active; 'I' for Inactive)
REMARK    1  A    between atoms: N1_1  and  N2_4
REMARK    2  A    between atoms: N2_4  and  S1_6
REMARK    3  A    between atoms: S1_6  and  N3_9
ROOT
HETATM    1  S1  UNL     1      -0.766  10.915   8.387  1.00  0.00     0.338 S
HETATM    2  O1  UNL     1      -0.680  10.901   6.885  1.00  0.00    -0.181 OA
HETATM    3  O2  UNL     1      -0.153  12.166   8.931  1.00  0.00    -0.181 OA
ENDROOT
BRANCH   1   4
HETATM    4  N2  UNL     1      -2.452  10.911   8.841  1.00  0.00    -0.216 N
ATOM      5  H2  UNL     1      -2.926  11.588   9.438  1.00  0.00     0.201 HD
BRANCH   4   6
HETATM    6  N1  UNL     1      -3.026   9.792   8.223  1.00  0.00    -0.335 N
ATOM      7  H12 UNL     1      -3.005   9.581   7.226  1.00  0.00     0.177 HD
ATOM      8  H11 UNL     1      -3.462   9.245   8.965  1.00  0.00     0.177 HD
ENDBRANCH   4   6
ENDBRANCH   1   4
BRANCH   1   9
HETATM    9  N3  UNL     1      -0.057   9.496   9.002  1.00  0.00    -0.242 N
HETATM   10  C1  UNL     1      -0.265   8.997  10.155  1.00  0.00     0.211 C
HETATM   11  N4  UNL     1       0.398   7.807  10.530  1.00  0.00    -0.066 NA
HETATM   12  N5  UNL     1      -1.146   9.616  11.066  1.00  0.00    -0.066 NA
ATOM     13  H3  UNL     1       0.593   8.999   8.392  1.00  0.00     0.182 HD
ENDBRANCH   1   9
TORSDOF 3
ENDMDL