MODEL 5
REMARK VINA RESULT: -6.034792335      0.826      1.834
REMARK  2 active torsions:
REMARK  status: ('A' for Active; 'I' for Inactive)
REMARK       I    between atoms: C1_2  and  N2_4
REMARK    1  A    between atoms: N2_4  and  C2_6
REMARK    2  A    between atoms: N5_13  and  N6_14
ROOT
HETATM    1  C2  UNL     1      -1.022  10.415  10.187  1.00  0.00     0.726 A
HETATM    2  N3  UNL     1      -0.051  11.339  10.140  1.00  0.00    -0.126 N
ATOM      3  H3  UNL     1       0.438  11.730  10.945  1.00  0.00     0.206 HD
HETATM    4  N4  UNL     1       0.165  11.658   8.878  1.00  0.00    -0.235 N
ATOM      5  H4  UNL     1       0.850  12.336   8.541  1.00  0.00     0.192 HD
HETATM    6  C3  UNL     1      -0.670  10.939   8.113  1.00  0.00     0.375 A
HETATM    7  O2  UNL     1      -0.772  10.957   6.841  1.00  0.00    -0.243 OA
HETATM    8  N5  UNL     1      -1.400  10.172   8.926  1.00  0.00    -0.035 N
ENDROOT
BRANCH   1   9
HETATM    9  N2  UNL     1      -1.557   9.799  11.384  1.00  0.00    -0.140 N
HETATM   10  C1  UNL     1      -0.940   8.653  11.899  1.00  0.00     0.347 C
HETATM   11  N1  UNL     1       0.196   8.069  11.285  1.00  0.00    -0.039 NA
HETATM   12  O1  UNL     1      -1.423   8.127  12.947  1.00  0.00    -0.250 OA
ATOM     13  H2  UNL     1      -2.375  10.196  11.847  1.00  0.00     0.189 HD
ENDBRANCH   1   9
BRANCH   8  14
HETATM   14  N6  UNL     1      -2.415   9.246   8.553  1.00  0.00    -0.320 N
ATOM     15  H62 UNL     1      -2.768   8.464   9.105  1.00  0.00     0.178 HD
ATOM     16  H61 UNL     1      -2.914   9.263   7.663  1.00  0.00     0.178 HD
ENDBRANCH   8  14
TORSDOF 2
ENDMDL