MODEL 3
REMARK VINA RESULT: -5.715048531      1.435      2.823
REMARK  2 active torsions:
REMARK  status: ('A' for Active; 'I' for Inactive)
REMARK    1  A    between atoms: N1_1  and  C1_5
REMARK    2  A    between atoms: C1_5  and  C2_6
ROOT
HETATM    1  C1  UNL     1      -0.527  10.717   9.764  1.00  0.00     0.333 C
HETATM    2  N2  UNL     1       0.167   9.520  10.281  1.00  0.00    -0.296 N
ATOM      3  H2  UNL     1       0.575   9.373  11.204  1.00  0.00     0.167 HD
HETATM    4  C3  UNL     1       0.127   8.567   9.113  1.00  0.00     0.325 C
HETATM    5  O2  UNL     1       0.822   7.554   9.031  1.00  0.00    -0.247 OA
HETATM    6  N3  UNL     1      -0.803   9.027   8.176  1.00  0.00    -0.275 N
ATOM      7  H3  UNL     1      -1.031   8.587   7.285  1.00  0.00     0.173 HD
HETATM    8  C4  UNL     1      -1.388  10.258   8.711  1.00  0.00     0.290 C
HETATM    9  O3  UNL     1      -2.454  10.713   8.269  1.00  0.00    -0.268 OA
ENDROOT
BRANCH   1  10
HETATM   10  N1  UNL     1      -1.340  11.134  10.943  1.00  0.00    -0.036 N
ATOM     11  H13 UNL     1      -0.824  11.069  11.821  1.00  0.00     0.278 HD
ATOM     12  H12 UNL     1      -1.519  12.138  10.962  1.00  0.00     0.278 HD
ATOM     13  H11 UNL     1      -2.197  10.580  10.949  1.00  0.00     0.278 HD
ENDBRANCH   1  10
BRANCH   1  14
HETATM   14  C2  UNL     1       0.478  11.727   9.532  1.00  0.00     0.302 C
HETATM   15  O1  UNL     1       1.178  11.763   8.467  1.00  0.00    -0.302 OA
ENDBRANCH   1  14
TORSDOF 2
ENDMDL