MODEL 1
REMARK VINA RESULT: -6.378026173      0.000      0.000
REMARK  1 active torsions:
REMARK  status: ('A' for Active; 'I' for Inactive)
REMARK       I    between atoms: C1_2  and  N2_4
REMARK    1  A    between atoms: N2_4  and  N3_6
ROOT
HETATM    1  N3  UNL     1      -0.276   9.387   9.892  1.00  0.00    -0.276 N
ATOM      2  H3  UNL     1      -0.438   8.620   9.239  1.00  0.00     0.189 HD
HETATM    3  C2  UNL     1      -0.270  10.608   9.445  1.00  0.00     0.205 A
HETATM    4  N4  UNL     1      -0.080  11.853  10.072  1.00  0.00    -0.277 N
ATOM      5  H4  UNL     1       0.102  12.141  11.034  1.00  0.00     0.189 HD
HETATM    6  N5  UNL     1      -0.235  12.539   8.876  1.00  0.00    -0.262 N
ATOM      7  H5  UNL     1      -0.215  13.520   8.598  1.00  0.00     0.190 HD
HETATM    8  C3  UNL     1      -0.429  11.326   8.210  1.00  0.00     0.306 A
HETATM    9  O2  UNL     1      -0.653  10.989   7.018  1.00  0.00    -0.262 OA
ENDROOT
BRANCH   1  10
HETATM   10  N2  UNL     1      -0.068   9.098  11.240  1.00  0.00    -0.252 N
HETATM   11  C1  UNL     1      -1.081   8.593  12.089  1.00  0.00     0.347 C
HETATM   12  N1  UNL     1      -0.867   8.302  13.452  1.00  0.00    -0.038 NA
HETATM   13  O1  UNL     1      -2.211   8.401  11.591  1.00  0.00    -0.249 OA
ATOM     14  H2  UNL     1       0.860   9.258  11.633  1.00  0.00     0.191 HD
ENDBRANCH   1  10
TORSDOF 1
ENDMDL