MODEL 4
REMARK VINA RESULT: -5.354826491      1.671      3.841
REMARK  4 active torsions:
REMARK  status: ('A' for Active; 'I' for Inactive)
REMARK    1  A    between atoms: C2_2  and  N1_3
REMARK    2  A    between atoms: C2_2  and  C3_7
REMARK    3  A    between atoms: C2_2  and  C4_10
REMARK       I    between atoms: C4_10  and  N3_12
REMARK    4  A    between atoms: N3_12  and  N4_14
ROOT
HETATM    1  C1  UNL     1      -2.562   9.018   9.743  1.00  0.00     0.067 C
HETATM    2  C2  UNL     1      -1.063   8.834   9.954  1.00  0.00     0.277 C
ENDROOT
BRANCH   2   3
HETATM    3  N1  UNL     1      -0.546   7.777   9.108  1.00  0.00    -0.053 N
ATOM      4  H13 UNL     1      -0.650   8.002   8.118  1.00  0.00     0.276 HD
ATOM      5  H12 UNL     1       0.472   7.725   9.149  1.00  0.00     0.276 HD
ATOM      6  H11 UNL     1      -0.978   6.882   9.337  1.00  0.00     0.276 HD
ENDBRANCH   2   3
BRANCH   2   7
HETATM    7  C3  UNL     1      -0.833   8.444  11.363  1.00  0.00     0.276 C
HETATM    8  N2  UNL     1       0.143   7.493  11.680  1.00  0.00    -0.059 NA
HETATM    9  O1  UNL     1      -1.509   8.956  12.289  1.00  0.00    -0.274 OA
ENDBRANCH   2   7
BRANCH   2  10
HETATM   10  C4  UNL     1      -0.324  10.079   9.620  1.00  0.00     0.280 C
HETATM   11  O2  UNL     1       0.363  10.099   8.572  1.00  0.00    -0.268 OA
HETATM   12  N3  UNL     1      -0.362  11.233  10.428  1.00  0.00    -0.274 N
ATOM     13  H3  UNL     1      -0.913  11.246  11.286  1.00  0.00     0.189 HD
BRANCH  12  14
HETATM   14  N4  UNL     1       0.362  12.355  10.038  1.00  0.00    -0.343 N
ATOM     15  H42 UNL     1       0.139  12.815   9.155  1.00  0.00     0.176 HD
ATOM     16  H41 UNL     1       1.105  12.700  10.645  1.00  0.00     0.176 HD
ENDBRANCH  12  14
ENDBRANCH   2  10
TORSDOF 4
ENDMDL