MODEL 4
REMARK VINA RESULT: -5.883925715      2.092      2.786
REMARK  3 active torsions:
REMARK  status: ('A' for Active; 'I' for Inactive)
REMARK    1  A    between atoms: N1_1  and  N2_4
REMARK    2  A    between atoms: C2_11  and  N5_12
REMARK    3  A    between atoms: N5_12  and  C3_14
ROOT
HETATM    1  N2  UNL     1      -0.377  10.906   9.564  1.00  0.00    -0.035 N
HETATM    2  C1  UNL     1      -0.529  10.708   8.219  1.00  0.00     0.375 A
HETATM    3  O1  UNL     1      -0.150  11.539   7.352  1.00  0.00    -0.243 OA
HETATM    4  N3  UNL     1      -1.125   9.524   8.009  1.00  0.00    -0.235 N
ATOM      5  H3  UNL     1      -1.366   9.110   7.109  1.00  0.00     0.192 HD
HETATM    6  N4  UNL     1      -1.337   9.002   9.207  1.00  0.00    -0.126 N
ATOM      7  H4  UNL     1      -1.779   8.099   9.374  1.00  0.00     0.206 HD
HETATM    8  C2  UNL     1      -0.890   9.823  10.175  1.00  0.00     0.724 A
ENDROOT
BRANCH   8   9
HETATM    9  N5  UNL     1      -0.937   9.630  11.441  1.00  0.00    -0.164 N
ATOM     10  H5  UNL     1      -0.472  10.301  12.052  1.00  0.00     0.186 HD
BRANCH   9  11
HETATM   11  C3  UNL     1      -1.604   8.529  12.033  1.00  0.00     0.368 C
HETATM   12  O2  UNL     1      -1.238   7.349  11.727  1.00  0.00    -0.283 OA
ENDBRANCH   9  11
ENDBRANCH   8   9
BRANCH   1  13
HETATM   13  N1  UNL     1       0.208  12.039  10.133  1.00  0.00    -0.320 N
ATOM     14  H12 UNL     1       1.153  12.156  10.501  1.00  0.00     0.178 HD
ATOM     15  H11 UNL     1      -0.266  12.933  10.255  1.00  0.00     0.178 HD
ENDBRANCH   1  13
TORSDOF 3
ENDMDL