MODEL 4
REMARK VINA RESULT: -5.531845530      1.429      4.994
REMARK  2 active torsions:
REMARK  status: ('A' for Active; 'I' for Inactive)
REMARK       I    between atoms: C1_2  and  N2_4
REMARK    1  A    between atoms: N2_4  and  N3_5
REMARK       I    between atoms: N3_5  and  C2_7
REMARK    2  A    between atoms: C2_7  and  C3_9
REMARK       I    between atoms: C3_9  and  N4_10
ROOT
HETATM    1  N3  UNL     1      -0.878   9.962  10.343  1.00  0.00    -0.190 N
ATOM      2  H3  UNL     1       0.099  10.258  10.329  1.00  0.00     0.205 HD
HETATM    3  C2  UNL     1      -1.574  10.535   9.269  1.00  0.00     0.338 C
HETATM    4  O2  UNL     1      -2.779  10.333   9.066  1.00  0.00    -0.260 OA
ENDROOT
BRANCH   3   5
HETATM    5  C3  UNL     1      -0.835  11.428   8.341  1.00  0.00     0.309 C
HETATM    6  N4  UNL     1      -0.370  12.692   8.640  1.00  0.00    -0.362 N
ATOM      7  H42 UNL     1      -0.527  13.078   9.571  1.00  0.00     0.159 HD
ATOM      8  H41 UNL     1       0.138  13.305   8.003  1.00  0.00     0.159 HD
HETATM    9  O3  UNL     1      -0.635  10.938   7.159  1.00  0.00    -0.262 OA
ENDBRANCH   3   5
BRANCH   1  10
HETATM   10  N2  UNL     1      -1.092   9.177  11.341  1.00  0.00    -0.265 NA
HETATM   11  C1  UNL     1      -1.329   8.343  12.400  1.00  0.00     0.424 C
HETATM   12  N1  UNL     1      -0.151   8.096  13.283  1.00  0.00    -0.024 NA
HETATM   13  O1  UNL     1      -2.343   7.723  12.778  1.00  0.00    -0.232 OA
ENDBRANCH   1  10
TORSDOF 2
ENDMDL