MODEL 3
REMARK VINA RESULT: -6.368633154      1.833      2.280
REMARK  2 active torsions:
REMARK  status: ('A' for Active; 'I' for Inactive)
REMARK    1  A    between atoms: N1_1  and  N2_4
REMARK       I    between atoms: N2_4  and  C1_6
REMARK       I    between atoms: C1_6  and  N3_8
REMARK    2  A    between atoms: N3_8  and  C2_10
ROOT
HETATM    1  C2  UNL     1      -0.765  10.256  10.224  1.00  0.00     0.705 A
HETATM    2  N4  UNL     1      -1.947  10.726   9.809  1.00  0.00    -0.128 N
ATOM      3  H4  UNL     1      -2.866  10.384  10.091  1.00  0.00     0.205 HD
HETATM    4  N5  UNL     1      -1.705  11.710   8.968  1.00  0.00    -0.237 N
ATOM      5  H5  UNL     1      -2.420  12.259   8.490  1.00  0.00     0.192 HD
HETATM    6  C3  UNL     1      -0.384  11.887   8.831  1.00  0.00     0.353 A
HETATM    7  O2  UNL     1       0.240  12.736   8.110  1.00  0.00    -0.245 OA
HETATM    8  N6  UNL     1       0.196  10.971   9.622  1.00  0.00    -0.138 N
ATOM      9  H6  UNL     1       1.200  10.841   9.745  1.00  0.00     0.189 HD
ENDROOT
BRANCH   1  10
HETATM   10  N3  UNL     1      -0.619   9.286  11.058  1.00  0.00    -0.138 N
HETATM   11  C1  UNL     1      -0.299   7.968  10.705  1.00  0.00     0.352 C
HETATM   12  N2  UNL     1      -1.035   7.237   9.711  1.00  0.00    -0.258 N
HETATM   13  O1  UNL     1       0.668   7.402  11.277  1.00  0.00    -0.245 OA
ATOM     14  H2  UNL     1      -1.822   7.681   9.237  1.00  0.00     0.191 HD
ATOM     15  H3  UNL     1      -0.745   9.492  12.049  1.00  0.00     0.189 HD
BRANCH  12  16
HETATM   16  N1  UNL     1      -0.685   5.923   9.385  1.00  0.00    -0.341 N
ATOM     17  H12 UNL     1       0.107   5.769   8.761  1.00  0.00     0.177 HD
ATOM     18  H11 UNL     1      -1.210   5.135   9.764  1.00  0.00     0.177 HD
ENDBRANCH  12  16
ENDBRANCH   1  10
TORSDOF 2
ENDMDL