MODEL 3
REMARK VINA RESULT: -6.295514833      1.727      2.054
REMARK  1 active torsions:
REMARK  status: ('A' for Active; 'I' for Inactive)
REMARK    1  A    between atoms: C1_4  and  C2_6
ROOT
HETATM    1  C2  UNL     1      -0.545  10.115   9.496  1.00  0.00     0.157 A
HETATM    2  N3  UNL     1      -1.164  10.562  10.602  1.00  0.00    -0.289 N
ATOM      3  H3  UNL     1      -1.572  11.496  10.595  1.00  0.00     0.187 HD
HETATM    4  N4  UNL     1      -1.262   9.830  11.704  1.00  0.00    -0.251 N
ATOM      5  H4  UNL     1      -1.740  10.212  12.519  1.00  0.00     0.191 HD
HETATM    6  C3  UNL     1      -0.738   8.587  11.764  1.00  0.00     0.341 A
HETATM    7  O1  UNL     1      -0.859   7.921  12.848  1.00  0.00    -0.245 OA
HETATM    8  N5  UNL     1      -0.107   8.080  10.689  1.00  0.00    -0.272 N
ATOM      9  H5  UNL     1       0.294   7.143  10.717  1.00  0.00     0.174 HD
HETATM   10  C4  UNL     1      -0.012   8.831   9.576  1.00  0.00     0.281 A
HETATM   11  O2  UNL     1       0.573   8.390   8.547  1.00  0.00    -0.265 OA
ENDROOT
BRANCH   1  12
HETATM   12  C1  UNL     1      -0.426  10.899   8.278  1.00  0.00     0.144 C
HETATM   13  N1  UNL     1      -1.203  10.649   7.298  1.00  0.00    -0.386 N
ATOM     14  H12 UNL     1      -1.120  11.200   6.444  1.00  0.00     0.157 HD
ATOM     15  H11 UNL     1      -1.890   9.901   7.397  1.00  0.00     0.157 HD
HETATM   16  N2  UNL     1       0.522  11.932   8.142  1.00  0.00    -0.081 NA
ENDBRANCH   1  12
TORSDOF 1
ENDMDL