MODEL 4
REMARK VINA RESULT: -8.049191315      1.907      8.267
REMARK  6 active torsions:
REMARK  status: ('A' for Active; 'I' for Inactive)
REMARK       I    between atoms: N1_2  and  C2_4
REMARK    1  A    between atoms: C2_4  and  C3_6
REMARK    2  A    between atoms: C3_6  and  N2_7
REMARK    3  A    between atoms: N2_7  and  C4_10
REMARK       I    between atoms: N3_12  and  C6_13
REMARK       I    between atoms: C6_13  and  N4_15
REMARK    4  A    between atoms: N4_15  and  N5_17
REMARK    5  A    between atoms: N5_17  and  C7_19
REMARK    6  A    between atoms: C8_22  and  N7_23
ROOT
HETATM    1  C4  UNL     1      61.802  42.216  35.852  1.00  0.00     0.402 C
HETATM    2  C5  UNL     1      62.642  41.850  37.042  1.00  0.00     0.192 C
HETATM    3  N3  UNL     1      61.658  41.373  37.966  1.00  0.00    -0.305 N
HETATM    4  C6  UNL     1      61.837  40.328  38.904  1.00  0.00     0.338 C
HETATM    5  O2  UNL     1      60.882  39.985  39.688  1.00  0.00    -0.245 OA
HETATM    6  N4  UNL     1      63.048  39.612  39.031  1.00  0.00    -0.250 N
ATOM      7  H4  UNL     1      63.837  39.849  38.428  1.00  0.00     0.192 HD
HETATM    8  C10 UNL     1      60.473  42.142  37.764  1.00  0.00     0.363 C
HETATM    9  N9  UNL     1      60.431  42.308  36.332  1.00  0.00    -0.029 N
ATOM     10  H91 UNL     1      59.800  41.652  35.871  1.00  0.00     0.281 HD
ATOM     11  H92 UNL     1      59.962  43.166  36.042  1.00  0.00     0.281 HD
ENDROOT
BRANCH   6  12
HETATM   12  N5  UNL     1      63.181  38.601  39.957  1.00  0.00    -0.277 N
ATOM     13  H5  UNL     1      62.389  38.285  40.517  1.00  0.00     0.189 HD
BRANCH  12  14
HETATM   14  C7  UNL     1      64.493  38.005  40.103  1.00  0.00     0.188 A
HETATM   15  N6  UNL     1      65.404  38.252  39.252  1.00  0.00    -0.327 N
HETATM   16  C8  UNL     1      66.602  37.554  39.609  1.00  0.00     0.390 A
ATOM     17  H6  UNL     1      65.298  38.858  38.438  1.00  0.00     0.165 HD
HETATM   18  N8  UNL     1      66.322  36.817  40.810  1.00  0.00    -0.311 N
HETATM   19  C9  UNL     1      64.971  37.112  41.126  1.00  0.00     0.289 A
ATOM     20  H8  UNL     1      66.959  36.210  41.326  1.00  0.00     0.166 HD
HETATM   21  O3  UNL     1      64.278  36.690  42.109  1.00  0.00    -0.264 OA
BRANCH  16  22
HETATM   22  N7  UNL     1      66.946  36.681  38.500  1.00  0.00    -0.041 N
ATOM     23  H73 UNL     1      66.127  36.337  37.996  1.00  0.00     0.279 HD
ATOM     24  H72 UNL     1      67.382  37.177  37.723  1.00  0.00     0.279 HD
ATOM     25  H71 UNL     1      67.529  35.930  38.870  1.00  0.00     0.279 HD
ENDBRANCH  16  22
ENDBRANCH  12  14
ENDBRANCH   6  12
BRANCH   1  26
HETATM   26  N2  UNL     1      62.113  43.507  35.295  1.00  0.00    -0.036 N
ATOM     27  H22 UNL     1      61.314  43.901  34.797  1.00  0.00     0.280 HD
ATOM     28  H21 UNL     1      62.763  43.429  34.513  1.00  0.00     0.280 HD
BRANCH  26  29
HETATM   29  C3  UNL     1      62.605  44.410  36.300  1.00  0.00     0.337 C
BRANCH  29  30
HETATM   30  C2  UNL     1      61.726  45.607  36.429  1.00  0.00     0.243 C
HETATM   31  N1  UNL     1      62.165  46.779  37.087  1.00  0.00    -0.364 N
HETATM   32  C1  UNL     1      61.311  47.934  37.168  1.00  0.00     0.149 C
ATOM     33  H1  UNL     1      63.093  46.806  37.508  1.00  0.00     0.161 HD
HETATM   34  O1  UNL     1      60.585  45.564  35.941  1.00  0.00    -0.272 OA
ENDBRANCH  29  30
ENDBRANCH  26  29
ENDBRANCH   1  26
TORSDOF 6
ENDMDL