MODEL 1
REMARK VINA RESULT: -7.743773545      0.000      0.000
REMARK  9 active torsions:
REMARK  status: ('A' for Active; 'I' for Inactive)
REMARK       I    between atoms: C2_2  and  N1_4
REMARK    1  A    between atoms: N1_4  and  C3_6
REMARK    2  A    between atoms: C4_9  and  C5_10
REMARK    3  A    between atoms: C5_10  and  N3_11
REMARK    4  A    between atoms: C5_10  and  N4_15
REMARK       I    between atoms: N4_15  and  C6_17
REMARK    5  A    between atoms: C6_17  and  C7_19
REMARK    6  A    between atoms: C7_19  and  O3_20
REMARK    7  A    between atoms: C7_19  and  C8_22
REMARK    8  A    between atoms: C8_22  and  O4_24
REMARK    9  A    between atoms: N5_27  and  N6_28
ROOT
HETATM    1  C3  UNL     1      63.337  38.780  39.076  1.00  0.00     0.280 C
HETATM    2  N2  UNL     1      63.540  39.875  38.146  1.00  0.00    -0.363 N
ATOM      3  H2  UNL     1      64.438  39.959  37.670  1.00  0.00     0.161 HD
HETATM    4  C4  UNL     1      62.628  40.737  37.906  1.00  0.00     0.054 C
HETATM    5  C10 UNL     1      61.328  40.588  38.617  1.00  0.00     0.207 C
HETATM    6  N5  UNL     1      61.511  40.186  39.998  1.00  0.00    -0.259 N
HETATM    7  C11 UNL     1      62.573  39.277  40.265  1.00  0.00     0.280 C
HETATM    8  O5  UNL     1      62.848  38.917  41.433  1.00  0.00    -0.267 OA
ENDROOT
BRANCH   4   9
HETATM    9  C5  UNL     1      62.836  41.876  36.938  1.00  0.00     0.332 C
BRANCH   9  10
HETATM   10  N3  UNL     1      62.365  41.457  35.675  1.00  0.00    -0.053 N
ATOM     11  H33 UNL     1      61.843  40.582  35.717  1.00  0.00     0.277 HD
ATOM     12  H32 UNL     1      61.612  42.045  35.318  1.00  0.00     0.277 HD
ATOM     13  H31 UNL     1      63.166  41.411  35.045  1.00  0.00     0.277 HD
ENDBRANCH   9  10
BRANCH   9  14
HETATM   14  N4  UNL     1      62.287  43.096  37.441  1.00  0.00    -0.327 N
HETATM   15  C6  UNL     1      62.417  44.356  36.804  1.00  0.00     0.250 C
HETATM   16  O2  UNL     1      63.080  44.346  35.715  1.00  0.00    -0.271 OA
ATOM     17  H4  UNL     1      61.767  43.058  38.317  1.00  0.00     0.165 HD
BRANCH  15  18
HETATM   18  C7  UNL     1      61.868  45.617  37.291  1.00  0.00     0.238 C
BRANCH  18  19
HETATM   19  O3  UNL     1      62.725  46.661  36.859  1.00  0.00    -0.384 OA
ATOM     20  H3  UNL     1      62.288  47.486  37.030  1.00  0.00     0.210 HD
ENDBRANCH  18  19
BRANCH  18  21
HETATM   21  C8  UNL     1      60.513  45.976  36.710  1.00  0.00     0.152 C
HETATM   22  C9  UNL     1      60.463  47.329  36.076  1.00  0.00     0.042 C
BRANCH  21  23
HETATM   23  O4  UNL     1      60.241  45.024  35.696  1.00  0.00    -0.393 OA
ATOM     24  H4  UNL     1      59.418  45.280  35.296  1.00  0.00     0.210 HD
ENDBRANCH  21  23
ENDBRANCH  18  21
ENDBRANCH  15  18
ENDBRANCH   9  14
ENDBRANCH   4   9
BRANCH   1  25
HETATM   25  N1  UNL     1      64.635  38.305  39.478  1.00  0.00    -0.332 N
HETATM   26  C2  UNL     1      65.491  37.712  38.527  1.00  0.00     0.215 C
HETATM   27  C1  UNL     1      66.837  37.221  38.944  1.00  0.00     0.117 C
HETATM   28  O1  UNL     1      65.135  37.590  37.320  1.00  0.00    -0.274 OA
ATOM     29  H1  UNL     1      64.934  38.397  40.449  1.00  0.00     0.165 HD
ENDBRANCH   1  25
BRANCH   6  30
HETATM   30  N6  UNL     1      60.692  40.656  41.040  1.00  0.00    -0.340 N
ATOM     31  H62 UNL     1      59.793  40.215  41.233  1.00  0.00     0.177 HD
ATOM     32  H61 UNL     1      60.955  41.441  41.636  1.00  0.00     0.177 HD
ENDBRANCH   6  30
TORSDOF 9
ENDMDL