MODEL 1
REMARK VINA RESULT: -7.385109027      0.000      0.000
REMARK  8 active torsions:
REMARK  status: ('A' for Active; 'I' for Inactive)
REMARK    1  A    between atoms: N1_1  and  C1_5
REMARK    2  A    between atoms: C1_5  and  C2_6
REMARK    3  A    between atoms: N2_7  and  C3_9
REMARK    4  A    between atoms: N4_17  and  C7_18
REMARK    5  A    between atoms: C7_18  and  C8_19
REMARK    6  A    between atoms: C8_19  and  O3_20
REMARK    7  A    between atoms: C8_19  and  O4_22
REMARK    8  A    between atoms: O4_22  and  N5_23
ROOT
HETATM    1  C3  UNL     1      63.104  38.975  37.793  1.00  0.00     0.686 A
HETATM    2  N3  UNL     1      62.330  39.243  38.853  1.00  0.00    -0.155 N
ATOM      3  H3  UNL     1      62.157  38.494  39.524  1.00  0.00     0.187 HD
HETATM    4  C4  UNL     1      61.760  40.462  39.087  1.00  0.00     0.279 A
HETATM    5  O1  UNL     1      61.041  40.708  40.076  1.00  0.00    -0.266 OA
HETATM    6  C5  UNL     1      61.996  41.471  38.179  1.00  0.00     0.145 A
HETATM    7  C6  UNL     1      61.433  42.722  38.382  1.00  0.00     0.271 A
HETATM    8  O2  UNL     1      60.718  42.943  39.379  1.00  0.00    -0.267 OA
HETATM    9  N4  UNL     1      61.673  43.698  37.486  1.00  0.00    -0.261 N
HETATM   10  C9  UNL     1      62.450  43.432  36.420  1.00  0.00     0.331 A
HETATM   11  O5  UNL     1      62.644  44.389  35.603  1.00  0.00    -0.246 OA
HETATM   12  N6  UNL     1      63.009  42.248  36.184  1.00  0.00    -0.293 N
ATOM     13  H6  UNL     1      63.590  42.099  35.359  1.00  0.00     0.172 HD
HETATM   14  C10 UNL     1      62.786  41.237  37.074  1.00  0.00     0.146 A
HETATM   15  N7  UNL     1      63.301  40.033  36.918  1.00  0.00    -0.175 N
ATOM     16  H7  UNL     1      63.884  39.868  36.097  1.00  0.00     0.186 HD
ENDROOT
BRANCH   1  17
HETATM   17  N2  UNL     1      63.652  37.923  37.503  1.00  0.00    -0.203 N
HETATM   18  C2  UNL     1      64.758  37.157  37.725  1.00  0.00     0.106 C
ATOM     19  H2  UNL     1      63.054  37.427  36.842  1.00  0.00     0.183 HD
BRANCH  18  20
HETATM   20  C1  UNL     1      65.813  37.729  38.636  1.00  0.00     0.274 C
BRANCH  20  21
HETATM   21  N1  UNL     1      66.891  36.712  38.649  1.00  0.00    -0.075 N
ATOM     22  H13 UNL     1      67.517  36.761  37.846  1.00  0.00     0.274 HD
ATOM     23  H12 UNL     1      67.604  36.873  39.362  1.00  0.00     0.274 HD
ATOM     24  H11 UNL     1      66.406  35.820  38.743  1.00  0.00     0.274 HD
ENDBRANCH  20  21
ENDBRANCH  18  20
ENDBRANCH   1  17
BRANCH   9  25
HETATM   25  C7  UNL     1      61.086  45.007  37.698  1.00  0.00     0.200 C
BRANCH  25  26
HETATM   26  C8  UNL     1      59.640  45.069  37.257  1.00  0.00     0.303 C
BRANCH  26  27
HETATM   27  O3  UNL     1      58.864  45.133  38.410  1.00  0.00    -0.367 OA
ATOM     28  H3  UNL     1      57.981  44.879  38.167  1.00  0.00     0.212 HD
ENDBRANCH  26  27
BRANCH  26  29
HETATM   29  O4  UNL     1      59.410  46.210  36.522  1.00  0.00    -0.253 OA
BRANCH  29  30
HETATM   30  N5  UNL     1      60.535  46.602  35.878  1.00  0.00    -0.308 N
ATOM     31  H52 UNL     1      61.478  46.389  36.203  1.00  0.00     0.184 HD
ATOM     32  H51 UNL     1      60.305  47.131  35.036  1.00  0.00     0.184 HD
ENDBRANCH  29  30
ENDBRANCH  26  29
ENDBRANCH  25  26
ENDBRANCH   9  25
TORSDOF 8
ENDMDL