MODEL 3
REMARK VINA RESULT: -7.614473613      1.346      1.589
REMARK  7 active torsions:
REMARK  status: ('A' for Active; 'I' for Inactive)
REMARK    1  A    between atoms: C3_3  and  N1_4
REMARK    2  A    between atoms: C8_16  and  C10_19
REMARK    3  A    between atoms: C10_19  and  N5_20
REMARK    4  A    between atoms: C10_19  and  N8_25
REMARK    5  A    between atoms: N8_25  and  C12_28
REMARK    6  A    between atoms: C12_28  and  N9_29
REMARK    7  A    between atoms: C12_28  and  O3_33
ROOT
HETATM    1  C1  UNL     1      57.751  40.868  41.218  1.00  0.00     0.018 C
HETATM    2  C2  UNL     1      58.877  41.234  41.217  1.00  0.00    -0.071 C
HETATM    3  C3  UNL     1      60.245  41.695  41.197  1.00  0.00     0.179 C
ENDROOT
BRANCH   3   4
HETATM    4  N1  UNL     1      61.106  40.843  40.489  1.00  0.00    -0.145 N
HETATM    5  C4  UNL     1      61.600  39.640  41.137  1.00  0.00     0.686 A
HETATM    6  N2  UNL     1      61.179  39.436  42.319  1.00  0.00    -0.234 N
HETATM    7  N3  UNL     1      62.485  38.719  40.556  1.00  0.00    -0.152 N
ATOM      8  H22 UNL     1      60.536  40.106  42.741  1.00  0.00     0.174 HD
ATOM      9  H21 UNL     1      61.526  38.591  42.774  1.00  0.00     0.174 HD
HETATM   10  C5  UNL     1      62.950  38.939  39.262  1.00  0.00     0.312 A
ATOM     11  H3  UNL     1      62.785  37.895  41.077  1.00  0.00     0.187 HD
HETATM   12  O1  UNL     1      63.744  38.110  38.756  1.00  0.00    -0.263 OA
HETATM   13  C6  UNL     1      62.495  40.138  38.534  1.00  0.00     0.268 A
HETATM   14  O2  UNL     1      62.987  40.220  37.396  1.00  0.00    -0.280 OA
HETATM   15  C7  UNL     1      61.551  41.105  39.164  1.00  0.00     0.133 A
HETATM   16  C8  UNL     1      61.162  42.074  38.384  1.00  0.00     0.104 C
HETATM   17  C9  UNL     1      60.168  43.102  38.730  1.00  0.00     0.101 C
HETATM   18  N4  UNL     1      59.366  43.941  38.949  1.00  0.00    -0.191 NA
BRANCH  16  19
HETATM   19  C10 UNL     1      61.652  42.357  36.983  1.00  0.00     0.338 C
BRANCH  19  20
HETATM   20  N5  UNL     1      62.630  43.351  36.934  1.00  0.00    -0.335 N
HETATM   21  C11 UNL     1      62.758  44.531  36.628  1.00  0.00     0.198 C
HETATM   22  N6  UNL     1      61.736  45.374  36.145  1.00  0.00    -0.067 NA
HETATM   23  N7  UNL     1      64.064  45.123  36.772  1.00  0.00    -0.067 NA
ATOM     24  H5  UNL     1      63.522  42.976  37.254  1.00  0.00     0.164 HD
ENDBRANCH  19  20
BRANCH  19  25
HETATM   25  N8  UNL     1      60.498  42.763  36.132  1.00  0.00     0.003 N
ATOM     26  H82 UNL     1      59.607  42.549  36.580  1.00  0.00     0.285 HD
ATOM     27  H81 UNL     1      60.407  43.778  36.081  1.00  0.00     0.285 HD
BRANCH  25  28
HETATM   28  C12 UNL     1      60.588  42.171  34.818  1.00  0.00     0.522 C
BRANCH  28  29
HETATM   29  N9  UNL     1      61.080  43.187  33.893  1.00  0.00    -0.027 N
ATOM     30  H93 UNL     1      61.586  42.789  33.103  1.00  0.00     0.279 HD
ATOM     31  H92 UNL     1      60.331  43.634  33.365  1.00  0.00     0.279 HD
ATOM     32  H91 UNL     1      61.640  43.855  34.424  1.00  0.00     0.279 HD
ENDBRANCH  28  29
BRANCH  28  33
HETATM   33  O3  UNL     1      59.466  41.569  34.336  1.00  0.00    -0.349 OA
ATOM     34  H3  UNL     1      59.109  41.911  33.524  1.00  0.00     0.213 HD
ENDBRANCH  28  33
ENDBRANCH  25  28
ENDBRANCH  19  25
ENDBRANCH  16  19
ENDBRANCH   3   4
TORSDOF 7
ENDMDL