MODEL 3
REMARK VINA RESULT: -7.816512258      1.446      1.664
REMARK  8 active torsions:
REMARK  status: ('A' for Active; 'I' for Inactive)
REMARK    1  A    between atoms: N1_1  and  N2_4
REMARK       I    between atoms: N2_4  and  C1_6
REMARK    2  A    between atoms: C1_6  and  C2_8
REMARK    3  A    between atoms: N4_11  and  C3_12
REMARK    4  A    between atoms: C3_12  and  C4_13
REMARK       I    between atoms: C4_13  and  N5_15
REMARK    5  A    between atoms: N5_15  and  N6_17
REMARK       I    between atoms: N6_17  and  C5_19
REMARK    6  A    between atoms: C5_19  and  C6_21
REMARK    7  A    between atoms: C6_21  and  N7_22
REMARK    8  A    between atoms: C6_21  and  O4_26
ROOT
HETATM    1  C2  UNL     1      62.784  39.383  38.993  1.00  0.00     0.186 A
HETATM    2  N3  UNL     1      62.171  40.252  38.209  1.00  0.00    -0.284 N
ATOM      3  H3  UNL     1      62.533  40.381  37.264  1.00  0.00     0.187 HD
HETATM    4  N4  UNL     1      61.115  40.965  38.571  1.00  0.00    -0.233 N
HETATM    5  C7  UNL     1      60.612  40.816  39.811  1.00  0.00     0.344 A
HETATM    6  O5  UNL     1      59.613  41.453  40.234  1.00  0.00    -0.245 OA
HETATM    7  N8  UNL     1      61.212  39.936  40.644  1.00  0.00    -0.272 N
ATOM      8  H8  UNL     1      60.839  39.817  41.585  1.00  0.00     0.174 HD
HETATM    9  C8  UNL     1      62.296  39.204  40.271  1.00  0.00     0.283 A
HETATM   10  O6  UNL     1      62.856  38.383  41.049  1.00  0.00    -0.265 OA
ENDROOT
BRANCH   4  11
HETATM   11  C3  UNL     1      60.459  41.911  37.695  1.00  0.00     0.258 C
BRANCH  11  12
HETATM   12  C4  UNL     1      61.108  43.219  37.617  1.00  0.00     0.256 C
HETATM   13  O2  UNL     1      62.292  43.312  37.215  1.00  0.00    -0.270 OA
HETATM   14  N5  UNL     1      60.458  44.424  37.983  1.00  0.00    -0.266 N
ATOM     15  H5  UNL     1      59.494  44.372  38.314  1.00  0.00     0.190 HD
BRANCH  14  16
HETATM   16  N6  UNL     1      61.062  45.673  37.916  1.00  0.00    -0.264 N
HETATM   17  C5  UNL     1      60.700  46.679  37.001  1.00  0.00     0.292 C
HETATM   18  O3  UNL     1      59.779  46.461  36.184  1.00  0.00    -0.267 OA
ATOM     19  H6  UNL     1      61.817  45.873  38.572  1.00  0.00     0.190 HD
BRANCH  17  20
HETATM   20  C6  UNL     1      61.388  47.980  36.990  1.00  0.00     0.411 C
BRANCH  20  21
HETATM   21  N7  UNL     1      61.935  48.354  38.261  1.00  0.00    -0.044 N
ATOM     22  H73 UNL     1      61.900  49.366  38.384  1.00  0.00     0.278 HD
ATOM     23  H72 UNL     1      61.314  48.068  39.018  1.00  0.00     0.278 HD
ATOM     24  H71 UNL     1      62.880  48.004  38.419  1.00  0.00     0.278 HD
ENDBRANCH  20  21
BRANCH  20  25
HETATM   25  O4  UNL     1      62.365  47.999  35.990  1.00  0.00    -0.363 OA
ATOM     26  H4  UNL     1      63.213  48.210  36.365  1.00  0.00     0.212 HD
ENDBRANCH  20  25
ENDBRANCH  17  20
ENDBRANCH  14  16
ENDBRANCH  11  12
ENDBRANCH   4  11
BRANCH   1  27
HETATM   27  C1  UNL     1      63.964  38.593  38.587  1.00  0.00     0.293 C
HETATM   28  N2  UNL     1      63.794  37.471  37.742  1.00  0.00    -0.271 N
ATOM     29  H2  UNL     1      62.867  37.203  37.412  1.00  0.00     0.189 HD
HETATM   30  O1  UNL     1      65.109  38.899  38.977  1.00  0.00    -0.264 OA
BRANCH  28  31
HETATM   31  N1  UNL     1      64.925  36.738  37.368  1.00  0.00    -0.342 N
ATOM     32  H12 UNL     1      65.807  37.221  37.194  1.00  0.00     0.176 HD
ATOM     33  H11 UNL     1      64.842  35.725  37.276  1.00  0.00     0.176 HD
ENDBRANCH  28  31
ENDBRANCH   1  27
TORSDOF 8
ENDMDL