MODEL 5
REMARK VINA RESULT: -7.303589674      1.594      1.764
REMARK  8 active torsions:
REMARK  status: ('A' for Active; 'I' for Inactive)
REMARK    1  A    between atoms: N1_1  and  C1_4
REMARK    2  A    between atoms: C4_10  and  N3_11
REMARK    3  A    between atoms: N3_11  and  N4_13
REMARK    4  A    between atoms: N6_20  and  C6_21
REMARK    5  A    between atoms: C6_21  and  C7_22
REMARK    6  A    between atoms: C7_22  and  C8_24
REMARK    7  A    between atoms: C8_24  and  O4_25
REMARK    8  A    between atoms: C8_24  and  C9_27
ROOT
HETATM    1  C1  UNL     1      63.478  38.429  37.941  1.00  0.00     0.680 A
HETATM    2  N2  UNL     1      63.804  37.946  39.148  1.00  0.00    -0.155 N
ATOM      3  H2  UNL     1      64.454  37.165  39.239  1.00  0.00     0.187 HD
HETATM    4  C2  UNL     1      63.257  38.511  40.231  1.00  0.00     0.277 A
HETATM    5  O1  UNL     1      63.516  38.109  41.409  1.00  0.00    -0.266 OA
HETATM    6  C3  UNL     1      62.378  39.570  40.086  1.00  0.00     0.123 A
HETATM    7  C4  UNL     1      61.808  40.161  41.195  1.00  0.00     0.143 A
HETATM    8  N5  UNL     1      60.962  41.184  40.982  1.00  0.00    -0.292 N
ATOM      9  H5  UNL     1      60.523  41.642  41.782  1.00  0.00     0.172 HD
HETATM   10  C5  UNL     1      60.679  41.621  39.742  1.00  0.00     0.330 A
HETATM   11  O2  UNL     1      59.869  42.595  39.603  1.00  0.00    -0.246 OA
HETATM   12  N6  UNL     1      61.217  41.071  38.623  1.00  0.00    -0.277 N
HETATM   13  C10 UNL     1      62.057  40.054  38.818  1.00  0.00     0.147 A
HETATM   14  N8  UNL     1      62.630  39.455  37.762  1.00  0.00    -0.175 N
ATOM     15  H8  UNL     1      62.420  39.781  36.818  1.00  0.00     0.186 HD
ENDROOT
BRANCH  12  16
HETATM   16  C6  UNL     1      60.855  41.602  37.335  1.00  0.00     0.217 C
BRANCH  16  17
HETATM   17  C7  UNL     1      61.907  42.499  36.785  1.00  0.00     0.182 C
HETATM   18  O3  UNL     1      63.072  42.396  37.202  1.00  0.00    -0.293 OA
BRANCH  17  19
HETATM   19  C8  UNL     1      61.599  43.507  35.756  1.00  0.00     0.278 C
BRANCH  19  20
HETATM   20  O4  UNL     1      62.743  43.807  34.999  1.00  0.00    -0.379 OA
ATOM     21  H4  UNL     1      62.544  43.790  34.071  1.00  0.00     0.211 HD
ENDBRANCH  19  20
BRANCH  19  22
HETATM   22  C9  UNL     1      60.488  43.171  34.861  1.00  0.00     0.267 C
HETATM   23  N7  UNL     1      60.476  41.908  34.211  1.00  0.00    -0.059 NA
HETATM   24  O5  UNL     1      59.516  43.928  34.612  1.00  0.00    -0.274 OA
ENDBRANCH  19  22
ENDBRANCH  17  19
ENDBRANCH  16  17
ENDBRANCH  12  16
BRANCH   7  25
HETATM   25  N3  UNL     1      62.092  39.726  42.393  1.00  0.00    -0.291 N
ATOM     26  H3  UNL     1      63.011  39.914  42.793  1.00  0.00     0.188 HD
BRANCH  25  27
HETATM   27  N4  UNL     1      61.158  39.009  43.127  1.00  0.00    -0.344 N
ATOM     28  H42 UNL     1      60.241  38.836  42.715  1.00  0.00     0.176 HD
ATOM     29  H41 UNL     1      61.383  38.663  44.060  1.00  0.00     0.176 HD
ENDBRANCH  25  27
ENDBRANCH   7  25
BRANCH   1  30
HETATM   30  N1  UNL     1      64.016  37.870  36.907  1.00  0.00    -0.234 N
ATOM     31  H12 UNL     1      63.452  37.246  36.331  1.00  0.00     0.174 HD
ATOM     32  H11 UNL     1      64.994  38.082  36.710  1.00  0.00     0.174 HD
ENDBRANCH   1  30
TORSDOF 8
ENDMDL