MODEL 4
REMARK VINA RESULT: -7.535006617      3.101      4.862
REMARK  7 active torsions:
REMARK  status: ('A' for Active; 'I' for Inactive)
REMARK    1  A    between atoms: N1_1  and  N2_4
REMARK    2  A    between atoms: N2_4  and  C1_5
REMARK    3  A    between atoms: C2_8  and  N4_9
REMARK       I    between atoms: N4_9  and  C3_11
REMARK    4  A    between atoms: C3_11  and  C4_13
REMARK    5  A    between atoms: C4_13  and  N5_14
REMARK    6  A    between atoms: C4_13  and  C5_18
REMARK       I    between atoms: C5_18  and  N6_20
REMARK    7  A    between atoms: N6_20  and  C6_22
ROOT
HETATM    1  C4  UNL     1      61.005  42.623  35.875  1.00  0.00     0.366 C
ENDROOT
BRANCH   1   2
HETATM    2  C3  UNL     1      61.625  41.723  36.861  1.00  0.00     0.264 C
HETATM    3  N4  UNL     1      62.710  40.863  36.562  1.00  0.00    -0.290 N
ATOM      4  H4  UNL     1      63.098  40.851  35.620  1.00  0.00     0.172 HD
HETATM    5  O1  UNL     1      61.151  41.732  38.029  1.00  0.00    -0.270 OA
BRANCH   3   6
HETATM    6  C2  UNL     1      63.276  39.999  37.582  1.00  0.00     0.228 A
HETATM    7  N3  UNL     1      63.805  40.169  38.732  1.00  0.00    -0.314 N
HETATM    8  C1  UNL     1      64.045  38.793  38.958  1.00  0.00     0.351 A
ATOM      9  H3  UNL     1      63.989  41.002  39.291  1.00  0.00     0.167 HD
HETATM   10  O4  UNL     1      63.465  38.640  37.706  1.00  0.00    -0.279 OA
BRANCH   8  11
HETATM   11  N2  UNL     1      65.451  38.463  39.059  1.00  0.00    -0.094 NA
BRANCH  11  12
HETATM   12  N1  UNL     1      65.577  37.104  38.742  1.00  0.00    -0.344 N
ATOM     13  H12 UNL     1      66.330  36.488  39.049  1.00  0.00     0.172 HD
ATOM     14  H11 UNL     1      64.781  36.860  38.153  1.00  0.00     0.172 HD
ENDBRANCH  11  12
ENDBRANCH   8  11
ENDBRANCH   3   6
ENDBRANCH   1   2
BRANCH   1  15
HETATM   15  N5  UNL     1      61.194  42.180  34.522  1.00  0.00    -0.058 N
ATOM     16  H53 UNL     1      61.660  41.272  34.497  1.00  0.00     0.275 HD
ATOM     17  H52 UNL     1      60.305  41.922  34.094  1.00  0.00     0.275 HD
ATOM     18  H51 UNL     1      61.690  42.863  33.949  1.00  0.00     0.275 HD
ENDBRANCH   1  15
BRANCH   1  19
HETATM   19  C5  UNL     1      61.673  43.965  36.018  1.00  0.00     0.263 C
HETATM   20  O2  UNL     1      62.919  44.063  36.225  1.00  0.00    -0.270 OA
HETATM   21  N6  UNL     1      60.952  45.179  35.928  1.00  0.00    -0.309 N
ATOM     22  H6  UNL     1      60.594  45.472  35.018  1.00  0.00     0.170 HD
BRANCH  21  23
HETATM   23  C6  UNL     1      60.730  45.926  36.949  1.00  0.00     0.137 A
HETATM   24  N7  UNL     1      60.132  45.428  38.041  1.00  0.00    -0.293 N
HETATM   25  C7  UNL     1      59.916  46.229  39.089  1.00  0.00     0.325 A
ATOM     26  H7  UNL     1      59.846  44.448  38.071  1.00  0.00     0.172 HD
HETATM   27  O3  UNL     1      59.358  45.773  40.114  1.00  0.00    -0.247 OA
HETATM   28  N8  UNL     1      60.272  47.528  39.099  1.00  0.00    -0.317 N
HETATM   29  C8  UNL     1      60.872  48.057  38.023  1.00  0.00     0.123 A
ATOM     30  H8  UNL     1      60.088  48.104  39.921  1.00  0.00     0.170 HD
HETATM   31  C9  UNL     1      61.100  47.245  36.942  1.00  0.00     0.106 A
HETATM   32  N9  UNL     1      61.743  47.833  35.803  1.00  0.00    -0.097 NA
ENDBRANCH  21  23
ENDBRANCH   1  19
TORSDOF 7
ENDMDL