MODEL 2
REMARK VINA RESULT: -7.764865876      1.321      1.632
REMARK  9 active torsions:
REMARK  status: ('A' for Active; 'I' for Inactive)
REMARK    1  A    between atoms: C2_2  and  N1_3
REMARK    2  A    between atoms: C3_4  and  C4_5
REMARK       I    between atoms: C4_5  and  N2_7
REMARK    3  A    between atoms: N2_7  and  C5_9
REMARK    4  A    between atoms: C5_9  and  C6_10
REMARK    5  A    between atoms: C6_10  and  N3_11
REMARK    6  A    between atoms: C6_10  and  O2_15
REMARK    7  A    between atoms: C7_19  and  N5_20
REMARK    8  A    between atoms: N5_20  and  N6_22
REMARK       I    between atoms: N6_22  and  C8_24
REMARK    9  A    between atoms: N8_26  and  N9_28
ROOT
HETATM    1  N1  UNL     1      62.794  39.054  40.290  1.00  0.00    -0.280 N
HETATM    2  C3  UNL     1      63.322  39.055  39.078  1.00  0.00     0.195 A
HETATM    3  N4  UNL     1      62.699  39.816  38.123  1.00  0.00    -0.169 N
ATOM      4  H4  UNL     1      63.094  39.831  37.182  1.00  0.00     0.186 HD
HETATM    5  C7  UNL     1      61.601  40.538  38.362  1.00  0.00     0.702 A
HETATM    6  N10 UNL     1      61.104  40.499  39.612  1.00  0.00    -0.139 N
ATOM      7  H10 UNL     1      60.266  41.041  39.823  1.00  0.00     0.189 HD
HETATM    8  C9  UNL     1      61.664  39.778  40.590  1.00  0.00     0.342 A
HETATM    9  O3  UNL     1      61.192  39.751  41.744  1.00  0.00    -0.246 OA
ENDROOT
BRANCH   2  10
HETATM   10  C4  UNL     1      64.450  38.231  38.687  1.00  0.00     0.286 C
HETATM   11  O1  UNL     1      64.258  37.349  37.775  1.00  0.00    -0.264 OA
HETATM   12  N2  UNL     1      65.740  38.328  39.248  1.00  0.00    -0.350 N
ATOM     13  H2  UNL     1      65.900  39.017  39.983  1.00  0.00     0.163 HD
BRANCH  12  14
HETATM   14  C5  UNL     1      66.849  37.494  38.828  1.00  0.00     0.183 C
BRANCH  14  15
HETATM   15  C6  UNL     1      67.761  37.097  39.964  1.00  0.00     0.334 C
BRANCH  15  16
HETATM   16  N3  UNL     1      68.569  35.989  39.481  1.00  0.00    -0.051 N
ATOM     17  H33 UNL     1      68.027  35.279  38.989  1.00  0.00     0.277 HD
ATOM     18  H32 UNL     1      69.181  36.244  38.705  1.00  0.00     0.277 HD
ATOM     19  H31 UNL     1      69.074  35.623  40.288  1.00  0.00     0.277 HD
ENDBRANCH  15  16
BRANCH  15  20
HETATM   20  O2  UNL     1      68.628  38.142  40.293  1.00  0.00    -0.369 OA
ATOM     21  H2  UNL     1      69.051  38.487  39.516  1.00  0.00     0.212 HD
ENDBRANCH  15  20
ENDBRANCH  14  15
ENDBRANCH  12  14
ENDBRANCH   2  10
BRANCH   1  22
HETATM   22  C2  UNL     1      63.381  38.396  41.426  1.00  0.00     0.131 C
HETATM   23  C1  UNL     1      63.120  36.881  41.286  1.00  0.00     0.027 C
ENDBRANCH   1  22
BRANCH   5  24
HETATM   24  N5  UNL     1      61.039  41.242  37.436  1.00  0.00    -0.129 N
ATOM     25  H5  UNL     1      60.079  41.545  37.600  1.00  0.00     0.205 HD
BRANCH  24  26
HETATM   26  N6  UNL     1      61.626  41.622  36.239  1.00  0.00    -0.258 N
HETATM   27  C8  UNL     1      61.000  42.376  35.221  1.00  0.00     0.222 C
HETATM   28  N7  UNL     1      59.753  41.980  34.671  1.00  0.00    -0.061 NA
HETATM   29  N8  UNL     1      61.582  43.442  34.790  1.00  0.00    -0.279 N
ATOM     30  H8  UNL     1      61.123  43.979  34.055  1.00  0.00     0.189 HD
ATOM     31  H6  UNL     1      62.591  41.332  36.079  1.00  0.00     0.190 HD
BRANCH  29  32
HETATM   32  N9  UNL     1      62.797  43.899  35.272  1.00  0.00    -0.343 N
ATOM     33  H92 UNL     1      62.772  44.551  36.056  1.00  0.00     0.176 HD
ATOM     34  H91 UNL     1      63.699  43.619  34.885  1.00  0.00     0.176 HD
ENDBRANCH  29  32
ENDBRANCH  24  26
ENDBRANCH   5  24
TORSDOF 9
ENDMDL