MODEL 3
REMARK VINA RESULT: -8.155623171      2.036      7.045
REMARK  7 active torsions:
REMARK  status: ('A' for Active; 'I' for Inactive)
REMARK    1  A    between atoms: N1_1  and  N2_4
REMARK       I    between atoms: N2_4  and  C1_6
REMARK    2  A    between atoms: C1_6  and  C2_8
REMARK    3  A    between atoms: C2_8  and  N3_9
REMARK    4  A    between atoms: C2_8  and  C3_13
REMARK    5  A    between atoms: C3_13  and  O2_14
REMARK    6  A    between atoms: C3_13  and  C4_16
REMARK    7  A    between atoms: C4_16  and  C5_17
ROOT
HETATM    1  C5  UNL     1      61.616  41.880  37.392  1.00  0.00     0.178 A
HETATM    2  N4  UNL     1      62.573  40.914  37.025  1.00  0.00    -0.361 N
ATOM      3  H4  UNL     1      62.996  40.967  36.098  1.00  0.00     0.162 HD
HETATM    4  C6  UNL     1      62.931  39.971  37.813  1.00  0.00     0.138 A
HETATM    5  N5  UNL     1      63.867  39.066  37.392  1.00  0.00    -0.293 N
ATOM      6  H5  UNL     1      64.256  39.171  36.455  1.00  0.00     0.172 HD
HETATM    7  C7  UNL     1      64.300  38.049  38.152  1.00  0.00     0.328 A
HETATM    8  O3  UNL     1      65.175  37.249  37.685  1.00  0.00    -0.247 OA
HETATM    9  N6  UNL     1      63.805  37.891  39.392  1.00  0.00    -0.273 N
ATOM     10  H6  UNL     1      64.139  37.115  39.963  1.00  0.00     0.173 HD
HETATM   11  C8  UNL     1      62.894  38.713  39.895  1.00  0.00     0.280 A
HETATM   12  O4  UNL     1      62.395  38.614  41.048  1.00  0.00    -0.265 OA
HETATM   13  C9  UNL     1      62.452  39.771  39.088  1.00  0.00     0.148 A
HETATM   14  N7  UNL     1      61.574  40.593  39.528  1.00  0.00    -0.318 N
ATOM     15  H7  UNL     1      61.201  40.467  40.469  1.00  0.00     0.169 HD
HETATM   16  C10 UNL     1      61.111  41.661  38.745  1.00  0.00     0.245 A
HETATM   17  O5  UNL     1      60.236  42.414  39.290  1.00  0.00    -0.271 OA
ENDROOT
BRANCH   1  18
HETATM   18  C4  UNL     1      60.517  42.079  36.375  1.00  0.00     0.069 C
BRANCH  18  19
HETATM   19  C3  UNL     1      60.378  43.507  35.939  1.00  0.00     0.160 C
BRANCH  19  20
HETATM   20  C2  UNL     1      61.700  44.204  36.255  1.00  0.00     0.304 C
BRANCH  20  21
HETATM   21  C1  UNL     1      61.515  45.666  36.377  1.00  0.00     0.268 C
HETATM   22  N2  UNL     1      62.445  46.448  37.092  1.00  0.00    -0.275 N
ATOM     23  H2  UNL     1      63.247  45.990  37.524  1.00  0.00     0.189 HD
HETATM   24  O1  UNL     1      60.524  46.229  35.843  1.00  0.00    -0.269 OA
BRANCH  22  25
HETATM   25  N1  UNL     1      62.300  47.827  37.226  1.00  0.00    -0.343 N
ATOM     26  H12 UNL     1      61.713  48.175  37.984  1.00  0.00     0.176 HD
ATOM     27  H11 UNL     1      62.761  48.482  36.595  1.00  0.00     0.176 HD
ENDBRANCH  22  25
ENDBRANCH  20  21
BRANCH  20  28
HETATM   28  N3  UNL     1      62.669  43.939  35.210  1.00  0.00    -0.064 N
ATOM     29  H33 UNL     1      62.613  42.982  34.861  1.00  0.00     0.275 HD
ATOM     30  H32 UNL     1      62.443  44.420  34.339  1.00  0.00     0.275 HD
ATOM     31  H31 UNL     1      63.600  44.174  35.555  1.00  0.00     0.275 HD
ENDBRANCH  20  28
ENDBRANCH  19  20
BRANCH  19  32
HETATM   32  O2  UNL     1      60.126  43.629  34.590  1.00  0.00    -0.393 OA
ATOM     33  H2  UNL     1      59.203  43.468  34.437  1.00  0.00     0.210 HD
ENDBRANCH  19  32
ENDBRANCH  18  19
ENDBRANCH   1  18
TORSDOF 7
ENDMDL