MODEL 3
REMARK VINA RESULT: -7.364266056      4.156      6.997
REMARK  7 active torsions:
REMARK  status: ('A' for Active; 'I' for Inactive)
REMARK    1  A    between atoms: C1_4  and  N2_5
REMARK    2  A    between atoms: C1_4  and  C10_28
REMARK    3  A    between atoms: C7_20  and  O3_21
REMARK    4  A    between atoms: N6_23  and  C8_24
REMARK    5  A    between atoms: C8_24  and  C9_25
REMARK    6  A    between atoms: C10_28  and  N8_29
REMARK    7  A    between atoms: C10_28  and  N9_33
ROOT
HETATM    1  N2  UNL     1      60.727  41.871  37.299  1.00  0.00    -0.337 N
ATOM      2  H2  UNL     1      60.521  40.884  37.450  1.00  0.00     0.167 HD
HETATM    3  C2  UNL     1      60.330  42.651  38.180  1.00  0.00     0.133 C
HETATM    4  C3  UNL     1      59.645  42.092  39.281  1.00  0.00     0.278 C
HETATM    5  O1  UNL     1      59.951  40.901  39.481  1.00  0.00    -0.265 OA
HETATM    6  N3  UNL     1      58.763  42.718  40.052  1.00  0.00    -0.273 N
ATOM      7  H3  UNL     1      58.408  42.166  40.834  1.00  0.00     0.173 HD
HETATM    8  C4  UNL     1      58.262  43.963  39.966  1.00  0.00     0.328 C
HETATM    9  O2  UNL     1      57.265  44.166  40.702  1.00  0.00    -0.247 OA
HETATM   10  N4  UNL     1      58.675  45.018  39.203  1.00  0.00    -0.292 N
ATOM     11  H4  UNL     1      58.069  45.838  39.169  1.00  0.00     0.172 HD
HETATM   12  C5  UNL     1      59.822  45.064  38.493  1.00  0.00     0.144 A
HETATM   13  C6  UNL     1      60.590  43.994  38.019  1.00  0.00     0.113 A
HETATM   14  N5  UNL     1      61.628  44.551  37.384  1.00  0.00    -0.317 N
ATOM     15  H5  UNL     1      62.373  44.025  36.927  1.00  0.00     0.169 HD
HETATM   16  C7  UNL     1      61.563  45.891  37.426  1.00  0.00     0.226 A
HETATM   17  N6  UNL     1      60.437  46.193  38.118  1.00  0.00    -0.288 N
ENDROOT
BRANCH   1  18
HETATM   18  C1  UNL     1      61.418  42.177  36.131  1.00  0.00     0.134 C
HETATM   19  N1  UNL     1      62.732  42.177  36.134  1.00  0.00    -0.386 N
ATOM     20  H12 UNL     1      63.197  41.968  37.018  1.00  0.00     0.157 HD
ATOM     21  H11 UNL     1      63.239  42.402  35.277  1.00  0.00     0.157 HD
BRANCH  18  22
HETATM   22  C10 UNL     1      60.737  42.484  34.835  1.00  0.00     0.444 C
BRANCH  22  23
HETATM   23  N8  UNL     1      61.473  43.520  34.148  1.00  0.00    -0.043 N
ATOM     24  H83 UNL     1      61.847  44.220  34.788  1.00  0.00     0.277 HD
ATOM     25  H82 UNL     1      62.359  43.182  33.771  1.00  0.00     0.277 HD
ATOM     26  H81 UNL     1      60.877  43.931  33.428  1.00  0.00     0.277 HD
ENDBRANCH  22  23
BRANCH  22  27
HETATM   27  N9  UNL     1      60.759  41.323  33.955  1.00  0.00    -0.043 N
ATOM     28  H93 UNL     1      60.601  40.456  34.468  1.00  0.00     0.277 HD
ATOM     29  H92 UNL     1      59.940  41.294  33.348  1.00  0.00     0.277 HD
ATOM     30  H91 UNL     1      61.627  41.293  33.420  1.00  0.00     0.277 HD
ENDBRANCH  22  27
ENDBRANCH  18  22
ENDBRANCH   1  18
BRANCH  17  31
HETATM   31  C8  UNL     1      59.954  47.522  38.417  1.00  0.00     0.233 C
BRANCH  31  32
HETATM   32  C9  UNL     1      59.671  48.287  37.177  1.00  0.00     0.249 C
HETATM   33  N7  UNL     1      58.606  47.980  36.294  1.00  0.00    -0.061 NA
HETATM   34  O4  UNL     1      60.436  49.256  36.919  1.00  0.00    -0.275 OA
ENDBRANCH  31  32
ENDBRANCH  17  31
BRANCH  16  35
HETATM   35  O3  UNL     1      62.445  46.820  36.887  1.00  0.00    -0.332 OA
ATOM     36  H3  UNL     1      62.385  47.285  36.061  1.00  0.00     0.221 HD
ENDBRANCH  16  35
TORSDOF 7
ENDMDL