MODEL 2
REMARK VINA RESULT: -6.283998291      1.563      2.338
REMARK  14 active torsions:
REMARK  status: ('A' for Active; 'I' for Inactive)
REMARK    1  A    between atoms: N1_2  and  C2_3
REMARK    2  A    between atoms: N1_2  and  C5_10
REMARK    3  A    between atoms: C2_3  and  C3_4
REMARK    4  A    between atoms: C3_4  and  O1_5
REMARK    5  A    between atoms: C3_4  and  C4_7
REMARK    6  A    between atoms: C4_7  and  O2_8
REMARK    7  A    between atoms: C5_10  and  C6_11
REMARK    8  A    between atoms: C6_11  and  N2_12
REMARK    9  A    between atoms: C9_20  and  O5_21
REMARK   10  A    between atoms: C10_23  and  O6_24
REMARK   11  A    between atoms: C10_23  and  O7_26
REMARK   12  A    between atoms: C14_34  and  O10_35
REMARK   13  A    between atoms: C15_37  and  O11_38
REMARK   14  A    between atoms: C16_40  and  O12_41
ROOT
HETATM    1  C6  UNL     1      60.345  46.457  38.270  1.00  0.00     0.211 C
HETATM    2  O3  UNL     1      61.479  46.341  37.423  1.00  0.00    -0.278 OA
HETATM    3  C8  UNL     1      62.393  45.578  36.799  1.00  0.00     0.309 C
HETATM    4  O4  UNL     1      63.578  46.041  36.732  1.00  0.00    -0.261 OA
HETATM    5  C9  UNL     1      62.375  44.260  36.131  1.00  0.00     0.276 C
HETATM    6  C10 UNL     1      60.923  44.037  35.677  1.00  0.00     0.298 C
HETATM    7  N5  UNL     1      60.709  43.597  36.950  1.00  0.00    -0.266 N
HETATM    8  C11 UNL     1      59.825  43.967  37.880  1.00  0.00     0.159 C
HETATM    9  O8  UNL     1      60.113  43.312  39.087  1.00  0.00    -0.311 OA
HETATM   10  C12 UNL     1      60.196  41.909  38.883  1.00  0.00     0.346 C
HETATM   11  O9  UNL     1      61.495  41.576  39.174  1.00  0.00    -0.364 OA
HETATM   12  C13 UNL     1      62.231  41.005  38.179  1.00  0.00     0.207 C
HETATM   13  C14 UNL     1      62.270  41.800  36.879  1.00  0.00     0.201 C
HETATM   14  C15 UNL     1      62.041  43.227  37.213  1.00  0.00     0.217 C
HETATM   15  C16 UNL     1      59.395  45.358  38.160  1.00  0.00     0.254 C
ENDROOT
BRANCH   1  16
HETATM   16  C5  UNL     1      60.903  46.756  39.631  1.00  0.00     0.122 C
BRANCH  16  17
HETATM   17  N1  UNL     1      60.130  46.616  40.783  1.00  0.00    -0.391 N
HETATM   18  C1  UNL     1      58.781  46.869  40.884  1.00  0.00     0.148 C
BRANCH  17  19
HETATM   19  C2  UNL     1      60.805  45.826  41.748  1.00  0.00     0.155 C
BRANCH  19  20
HETATM   20  C3  UNL     1      60.140  44.613  42.275  1.00  0.00     0.159 C
BRANCH  20  21
HETATM   21  O1  UNL     1      59.694  44.867  43.618  1.00  0.00    -0.392 OA
ATOM     22  H1  UNL     1      60.393  45.292  44.102  1.00  0.00     0.210 HD
ENDBRANCH  20  21
BRANCH  20  23
HETATM   23  C4  UNL     1      61.046  43.412  42.440  1.00  0.00     0.197 C
BRANCH  23  24
HETATM   24  O2  UNL     1      61.904  43.211  41.376  1.00  0.00    -0.398 OA
ATOM     25  H2  UNL     1      62.574  42.559  41.543  1.00  0.00     0.209 HD
ENDBRANCH  23  24
ENDBRANCH  20  23
ENDBRANCH  19  20
ENDBRANCH  17  19
ENDBRANCH  16  17
ENDBRANCH   1  16
BRANCH   1  26
HETATM   26  N2  UNL     1      59.667  47.677  37.876  1.00  0.00    -0.328 N
HETATM   27  C7  UNL     1      60.114  48.698  37.299  1.00  0.00     0.199 C
HETATM   28  N3  UNL     1      59.187  49.785  37.027  1.00  0.00    -0.067 NA
HETATM   29  N4  UNL     1      61.452  48.872  36.891  1.00  0.00    -0.067 NA
ATOM     30  H2  UNL     1      58.673  47.711  38.102  1.00  0.00     0.165 HD
ENDBRANCH   1  26
BRANCH  15  31
HETATM   31  O12 UNL     1      58.394  45.736  37.179  1.00  0.00    -0.382 OA
ATOM     32  H12 UNL     1      58.810  46.318  36.553  1.00  0.00     0.210 HD
ENDBRANCH  15  31
BRANCH   5  33
HETATM   33  O5  UNL     1      63.348  43.943  35.259  1.00  0.00    -0.370 OA
ATOM     34  H5  UNL     1      64.046  44.565  35.087  1.00  0.00     0.211 HD
ENDBRANCH   5  33
BRANCH   6  35
HETATM   35  O6  UNL     1      60.430  45.233  35.209  1.00  0.00    -0.346 OA
ATOM     36  H6  UNL     1      60.501  45.232  34.262  1.00  0.00     0.215 HD
ENDBRANCH   6  35
BRANCH   6  37
HETATM   37  O7  UNL     1      60.845  43.087  34.661  1.00  0.00    -0.346 OA
ATOM     38  H7  UNL     1      60.234  43.352  33.984  1.00  0.00     0.215 HD
ENDBRANCH   6  37
BRANCH  14  39
HETATM   39  O11 UNL     1      62.662  43.652  38.383  1.00  0.00    -0.365 OA
ATOM     40  H11 UNL     1      63.593  43.691  38.201  1.00  0.00     0.212 HD
ENDBRANCH  14  39
BRANCH  13  41
HETATM   41  O10 UNL     1      63.409  41.548  36.141  1.00  0.00    -0.388 OA
ATOM     42  H10 UNL     1      63.344  41.874  35.252  1.00  0.00     0.210 HD
ENDBRANCH  13  41
TORSDOF 14
ENDMDL