MODEL 1
REMARK VINA RESULT: -7.186047933      0.000      0.000
REMARK  16 active torsions:
REMARK  status: ('A' for Active; 'I' for Inactive)
REMARK    1  A    between atoms: O1_2  and  C2_3
REMARK    2  A    between atoms: C2_3  and  C3_5
REMARK    3  A    between atoms: C3_5  and  O3_6
REMARK    4  A    between atoms: C3_5  and  C4_8
REMARK       I    between atoms: C4_8  and  N1_10
REMARK    5  A    between atoms: N1_10  and  C5_12
REMARK    6  A    between atoms: C5_12  and  O5_13
REMARK    7  A    between atoms: C5_12  and  C6_15
REMARK    8  A    between atoms: C5_12  and  C7_22
REMARK    9  A    between atoms: C6_15  and  N2_16
REMARK   10  A    between atoms: C6_15  and  O6_20
REMARK   11  A    between atoms: C8_23  and  O7_24
REMARK   12  A    between atoms: C9_26  and  N3_27
REMARK   13  A    between atoms: C10_31  and  C11_32
REMARK   14  A    between atoms: C11_32  and  N4_33
REMARK   15  A    between atoms: C11_32  and  O8_37
REMARK   16  A    between atoms: N6_41  and  C12_42
ROOT
HETATM    1  C7  UNL     1      60.803  44.019  37.795  1.00  0.00     0.200 C
HETATM    2  C8  UNL     1      60.646  44.972  36.616  1.00  0.00     0.180 C
HETATM    3  C9  UNL     1      61.253  46.314  36.820  1.00  0.00     0.242 C
HETATM    4  C10 UNL     1      60.662  46.877  38.093  1.00  0.00     0.188 C
HETATM    5  N5  UNL     1      60.901  45.999  39.181  1.00  0.00    -0.321 N
ATOM      6  H5  UNL     1      61.327  46.328  40.047  1.00  0.00     0.181 HD
HETATM    7  N6  UNL     1      60.530  44.674  39.014  1.00  0.00    -0.263 N
ENDROOT
BRANCH   1   8
HETATM    8  C5  UNL     1      62.035  43.237  37.599  1.00  0.00     0.211 C
BRANCH   8   9
HETATM    9  N1  UNL     1      62.304  42.240  38.576  1.00  0.00    -0.321 N
HETATM   10  C4  UNL     1      61.497  41.189  39.033  1.00  0.00     0.258 C
HETATM   11  O4  UNL     1      60.353  41.001  38.580  1.00  0.00    -0.270 OA
ATOM     12  H1  UNL     1      63.224  42.300  39.012  1.00  0.00     0.165 HD
BRANCH  10  13
HETATM   13  C3  UNL     1      61.950  40.232  40.080  1.00  0.00     0.309 C
BRANCH  13  14
HETATM   14  C2  UNL     1      62.927  39.251  39.536  1.00  0.00     0.296 C
HETATM   15  O2  UNL     1      63.453  38.355  40.213  1.00  0.00    -0.262 OA
BRANCH  14  16
HETATM   16  O1  UNL     1      63.265  39.346  38.201  1.00  0.00    -0.324 OA
HETATM   17  C1  UNL     1      64.413  38.682  37.683  1.00  0.00     0.213 C
ENDBRANCH  14  16
ENDBRANCH  13  14
BRANCH  13  18
HETATM   18  O3  UNL     1      62.458  40.888  41.196  1.00  0.00    -0.377 OA
ATOM     19  H3  UNL     1      62.252  40.420  41.997  1.00  0.00     0.211 HD
ENDBRANCH  13  18
ENDBRANCH  10  13
ENDBRANCH   8   9
BRANCH   8  20
HETATM   20  O5  UNL     1      63.068  44.248  37.858  1.00  0.00    -0.365 OA
ATOM     21  H5  UNL     1      62.794  44.982  37.321  1.00  0.00     0.212 HD
ENDBRANCH   8  20
BRANCH   8  22
HETATM   22  C6  UNL     1      62.382  42.871  36.176  1.00  0.00     0.374 C
BRANCH  22  23
HETATM   23  N2  UNL     1      63.503  43.652  35.681  1.00  0.00    -0.048 N
ATOM     24  H23 UNL     1      63.187  44.489  35.192  1.00  0.00     0.277 HD
ATOM     25  H22 UNL     1      64.012  44.098  36.444  1.00  0.00     0.277 HD
ATOM     26  H21 UNL     1      64.124  43.091  35.097  1.00  0.00     0.277 HD
ENDBRANCH  22  23
BRANCH  22  27
HETATM   27  O6  UNL     1      62.634  41.554  35.931  1.00  0.00    -0.366 OA
ATOM     28  H6  UNL     1      63.466  41.217  36.242  1.00  0.00     0.212 HD
ENDBRANCH  22  27
ENDBRANCH   8  22
ENDBRANCH   1   8
BRANCH   2  29
HETATM   29  O7  UNL     1      59.250  45.172  36.486  1.00  0.00    -0.391 OA
ATOM     30  H7  UNL     1      59.116  45.402  35.574  1.00  0.00     0.210 HD
ENDBRANCH   2  29
BRANCH   7  31
HETATM   31  C12 UNL     1      59.867  44.088  40.142  1.00  0.00     0.196 A
HETATM   32  N7  UNL     1      58.904  43.234  40.127  1.00  0.00    -0.288 N
HETATM   33  C13 UNL     1      58.471  42.854  41.399  1.00  0.00     0.330 A
ATOM     34  H7  UNL     1      58.496  42.869  39.266  1.00  0.00     0.172 HD
HETATM   35  O9  UNL     1      57.547  42.034  41.663  1.00  0.00    -0.246 OA
HETATM   36  N8  UNL     1      59.270  43.565  42.321  1.00  0.00    -0.268 N
HETATM   37  C14 UNL     1      59.186  43.494  43.768  1.00  0.00     0.165 C
HETATM   38  C15 UNL     1      60.161  44.352  41.542  1.00  0.00     0.297 A
HETATM   39  O10 UNL     1      61.023  45.117  42.047  1.00  0.00    -0.264 OA
ENDBRANCH   7  31
BRANCH   3  40
HETATM   40  N3  UNL     1      60.823  47.161  35.719  1.00  0.00    -0.070 N
ATOM     41  H33 UNL     1      61.367  47.013  34.869  1.00  0.00     0.274 HD
ATOM     42  H32 UNL     1      59.913  46.895  35.345  1.00  0.00     0.274 HD
ATOM     43  H31 UNL     1      60.851  48.127  36.046  1.00  0.00     0.274 HD
ENDBRANCH   3  40
BRANCH   4  44
HETATM   44  C11 UNL     1      61.217  48.234  38.441  1.00  0.00     0.342 C
BRANCH  44  45
HETATM   45  N4  UNL     1      61.161  48.364  39.887  1.00  0.00    -0.051 N
ATOM     46  H43 UNL     1      61.957  47.933  40.357  1.00  0.00     0.277 HD
ATOM     47  H42 UNL     1      61.319  49.319  40.209  1.00  0.00     0.277 HD
ATOM     48  H41 UNL     1      60.264  47.984  40.189  1.00  0.00     0.277 HD
ENDBRANCH  44  45
BRANCH  44  49
HETATM   49  O8  UNL     1      62.537  48.398  38.056  1.00  0.00    -0.368 OA
ATOM     50  H8  UNL     1      62.948  49.160  38.446  1.00  0.00     0.212 HD
ENDBRANCH  44  49
ENDBRANCH   4  44
TORSDOF 16
ENDMDL