MODEL 1
REMARK VINA RESULT: -8.090744995      0.000      0.000
REMARK  12 active torsions:
REMARK  status: ('A' for Active; 'I' for Inactive)
REMARK    1  A    between atoms: C1_4  and  C2_6
REMARK    2  A    between atoms: N3_8  and  C4_9
REMARK    3  A    between atoms: C7_14  and  C8_15
REMARK    4  A    between atoms: C8_15  and  O3_16
REMARK    5  A    between atoms: C8_15  and  C9_18
REMARK    6  A    between atoms: C9_18  and  O4_19
REMARK    7  A    between atoms: C9_18  and  C10_21
REMARK    8  A    between atoms: C10_21  and  O5_22
REMARK    9  A    between atoms: C10_21  and  C11_24
REMARK   10  A    between atoms: C11_24  and  O6_25
REMARK   11  A    between atoms: C14_32  and  C15_33
REMARK   12  A    between atoms: C16_38  and  O9_39
ROOT
HETATM    1  C4  UNL     1      62.701  40.729  38.805  1.00  0.00     0.166 C
HETATM    2  C5  UNL     1      61.306  40.256  39.126  1.00  0.00     0.142 C
HETATM    3  C6  UNL     1      60.914  40.548  40.537  1.00  0.00     0.261 C
HETATM    4  O1  UNL     1      61.444  39.763  41.373  1.00  0.00    -0.265 OA
HETATM    5  O2  UNL     1      60.090  41.545  40.775  1.00  0.00    -0.312 OA
HETATM    6  C7  UNL     1      60.013  42.854  41.166  1.00  0.00     0.181 C
HETATM    7  C12 UNL     1      60.764  43.731  40.210  1.00  0.00     0.157 C
HETATM    8  N4  UNL     1      60.251  43.624  38.872  1.00  0.00    -0.356 N
ATOM      9  H4  UNL     1      59.308  43.254  38.761  1.00  0.00     0.162 HD
HETATM   10  C13 UNL     1      60.947  43.991  37.698  1.00  0.00     0.249 C
HETATM   11  O7  UNL     1      60.330  44.186  36.608  1.00  0.00    -0.271 OA
HETATM   12  C14 UNL     1      62.421  44.168  37.653  1.00  0.00     0.262 C
HETATM   13  N6  UNL     1      63.163  43.010  38.024  1.00  0.00    -0.376 N
ATOM     14  H6  UNL     1      64.053  43.078  38.519  1.00  0.00     0.157 HD
HETATM   15  C16 UNL     1      62.597  41.751  37.669  1.00  0.00     0.240 C
ENDROOT
BRANCH   1  16
HETATM   16  N3  UNL     1      63.564  39.628  38.415  1.00  0.00    -0.277 N
HETATM   17  C3  UNL     1      64.755  39.333  38.979  1.00  0.00     0.146 A
HETATM   18  C2  UNL     1      65.306  38.226  38.366  1.00  0.00     0.107 A
HETATM   19  N8  UNL     1      64.410  37.877  37.425  1.00  0.00    -0.282 N
HETATM   20  N7  UNL     1      63.384  38.726  37.474  1.00  0.00    -0.240 N
ATOM     21  H8  UNL     1      64.501  37.092  36.780  1.00  0.00     0.188 HD
ATOM     22  H7  UNL     1      62.569  38.683  36.864  1.00  0.00     0.208 HD
BRANCH  18  23
HETATM   23  C1  UNL     1      66.582  37.593  38.687  1.00  0.00     0.139 C
HETATM   24  N1  UNL     1      66.869  36.412  38.260  1.00  0.00    -0.386 N
ATOM     25  H12 UNL     1      67.760  35.970  38.484  1.00  0.00     0.157 HD
ATOM     26  H11 UNL     1      66.172  35.934  37.690  1.00  0.00     0.157 HD
HETATM   27  N2  UNL     1      67.553  38.258  39.481  1.00  0.00    -0.081 NA
ENDBRANCH  18  23
ENDBRANCH   1  16
BRANCH  15  28
HETATM   28  O9  UNL     1      63.303  41.270  36.553  1.00  0.00    -0.375 OA
ATOM     29  H9  UNL     1      63.292  41.931  35.870  1.00  0.00     0.212 HD
ENDBRANCH  15  28
BRANCH  12  30
HETATM   30  C15 UNL     1      62.869  44.761  36.372  1.00  0.00     0.263 C
HETATM   31  N5  UNL     1      63.179  43.990  35.228  1.00  0.00    -0.060 NA
HETATM   32  O8  UNL     1      62.965  46.033  36.339  1.00  0.00    -0.274 OA
ENDBRANCH  12  30
BRANCH   6  33
HETATM   33  C8  UNL     1      58.528  43.140  41.259  1.00  0.00     0.180 C
BRANCH  33  34
HETATM   34  O3  UNL     1      58.422  44.518  40.958  1.00  0.00    -0.390 OA
ATOM     35  H3  UNL     1      58.909  44.945  41.653  1.00  0.00     0.210 HD
ENDBRANCH  33  34
BRANCH  33  36
HETATM   36  C9  UNL     1      57.620  42.340  40.442  1.00  0.00     0.180 C
BRANCH  36  37
HETATM   37  O4  UNL     1      56.544  43.165  40.006  1.00  0.00    -0.390 OA
ATOM     38  H4  UNL     1      55.899  43.224  40.701  1.00  0.00     0.210 HD
ENDBRANCH  36  37
BRANCH  36  39
HETATM   39  C10 UNL     1      57.066  41.066  41.020  1.00  0.00     0.173 C
BRANCH  39  40
HETATM   40  O5  UNL     1      56.705  41.434  42.356  1.00  0.00    -0.391 OA
ATOM     41  H5  UNL     1      56.083  42.141  42.231  1.00  0.00     0.210 HD
ENDBRANCH  39  40
BRANCH  39  42
HETATM   42  C11 UNL     1      55.758  40.656  40.392  1.00  0.00     0.198 C
BRANCH  42  43
HETATM   43  O6  UNL     1      56.006  39.398  39.764  1.00  0.00    -0.398 OA
ATOM     44  H6  UNL     1      55.188  38.917  39.815  1.00  0.00     0.209 HD
ENDBRANCH  42  43
ENDBRANCH  39  42
ENDBRANCH  36  39
ENDBRANCH  33  36
ENDBRANCH   6  33
TORSDOF 12
ENDMDL