MODEL 1
REMARK VINA RESULT: -8.474779083      0.000      0.000
REMARK  12 active torsions:
REMARK  status: ('A' for Active; 'I' for Inactive)
REMARK    1  A    between atoms: C2_5  and  C3_6
REMARK    2  A    between atoms: C3_6  and  N3_7
REMARK    3  A    between atoms: C3_6  and  C4_11
REMARK    4  A    between atoms: C4_11  and  N4_12
REMARK    5  A    between atoms: C4_11  and  C12_36
REMARK       I    between atoms: N4_12  and  C5_14
REMARK       I    between atoms: C5_14  and  N5_16
REMARK    6  A    between atoms: N5_16  and  C6_18
REMARK    7  A    between atoms: C7_22  and  O2_23
REMARK    8  A    between atoms: C8_25  and  C9_26
REMARK    9  A    between atoms: C11_31  and  O3_32
REMARK   10  A    between atoms: C12_36  and  O6_37
REMARK   11  A    between atoms: C12_36  and  C13_39
REMARK   12  A    between atoms: C13_39  and  O7_40
ROOT
HETATM    1  N4  UNL     1      61.422  41.790  37.176  1.00  0.00    -0.334 N
ATOM      2  H4  UNL     1      60.670  41.181  37.496  1.00  0.00     0.164 HD
HETATM    3  C5  UNL     1      62.751  41.312  37.226  1.00  0.00     0.319 C
HETATM    4  O1  UNL     1      63.709  42.027  36.841  1.00  0.00    -0.247 OA
HETATM    5  N5  UNL     1      63.047  40.008  37.714  1.00  0.00    -0.294 N
ATOM      6  H5  UNL     1      62.279  39.416  38.030  1.00  0.00     0.168 HD
ENDROOT
BRANCH   1   7
HETATM    7  C4  UNL     1      61.083  43.122  36.685  1.00  0.00     0.151 C
BRANCH   7   8
HETATM    8  C3  UNL     1      60.124  43.791  37.657  1.00  0.00     0.258 C
BRANCH   8   9
HETATM    9  C2  UNL     1      60.308  45.260  37.811  1.00  0.00     0.274 C
HETATM   10  N2  UNL     1      59.146  45.980  37.416  1.00  0.00    -0.352 N
HETATM   11  C1  UNL     1      59.064  47.254  37.326  1.00  0.00     0.107 C
ATOM     12  H2  UNL     1      58.313  45.439  37.188  1.00  0.00     0.163 HD
HETATM   13  N1  UNL     1      57.897  47.953  36.932  1.00  0.00    -0.087 NA
HETATM   14  C14 UNL     1      60.278  48.036  37.658  1.00  0.00     0.243 C
HETATM   15  S1  UNL     1      61.630  47.231  36.831  1.00  0.00     0.273 S
HETATM   16  O8  UNL     1      61.463  45.584  37.056  1.00  0.00    -0.247 OA
HETATM   17  O9  UNL     1      62.955  47.660  37.391  1.00  0.00    -0.198 OA
HETATM   18  O10 UNL     1      61.513  47.592  35.370  1.00  0.00    -0.198 OA
ENDBRANCH   8   9
BRANCH   8  19
HETATM   19  N3  UNL     1      60.327  43.203  38.989  1.00  0.00    -0.069 N
ATOM     20  H33 UNL     1      61.025  42.459  38.999  1.00  0.00     0.275 HD
ATOM     21  H32 UNL     1      60.800  43.831  39.640  1.00  0.00     0.275 HD
ATOM     22  H31 UNL     1      59.409  42.901  39.315  1.00  0.00     0.275 HD
ENDBRANCH   8  19
ENDBRANCH   7   8
BRANCH   7  23
HETATM   23  C12 UNL     1      60.617  43.033  35.285  1.00  0.00     0.166 C
BRANCH  23  24
HETATM   24  O6  UNL     1      60.140  41.825  34.874  1.00  0.00    -0.391 OA
ATOM     25  H6  UNL     1      59.646  41.814  34.063  1.00  0.00     0.210 HD
ENDBRANCH  23  24
BRANCH  23  26
HETATM   26  C13 UNL     1      61.627  43.509  34.269  1.00  0.00     0.197 C
BRANCH  26  27
HETATM   27  O7  UNL     1      62.858  43.808  34.789  1.00  0.00    -0.398 OA
ATOM     28  H7  UNL     1      62.884  44.608  35.301  1.00  0.00     0.209 HD
ENDBRANCH  26  27
ENDBRANCH  23  26
ENDBRANCH   7  23
ENDBRANCH   1   7
BRANCH   5  29
HETATM   29  C6  UNL     1      64.400  39.492  37.776  1.00  0.00     0.436 C
HETATM   30  N6  UNL     1      64.373  38.150  37.211  1.00  0.00    -0.002 N
HETATM   31  C7  UNL     1      65.297  37.404  38.087  1.00  0.00     0.357 C
ATOM     32  H62 UNL     1      63.442  37.742  37.127  1.00  0.00     0.285 HD
ATOM     33  H61 UNL     1      64.596  38.101  36.217  1.00  0.00     0.285 HD
HETATM   34  C8  UNL     1      65.009  38.113  39.390  1.00  0.00     0.238 C
HETATM   35  O5  UNL     1      64.942  39.437  39.025  1.00  0.00    -0.329 OA
BRANCH  31  36
HETATM   36  O2  UNL     1      64.868  36.094  38.200  1.00  0.00    -0.368 OA
ATOM     37  H2  UNL     1      64.160  36.046  38.831  1.00  0.00     0.212 HD
ENDBRANCH  31  36
BRANCH  34  38
HETATM   38  C9  UNL     1      63.751  37.585  40.049  1.00  0.00     0.357 C
HETATM   39  N7  UNL     1      63.327  38.588  40.994  1.00  0.00    -0.042 N
HETATM   40  C10 UNL     1      63.559  38.083  42.308  1.00  0.00     0.295 C
ATOM     41  H72 UNL     1      63.772  39.493  40.835  1.00  0.00     0.280 HD
ATOM     42  H71 UNL     1      62.362  38.883  40.850  1.00  0.00     0.280 HD
HETATM   43  C11 UNL     1      64.376  36.832  42.070  1.00  0.00     0.285 C
HETATM   44  O4  UNL     1      64.114  36.445  40.765  1.00  0.00    -0.325 OA
BRANCH  43  45
HETATM   45  O3  UNL     1      63.999  35.785  42.901  1.00  0.00    -0.369 OA
ATOM     46  H3  UNL     1      64.457  35.798  43.733  1.00  0.00     0.212 HD
ENDBRANCH  43  45
ENDBRANCH  34  38
ENDBRANCH   5  29
TORSDOF 12
ENDMDL