MODEL 5
REMARK VINA RESULT: -6.649835797      2.825      5.042
REMARK  15 active torsions:
REMARK  status: ('A' for Active; 'I' for Inactive)
REMARK    1  A    between atoms: N1_1  and  N2_4
REMARK       I    between atoms: N2_4  and  C1_6
REMARK    2  A    between atoms: C1_6  and  C2_8
REMARK    3  A    between atoms: C2_8  and  N3_9
REMARK    4  A    between atoms: N3_9  and  C3_11
REMARK    5  A    between atoms: C5_15  and  C6_16
REMARK    6  A    between atoms: C6_16  and  O3_17
REMARK    7  A    between atoms: C6_16  and  O4_19
REMARK    8  A    between atoms: C7_21  and  C8_22
REMARK    9  A    between atoms: C9_25  and  O7_26
REMARK   10  A    between atoms: C9_25  and  C10_28
REMARK   11  A    between atoms: C10_28  and  O8_29
REMARK   12  A    between atoms: C11_31  and  O9_32
REMARK   13  A    between atoms: C12_34  and  O10_35
REMARK   14  A    between atoms: C13_37  and  O11_38
REMARK   15  A    between atoms: O11_38  and  S1_39
ROOT
HETATM    1  C3  UNL     1      60.422  43.156  39.461  1.00  0.00     0.207 C
HETATM    2  C4  UNL     1      60.371  44.112  38.324  1.00  0.00     0.252 C
HETATM    3  O2  UNL     1      60.494  43.743  37.108  1.00  0.00    -0.270 OA
HETATM    4  N4  UNL     1      60.181  45.501  38.556  1.00  0.00    -0.275 N
HETATM    5  C5  UNL     1      60.634  46.724  37.916  1.00  0.00     0.088 C
HETATM    6  C7  UNL     1      60.261  47.795  38.592  1.00  0.00     0.087 C
HETATM    7  C9  UNL     1      59.588  47.324  39.824  1.00  0.00     0.167 C
HETATM    8  C11 UNL     1      59.321  45.861  39.642  1.00  0.00     0.208 C
HETATM    9  C12 UNL     1      59.594  44.994  40.830  1.00  0.00     0.210 C
HETATM   10  C13 UNL     1      59.317  43.536  40.412  1.00  0.00     0.210 C
ENDROOT
BRANCH   1  11
HETATM   11  N3  UNL     1      60.447  41.786  39.104  1.00  0.00    -0.379 N
ATOM     12  H3  UNL     1      59.635  41.264  38.775  1.00  0.00     0.160 HD
BRANCH  11  13
HETATM   13  C2  UNL     1      61.757  41.223  39.263  1.00  0.00     0.160 C
BRANCH  13  14
HETATM   14  C1  UNL     1      62.545  40.944  38.082  1.00  0.00     0.274 C
HETATM   15  N2  UNL     1      62.336  41.533  36.823  1.00  0.00    -0.272 N
ATOM     16  H2  UNL     1      61.582  42.209  36.703  1.00  0.00     0.189 HD
HETATM   17  O1  UNL     1      63.485  40.118  38.161  1.00  0.00    -0.265 OA
BRANCH  15  18
HETATM   18  N1  UNL     1      63.164  41.202  35.708  1.00  0.00    -0.342 N
ATOM     19  H12 UNL     1      63.956  41.808  35.493  1.00  0.00     0.176 HD
ATOM     20  H11 UNL     1      62.973  40.379  35.136  1.00  0.00     0.176 HD
ENDBRANCH  15  18
ENDBRANCH  13  14
ENDBRANCH  11  13
ENDBRANCH   1  11
BRANCH  10  21
HETATM   21  O11 UNL     1      58.101  43.354  39.831  1.00  0.00    -0.246 OA
BRANCH  21  22
HETATM   22  S1  UNL     1      57.244  42.166  40.668  1.00  0.00     0.252 S
HETATM   23  O12 UNL     1      57.897  40.821  40.425  1.00  0.00    -0.572 OA
HETATM   24  O13 UNL     1      55.841  42.173  40.155  1.00  0.00    -0.572 OA
HETATM   25  O14 UNL     1      57.210  42.435  42.317  1.00  0.00    -0.572 OA
ENDBRANCH  21  22
ENDBRANCH  10  21
BRANCH   9  26
HETATM   26  O10 UNL     1      60.928  44.959  41.233  1.00  0.00    -0.388 OA
ATOM     27  H10 UNL     1      61.494  44.424  40.689  1.00  0.00     0.210 HD
ENDBRANCH   9  26
BRANCH   5  28
HETATM   28  C6  UNL     1      61.404  46.591  36.648  1.00  0.00     0.306 C
BRANCH  28  29
HETATM   29  O3  UNL     1      62.623  47.204  36.610  1.00  0.00    -0.366 OA
ATOM     30  H3  UNL     1      62.658  48.047  36.174  1.00  0.00     0.213 HD
ENDBRANCH  28  29
BRANCH  28  31
HETATM   31  O4  UNL     1      60.647  47.110  35.567  1.00  0.00    -0.366 OA
ATOM     32  H4  UNL     1      60.061  47.789  35.880  1.00  0.00     0.213 HD
ENDBRANCH  28  31
ENDBRANCH   5  28
BRANCH   8  33
HETATM   33  O9  UNL     1      57.974  45.652  39.286  1.00  0.00    -0.365 OA
ATOM     34  H9  UNL     1      57.653  44.847  39.674  1.00  0.00     0.212 HD
ENDBRANCH   8  33
BRANCH   6  35
HETATM   35  C8  UNL     1      60.527  49.197  38.236  1.00  0.00     0.210 C
HETATM   36  O5  UNL     1      60.823  49.663  37.144  1.00  0.00    -0.644 OA
HETATM   37  O6  UNL     1      60.426  50.154  39.269  1.00  0.00    -0.644 OA
ENDBRANCH   6  35
BRANCH   7  38
HETATM   38  O7  UNL     1      58.320  47.951  39.858  1.00  0.00    -0.377 OA
ATOM     39  H7  UNL     1      58.380  48.654  40.494  1.00  0.00     0.211 HD
ENDBRANCH   7  38
BRANCH   7  40
HETATM   40  C10 UNL     1      60.245  47.625  41.119  1.00  0.00     0.212 C
BRANCH  40  41
HETATM   41  O8  UNL     1      61.541  48.052  40.953  1.00  0.00    -0.397 OA
ATOM     42  H8  UNL     1      62.142  47.328  40.827  1.00  0.00     0.209 HD
ENDBRANCH  40  41
ENDBRANCH   7  40
TORSDOF 15
ENDMDL