MODEL 1
REMARK VINA RESULT: -7.578899640      0.000      0.000
REMARK  13 active torsions:
REMARK  status: ('A' for Active; 'I' for Inactive)
REMARK    1  A    between atoms: N1_1  and  O1_4
REMARK    2  A    between atoms: O1_4  and  C1_5
REMARK    3  A    between atoms: C1_5  and  O2_6
REMARK    4  A    between atoms: C1_5  and  C2_8
REMARK    5  A    between atoms: C2_8  and  O3_9
REMARK    6  A    between atoms: C2_8  and  C3_11
REMARK    7  A    between atoms: C5_14  and  C6_15
REMARK    8  A    between atoms: C7_18  and  N3_19
REMARK       I    between atoms: N3_19  and  C8_21
REMARK    9  A    between atoms: C8_21  and  C9_23
REMARK   10  A    between atoms: C9_23  and  C10_24
REMARK   11  A    between atoms: C11_27  and  O9_28
REMARK   12  A    between atoms: C12_31  and  O11_32
REMARK   13  A    between atoms: C13_34  and  N4_35
ROOT
HETATM    1  C3  UNL     1      61.341  47.016  37.487  1.00  0.00     0.247 C
HETATM    2  O4  UNL     1      60.927  45.930  38.253  1.00  0.00    -0.363 OA
HETATM    3  C4  UNL     1      61.667  44.770  37.968  1.00  0.00     0.198 C
HETATM    4  C5  UNL     1      61.390  43.811  39.058  1.00  0.00     0.136 C
HETATM    5  C7  UNL     1      61.414  42.368  38.847  1.00  0.00     0.154 C
HETATM    6  C11 UNL     1      62.257  41.853  37.712  1.00  0.00     0.283 C
HETATM    7  O10 UNL     1      61.714  42.069  36.482  1.00  0.00    -0.325 OA
HETATM    8  C12 UNL     1      60.762  43.037  36.378  1.00  0.00     0.318 C
HETATM    9  C13 UNL     1      61.430  44.370  36.578  1.00  0.00     0.247 C
HETATM   10  N5  UNL     1      60.647  45.345  35.841  1.00  0.00    -0.321 N
ATOM     11  H5  UNL     1      59.923  45.061  35.181  1.00  0.00     0.165 HD
HETATM   12  C14 UNL     1      60.941  46.727  36.086  1.00  0.00     0.251 C
HETATM   13  O14 UNL     1      60.859  47.587  35.173  1.00  0.00    -0.270 OA
ENDROOT
BRANCH   1  14
HETATM   14  C2  UNL     1      60.720  48.277  37.973  1.00  0.00     0.213 C
BRANCH  14  15
HETATM   15  C1  UNL     1      60.878  48.542  39.449  1.00  0.00     0.317 C
BRANCH  15  16
HETATM   16  O1  UNL     1      60.812  49.949  39.590  1.00  0.00    -0.252 OA
BRANCH  16  17
HETATM   17  N1  UNL     1      61.939  50.364  40.191  1.00  0.00    -0.308 N
ATOM     18  H12 UNL     1      62.017  50.629  41.173  1.00  0.00     0.184 HD
ATOM     19  H11 UNL     1      62.687  50.366  39.498  1.00  0.00     0.184 HD
ENDBRANCH  16  17
ENDBRANCH  15  16
BRANCH  15  20
HETATM   20  O2  UNL     1      59.893  48.035  40.248  1.00  0.00    -0.367 OA
ATOM     21  H2  UNL     1      59.834  47.110  40.038  1.00  0.00     0.212 HD
ENDBRANCH  15  20
ENDBRANCH  14  15
BRANCH  14  22
HETATM   22  O3  UNL     1      61.343  49.338  37.298  1.00  0.00    -0.387 OA
ATOM     23  H3  UNL     1      62.226  49.402  37.640  1.00  0.00     0.210 HD
ENDBRANCH  14  22
ENDBRANCH   1  14
BRANCH   4  24
HETATM   24  C6  UNL     1      60.108  44.162  39.746  1.00  0.00     0.240 C
HETATM   25  N2  UNL     1      60.074  45.084  40.835  1.00  0.00    -0.062 NA
HETATM   26  O5  UNL     1      59.003  43.678  39.411  1.00  0.00    -0.276 OA
ENDBRANCH   4  24
BRANCH   9  27
HETATM   27  N4  UNL     1      62.678  44.300  35.797  1.00  0.00    -0.116 N
HETATM   28  O12 UNL     1      62.575  43.959  34.610  1.00  0.00    -0.534 OA
HETATM   29  O13 UNL     1      63.895  44.590  36.358  1.00  0.00    -0.534 OA
ENDBRANCH   9  27
BRANCH   5  30
HETATM   30  N3  UNL     1      61.804  41.731  40.115  1.00  0.00    -0.350 N
HETATM   31  C8  UNL     1      60.995  40.916  40.894  1.00  0.00     0.228 C
HETATM   32  O6  UNL     1      59.817  40.666  40.527  1.00  0.00    -0.273 OA
ATOM     33  H3  UNL     1      62.752  41.904  40.450  1.00  0.00     0.163 HD
BRANCH  31  34
HETATM   34  C9  UNL     1      61.444  40.307  42.164  1.00  0.00     0.215 C
BRANCH  34  35
HETATM   35  C10 UNL     1      62.189  39.048  42.003  1.00  0.00     0.181 C
HETATM   36  O7  UNL     1      62.328  38.217  42.933  1.00  0.00    -0.648 OA
HETATM   37  O8  UNL     1      62.765  38.750  40.798  1.00  0.00    -0.648 OA
ENDBRANCH  34  35
ENDBRANCH  31  34
ENDBRANCH   5  30
BRANCH   8  38
HETATM   38  O11 UNL     1      60.345  43.025  35.019  1.00  0.00    -0.367 OA
ATOM     39  H11 UNL     1      60.945  43.602  34.561  1.00  0.00     0.212 HD
ENDBRANCH   8  38
BRANCH   6  40
HETATM   40  O9  UNL     1      62.387  40.442  37.819  1.00  0.00    -0.369 OA
ATOM     41  H9  UNL     1      62.147  40.038  36.993  1.00  0.00     0.212 HD
ENDBRANCH   6  40
TORSDOF 13
ENDMDL