MODEL 1
REMARK VINA RESULT: -8.775077369      0.000      0.000
REMARK  13 active torsions:
REMARK  status: ('A' for Active; 'I' for Inactive)
REMARK    1  A    between atoms: N1_1  and  N2_4
REMARK    2  A    between atoms: N2_4  and  C1_6
REMARK    3  A    between atoms: C2_8  and  C3_9
REMARK    4  A    between atoms: C3_9  and  O2_10
REMARK    5  A    between atoms: C4_12  and  N3_13
REMARK       I    between atoms: N3_13  and  C5_15
REMARK    6  A    between atoms: C5_15  and  C6_17
REMARK    7  A    between atoms: C8_22  and  O5_23
REMARK    8  A    between atoms: C8_22  and  N5_25
REMARK       I    between atoms: N5_25  and  C9_27
REMARK    9  A    between atoms: C9_27  and  C10_29
REMARK   10  A    between atoms: C10_29  and  C11_30
REMARK   11  A    between atoms: C11_30  and  N6_31
REMARK   12  A    between atoms: C15_42  and  O8_43
REMARK   13  A    between atoms: C16_45  and  N10_46
ROOT
HETATM    1  C6  UNL     1      61.928  43.745  35.175  1.00  0.00     0.269 C
HETATM    2  N4  UNL     1      63.260  43.929  35.694  1.00  0.00    -0.334 N
ATOM      3  H4  UNL     1      63.908  44.583  35.255  1.00  0.00     0.164 HD
HETATM    4  C7  UNL     1      63.654  43.156  36.862  1.00  0.00     0.297 C
HETATM    5  O4  UNL     1      64.604  43.599  37.521  1.00  0.00    -0.266 OA
HETATM    6  C8  UNL     1      62.966  41.927  37.233  1.00  0.00     0.303 C
HETATM    7  N9  UNL     1      61.919  41.532  36.308  1.00  0.00    -0.301 N
ATOM      8  H9  UNL     1      61.520  40.600  36.408  1.00  0.00     0.167 HD
HETATM    9  C14 UNL     1      61.423  42.351  35.286  1.00  0.00     0.254 C
HETATM   10  O7  UNL     1      60.556  41.906  34.469  1.00  0.00    -0.271 OA
ENDROOT
BRANCH   1  11
HETATM   11  C5  UNL     1      61.010  44.754  35.733  1.00  0.00     0.250 C
HETATM   12  N3  UNL     1      61.415  45.849  36.517  1.00  0.00    -0.349 N
ATOM     13  H3  UNL     1      62.407  45.972  36.721  1.00  0.00     0.163 HD
HETATM   14  O3  UNL     1      59.759  44.625  35.485  1.00  0.00    -0.271 OA
BRANCH  12  15
HETATM   15  C4  UNL     1      60.455  46.819  37.050  1.00  0.00     0.146 C
HETATM   16  C2  UNL     1      60.289  46.638  38.510  1.00  0.00     0.173 C
HETATM   17  O1  UNL     1      59.800  47.738  39.205  1.00  0.00    -0.354 OA
HETATM   18  C1  UNL     1      60.676  48.805  39.031  1.00  0.00     0.269 C
HETATM   19  C16 UNL     1      60.447  49.283  37.602  1.00  0.00     0.263 C
HETATM   20  C15 UNL     1      60.837  48.218  36.611  1.00  0.00     0.178 C
BRANCH  16  21
HETATM   21  C3  UNL     1      59.354  45.472  38.856  1.00  0.00     0.198 C
BRANCH  21  22
HETATM   22  O2  UNL     1      60.046  44.273  38.700  1.00  0.00    -0.398 OA
ATOM     23  H2  UNL     1      59.715  43.823  37.931  1.00  0.00     0.209 HD
ENDBRANCH  21  22
ENDBRANCH  16  21
BRANCH  18  24
HETATM   24  N2  UNL     1      60.513  49.867  39.971  1.00  0.00    -0.312 N
ATOM     25  H2  UNL     1      59.595  50.151  40.313  1.00  0.00     0.182 HD
BRANCH  24  26
HETATM   26  N1  UNL     1      61.671  50.483  40.386  1.00  0.00    -0.347 N
ATOM     27  H12 UNL     1      62.404  49.961  40.867  1.00  0.00     0.176 HD
ATOM     28  H11 UNL     1      61.742  51.480  40.182  1.00  0.00     0.176 HD
ENDBRANCH  24  26
ENDBRANCH  18  24
BRANCH  19  29
HETATM   29  N10 UNL     1      58.997  49.504  37.485  1.00  0.00    -0.068 N
ATOM     30 3H10 UNL     1      58.571  49.882  38.332  1.00  0.00     0.275 HD
ATOM     31 2H10 UNL     1      58.749  50.278  36.868  1.00  0.00     0.275 HD
ATOM     32 1H10 UNL     1      58.605  48.607  37.195  1.00  0.00     0.275 HD
ENDBRANCH  19  29
BRANCH  20  33
HETATM   33  O8  UNL     1      62.232  48.240  36.454  1.00  0.00    -0.391 OA
ATOM     34  H8  UNL     1      62.412  48.554  35.577  1.00  0.00     0.210 HD
ENDBRANCH  20  33
ENDBRANCH  12  15
ENDBRANCH   1  11
BRANCH   6  35
HETATM   35  O5  UNL     1      62.296  42.071  38.478  1.00  0.00    -0.346 OA
ATOM     36  H5  UNL     1      61.526  41.515  38.519  1.00  0.00     0.215 HD
ENDBRANCH   6  35
BRANCH   6  37
HETATM   37  N5  UNL     1      63.888  40.792  37.327  1.00  0.00    -0.304 N
HETATM   38  C9  UNL     1      63.477  39.622  38.074  1.00  0.00     0.223 C
HETATM   39  O6  UNL     1      62.342  39.606  38.615  1.00  0.00    -0.273 OA
ATOM     40  H5  UNL     1      64.802  40.825  36.875  1.00  0.00     0.167 HD
BRANCH  38  41
HETATM   41  C10 UNL     1      64.354  38.453  38.217  1.00  0.00     0.124 C
BRANCH  41  42
HETATM   42  C11 UNL     1      64.469  37.871  39.572  1.00  0.00     0.159 C
BRANCH  42  43
HETATM   43  N6  UNL     1      65.800  37.503  39.963  1.00  0.00    -0.286 N
HETATM   44  C12 UNL     1      66.284  37.066  41.116  1.00  0.00     0.201 A
HETATM   45  N7  UNL     1      67.601  36.829  40.936  1.00  0.00    -0.346 N
HETATM   46  C13 UNL     1      67.947  37.119  39.664  1.00  0.00     0.198 A
ATOM     47  H7  UNL     1      68.240  36.484  41.653  1.00  0.00     0.167 HD
HETATM   48  N8  UNL     1      66.820  37.534  39.080  1.00  0.00    -0.293 N
ATOM     49  H8  UNL     1      66.743  37.830  38.107  1.00  0.00     0.188 HD
ENDBRANCH  42  43
ENDBRANCH  41  42
ENDBRANCH  38  41
ENDBRANCH   6  37
TORSDOF 13
ENDMDL