MODEL 4
REMARK VINA RESULT: -7.301145278      1.522      2.528
REMARK  15 active torsions:
REMARK  status: ('A' for Active; 'I' for Inactive)
REMARK    1  A    between atoms: C2_5  and  N3_6
REMARK    2  A    between atoms: N3_6  and  C3_8
REMARK    3  A    between atoms: C3_8  and  C4_9
REMARK    4  A    between atoms: C4_9  and  O1_10
REMARK    5  A    between atoms: O1_10  and  S1_11
REMARK    6  A    between atoms: S1_11  and  N4_12
REMARK    7  A    between atoms: C5_19  and  N6_20
REMARK       I    between atoms: N6_20  and  C6_22
REMARK       I    between atoms: C6_22  and  N7_23
REMARK       I    between atoms: C6_22  and  N8_27
REMARK    8  A    between atoms: C7_31  and  N9_32
REMARK    9  A    between atoms: N9_32  and  O4_33
REMARK   10  A    between atoms: N9_32  and  N10_35
REMARK   11  A    between atoms: C9_37  and  O5_38
REMARK   12  A    between atoms: C10_40  and  O6_41
REMARK   13  A    between atoms: C11_43  and  O7_44
REMARK   14  A    between atoms: C12_46  and  C13_47
REMARK   15  A    between atoms: C13_47  and  O8_48
ROOT
HETATM    1  N1  UNL     1      61.178  42.735  34.078  1.00  0.00    -0.080 NA
HETATM    2  C1  UNL     1      61.504  42.525  35.433  1.00  0.00     0.160 A
HETATM    3  N2  UNL     1      62.443  41.641  35.762  1.00  0.00    -0.177 N
ATOM      4  H2  UNL     1      62.918  41.128  35.019  1.00  0.00     0.185 HD
HETATM    5  C2  UNL     1      62.791  41.399  37.053  1.00  0.00     0.681 A
HETATM    6  N5  UNL     1      62.134  42.102  38.005  1.00  0.00    -0.175 N
ATOM      7  H5  UNL     1      62.385  41.931  38.978  1.00  0.00     0.186 HD
HETATM    8  C5  UNL     1      61.184  43.002  37.759  1.00  0.00     0.148 A
HETATM    9  C7  UNL     1      60.862  43.215  36.411  1.00  0.00     0.140 A
ENDROOT
BRANCH   9  10
HETATM   10  N9  UNL     1      59.850  44.168  36.086  1.00  0.00    -0.084 NA
BRANCH  10  11
HETATM   11  O4  UNL     1      59.314  43.733  34.931  1.00  0.00    -0.293 OA
ATOM     12  H4  UNL     1      58.641  43.113  35.187  1.00  0.00     0.239 HD
ENDBRANCH  10  11
BRANCH  10  13
HETATM   13  N10 UNL     1      60.278  45.451  36.100  1.00  0.00    -0.210 NA
HETATM   14  C8  UNL     1      61.715  45.483  35.971  1.00  0.00     0.145 C
HETATM   15  C9  UNL     1      62.334  46.760  36.422  1.00  0.00     0.164 C
HETATM   16  C10 UNL     1      61.500  47.974  36.235  1.00  0.00     0.178 C
HETATM   17  C11 UNL     1      60.025  47.754  36.453  1.00  0.00     0.170 C
HETATM   18  C12 UNL     1      59.786  46.371  37.052  1.00  0.00     0.132 C
BRANCH  15  19
HETATM   19  O5  UNL     1      62.852  46.663  37.734  1.00  0.00    -0.392 OA
ATOM     20  H5  UNL     1      62.405  47.245  38.337  1.00  0.00     0.210 HD
ENDBRANCH  15  19
BRANCH  16  21
HETATM   21  O6  UNL     1      61.953  48.966  37.116  1.00  0.00    -0.390 OA
ATOM     22  H6  UNL     1      61.524  49.785  36.896  1.00  0.00     0.210 HD
ENDBRANCH  16  21
BRANCH  17  23
HETATM   23  O7  UNL     1      59.560  48.769  37.253  1.00  0.00    -0.391 OA
ATOM     24  H7  UNL     1      60.209  48.931  37.928  1.00  0.00     0.210 HD
ENDBRANCH  17  23
BRANCH  18  25
HETATM   25  C13 UNL     1      58.393  46.178  37.524  1.00  0.00     0.188 C
BRANCH  25  26
HETATM   26  O8  UNL     1      58.325  45.438  38.730  1.00  0.00    -0.399 OA
ATOM     27  H8  UNL     1      57.432  45.254  38.995  1.00  0.00     0.209 HD
ENDBRANCH  25  26
ENDBRANCH  18  25
ENDBRANCH  10  13
ENDBRANCH   9  10
BRANCH   8  28
HETATM   28  N6  UNL     1      60.581  43.649  38.692  1.00  0.00    -0.325 N
HETATM   29  C6  UNL     1      61.337  44.076  39.845  1.00  0.00     0.481 C
HETATM   30  N7  UNL     1      60.598  45.058  40.628  1.00  0.00    -0.033 N
HETATM   31  N8  UNL     1      61.635  42.979  40.754  1.00  0.00    -0.033 N
ATOM     32  H73 UNL     1      60.307  45.851  40.056  1.00  0.00     0.278 HD
ATOM     33  H72 UNL     1      59.676  44.709  40.892  1.00  0.00     0.278 HD
ATOM     34  H71 UNL     1      61.132  45.360  41.443  1.00  0.00     0.278 HD
ATOM     35  H83 UNL     1      60.782  42.492  41.033  1.00  0.00     0.278 HD
ATOM     36  H82 UNL     1      62.107  42.217  40.267  1.00  0.00     0.278 HD
ATOM     37  H81 UNL     1      62.169  43.281  41.569  1.00  0.00     0.278 HD
ATOM     38  H6  UNL     1      59.585  43.856  38.619  1.00  0.00     0.165 HD
ENDBRANCH   8  28
BRANCH   5  39
HETATM   39  N3  UNL     1      63.700  40.536  37.264  1.00  0.00    -0.224 N
ATOM     40  H3  UNL     1      64.632  40.754  36.913  1.00  0.00     0.177 HD
BRANCH  39  41
HETATM   41  C3  UNL     1      63.541  39.290  37.945  1.00  0.00     0.165 C
BRANCH  41  42
HETATM   42  C4  UNL     1      64.348  39.194  39.223  1.00  0.00     0.212 C
BRANCH  42  43
HETATM   43  O1  UNL     1      65.708  39.048  38.942  1.00  0.00    -0.258 OA
BRANCH  43  44
HETATM   44  S1  UNL     1      66.183  37.457  38.972  1.00  0.00     0.355 S
HETATM   45  O2  UNL     1      65.656  36.810  40.222  1.00  0.00    -0.176 OA
HETATM   46  O3  UNL     1      67.689  37.403  38.928  1.00  0.00    -0.176 OA
BRANCH  44  47
HETATM   47  N4  UNL     1      65.533  36.563  37.622  1.00  0.00    -0.306 N
ATOM     48  H42 UNL     1      65.675  35.562  37.493  1.00  0.00     0.171 HD
ATOM     49  H41 UNL     1      65.002  37.164  36.991  1.00  0.00     0.171 HD
ENDBRANCH  44  47
ENDBRANCH  43  44
ENDBRANCH  42  43
ENDBRANCH  41  42
ENDBRANCH  39  41
ENDBRANCH   5  39
TORSDOF 15
ENDMDL