MODEL 2
REMARK VINA RESULT: -6.967005642      4.951      8.002
REMARK  14 active torsions:
REMARK  status: ('A' for Active; 'I' for Inactive)
REMARK    1  A    between atoms: N1_1  and  C1_5
REMARK    2  A    between atoms: C1_5  and  N2_6
REMARK    3  A    between atoms: C1_5  and  C9_28
REMARK       I    between atoms: N2_6  and  C2_8
REMARK    4  A    between atoms: C2_8  and  C3_10
REMARK    5  A    between atoms: C3_10  and  C4_12
REMARK    6  A    between atoms: C5_14  and  O4_15
REMARK    7  A    between atoms: C6_17  and  C7_18
REMARK    8  A    between atoms: C7_18  and  O5_19
REMARK    9  A    between atoms: C8_22  and  O7_23
REMARK   10  A    between atoms: O7_23  and  S1_24
REMARK   11  A    between atoms: C9_28  and  O11_29
REMARK   12  A    between atoms: C9_28  and  N3_31
REMARK   13  A    between atoms: N3_31  and  N4_33
REMARK       I    between atoms: N4_33  and  C10_35
REMARK       I    between atoms: C10_35  and  N5_37
REMARK   14  A    between atoms: N5_37  and  N6_39
ROOT
HETATM    1  C1  UNL     1      62.177  39.487  40.725  1.00  0.00     0.360 C
ENDROOT
BRANCH   1   2
HETATM    2  N1  UNL     1      63.123  38.944  39.601  1.00  0.00    -0.051 N
ATOM      3  H13 UNL     1      63.392  39.621  38.886  1.00  0.00     0.277 HD
ATOM      4  H12 UNL     1      64.079  38.739  39.892  1.00  0.00     0.277 HD
ATOM      5  H11 UNL     1      62.586  38.143  39.267  1.00  0.00     0.277 HD
ENDBRANCH   1   2
BRANCH   1   6
HETATM    6  N2  UNL     1      62.342  40.909  40.554  1.00  0.00    -0.320 N
HETATM    7  C2  UNL     1      61.353  41.518  39.754  1.00  0.00     0.292 C
HETATM    8  O1  UNL     1      60.435  40.780  39.208  1.00  0.00    -0.264 OA
ATOM      9  H2  UNL     1      63.109  41.431  40.977  1.00  0.00     0.165 HD
BRANCH   7  10
HETATM   10  C3  UNL     1      61.245  42.938  39.469  1.00  0.00     0.250 C
HETATM   11  O2  UNL     1      60.477  43.634  40.163  1.00  0.00    -0.284 OA
BRANCH  10  12
HETATM   12  C4  UNL     1      62.048  43.540  38.375  1.00  0.00     0.260 C
HETATM   13  O3  UNL     1      62.712  42.605  37.640  1.00  0.00    -0.341 OA
HETATM   14  C5  UNL     1      62.416  42.547  36.287  1.00  0.00     0.289 C
HETATM   15  C6  UNL     1      60.971  42.487  36.060  1.00  0.00     0.203 C
HETATM   16  O6  UNL     1      60.199  43.176  37.029  1.00  0.00    -0.345 OA
HETATM   17  C8  UNL     1      60.960  44.279  37.510  1.00  0.00     0.319 C
BRANCH  14  18
HETATM   18  O4  UNL     1      63.030  41.325  35.859  1.00  0.00    -0.369 OA
ATOM     19  H4  UNL     1      62.353  40.904  35.342  1.00  0.00     0.212 HD
ENDBRANCH  14  18
BRANCH  15  20
HETATM   20  C7  UNL     1      60.563  42.917  34.687  1.00  0.00     0.201 C
BRANCH  20  21
HETATM   21  O5  UNL     1      61.620  43.225  33.841  1.00  0.00    -0.398 OA
ATOM     22  H5  UNL     1      62.034  42.472  33.437  1.00  0.00     0.209 HD
ENDBRANCH  20  21
ENDBRANCH  15  20
BRANCH  17  23
HETATM   23  O7  UNL     1      61.477  44.945  36.485  1.00  0.00    -0.221 OA
BRANCH  23  24
HETATM   24  S1  UNL     1      61.573  46.574  36.563  1.00  0.00     0.254 S
HETATM   25  O8  UNL     1      60.872  47.311  35.484  1.00  0.00    -0.572 OA
HETATM   26  O9  UNL     1      63.019  46.972  36.489  1.00  0.00    -0.572 OA
HETATM   27  O10 UNL     1      61.041  47.027  38.117  1.00  0.00    -0.572 OA
ENDBRANCH  23  24
ENDBRANCH  17  23
ENDBRANCH  10  12
ENDBRANCH   7  10
ENDBRANCH   1   6
BRANCH   1  28
HETATM   28  C9  UNL     1      62.778  38.992  41.964  1.00  0.00     0.181 C
BRANCH  28  29
HETATM   29  O11 UNL     1      62.800  39.834  42.963  1.00  0.00    -0.345 OA
ATOM     30  H11 UNL     1      62.635  39.463  43.821  1.00  0.00     0.219 HD
ENDBRANCH  28  29
BRANCH  28  31
HETATM   31  N3  UNL     1      63.316  37.703  42.177  1.00  0.00    -0.276 N
ATOM     32  H3  UNL     1      62.760  36.860  42.034  1.00  0.00     0.189 HD
BRANCH  31  33
HETATM   33  N4  UNL     1      64.663  37.641  42.599  1.00  0.00    -0.248 N
HETATM   34  C10 UNL     1      65.627  37.226  41.681  1.00  0.00     0.356 C
HETATM   35  O12 UNL     1      65.204  36.888  40.509  1.00  0.00    -0.244 OA
HETATM   36  N5  UNL     1      66.996  37.145  41.939  1.00  0.00    -0.214 N
ATOM     37  H5  UNL     1      67.357  37.394  42.860  1.00  0.00     0.195 HD
ATOM     38  H4  UNL     1      64.924  37.893  43.553  1.00  0.00     0.192 HD
BRANCH  36  39
HETATM   39  N6  UNL     1      67.850  36.734  40.960  1.00  0.00    -0.094 N
HETATM   40  N7  UNL     1      67.850  36.872  39.622  1.00  0.00    -0.194 N
HETATM   41  N8  UNL     1      68.974  36.285  39.447  1.00  0.00    -0.206 N
ATOM     42  H7  UNL     1      67.187  37.295  38.974  1.00  0.00     0.213 HD
HETATM   43  N9  UNL     1      69.048  36.105  40.801  1.00  0.00     0.036 NA
ATOM     44  H8  UNL     1      69.560  36.053  38.646  1.00  0.00     0.207 HD
ENDBRANCH  36  39
ENDBRANCH  31  33
ENDBRANCH  28  31
ENDBRANCH   1  28
TORSDOF 14
ENDMDL