MODEL 4
REMARK VINA RESULT: -6.481823434      2.564      6.882
REMARK  20 active torsions:
REMARK  status: ('A' for Active; 'I' for Inactive)
REMARK    1  A    between atoms: C2_2  and  C15_42
REMARK    2  A    between atoms: C5_5  and  O1_6
REMARK    3  A    between atoms: C5_5  and  C6_8
REMARK    4  A    between atoms: C8_13  and  C9_14
REMARK    5  A    between atoms: C9_14  and  N1_15
REMARK    6  A    between atoms: C9_14  and  C13_31
REMARK    7  A    between atoms: N1_15  and  O5_16
REMARK    8  A    between atoms: O5_16  and  C10_17
REMARK    9  A    between atoms: C10_17  and  N4_25
REMARK   10  A    between atoms: N2_18  and  C11_20
REMARK   11  A    between atoms: C12_21  and  N3_22
REMARK   12  A    between atoms: N4_25  and  N5_27
REMARK   13  A    between atoms: N5_27  and  N6_28
REMARK   14  A    between atoms: C13_31  and  O6_32
REMARK   15  A    between atoms: C13_31  and  C14_34
REMARK   16  A    between atoms: C14_34  and  N7_35
REMARK   17  A    between atoms: C14_34  and  O7_39
REMARK   18  A    between atoms: C15_42  and  O9_43
REMARK   19  A    between atoms: C15_42  and  C16_45
REMARK   20  A    between atoms: C16_45  and  O10_46
ROOT
HETATM    1  C9  UNL     1      62.589  40.909  38.010  1.00  0.00     0.165 C
ENDROOT
BRANCH   1   2
HETATM    2  C8  UNL     1      62.894  39.585  38.597  1.00  0.00     0.267 C
HETATM    3  C7  UNL     1      64.307  39.273  38.805  1.00  0.00     0.208 C
HETATM    4  C5  UNL     1      64.649  37.857  39.096  1.00  0.00     0.215 C
HETATM    5  O4  UNL     1      65.181  40.086  38.754  1.00  0.00    -0.291 OA
HETATM    6  C4  UNL     1      63.852  37.450  40.296  1.00  0.00     0.122 C
HETATM    7  C3  UNL     1      62.958  38.545  40.761  1.00  0.00     0.056 C
HETATM    8  C2  UNL     1      62.813  38.679  42.085  1.00  0.00    -0.024 C
HETATM    9  O8  UNL     1      62.285  39.412  39.891  1.00  0.00    -0.335 OA
HETATM   10  C1  UNL     1      63.510  37.783  43.022  1.00  0.00     0.049 C
BRANCH   4  11
HETATM   11  O1  UNL     1      64.212  37.095  37.993  1.00  0.00    -0.372 OA
ATOM     12  H1  UNL     1      64.583  37.470  37.203  1.00  0.00     0.211 HD
ENDBRANCH   4  11
BRANCH   4  13
HETATM   13  C6  UNL     1      66.079  37.635  39.273  1.00  0.00     0.217 C
HETATM   14  O2  UNL     1      66.549  37.540  40.421  1.00  0.00    -0.645 OA
HETATM   15  O3  UNL     1      66.923  37.528  38.196  1.00  0.00    -0.645 OA
ENDBRANCH   4  13
BRANCH   8  16
HETATM   16  C15 UNL     1      61.946  39.732  42.624  1.00  0.00     0.172 C
BRANCH  16  17
HETATM   17  O9  UNL     1      60.819  39.847  41.812  1.00  0.00    -0.389 OA
ATOM     18  H9  UNL     1      60.831  40.697  41.389  1.00  0.00     0.210 HD
ENDBRANCH  16  17
BRANCH  16  19
HETATM   19  C16 UNL     1      62.632  41.082  42.640  1.00  0.00     0.200 C
BRANCH  19  20
HETATM   20  O10 UNL     1      62.268  41.890  41.598  1.00  0.00    -0.398 OA
ATOM     21  H10 UNL     1      62.958  42.014  40.957  1.00  0.00     0.209 HD
ENDBRANCH  19  20
ENDBRANCH  16  19
ENDBRANCH   8  16
ENDBRANCH   1   2
BRANCH   1  22
HETATM   22  N1  UNL     1      61.548  41.457  38.382  1.00  0.00    -0.276 NA
BRANCH  22  23
HETATM   23  O5  UNL     1      60.464  42.076  38.392  1.00  0.00    -0.126 OA
BRANCH  23  24
HETATM   24  C10 UNL     1      59.884  42.749  39.473  1.00  0.00     0.283 C
HETATM   25  N2  UNL     1      59.720  43.997  39.318  1.00  0.00    -0.276 N
ATOM     26  H2  UNL     1      59.298  44.517  40.088  1.00  0.00     0.180 HD
BRANCH  25  27
HETATM   27  C11 UNL     1      60.068  44.704  38.185  1.00  0.00     0.036 C
HETATM   28  C12 UNL     1      60.388  45.355  37.195  1.00  0.00     0.027 C
BRANCH  28  29
HETATM   29  N3  UNL     1      60.781  46.101  36.065  1.00  0.00    -0.358 N
ATOM     30  H32 UNL     1      60.168  45.309  36.263  1.00  0.00     0.166 HD
ATOM     31  H31 UNL     1      61.075  46.651  35.259  1.00  0.00     0.166 HD
ENDBRANCH  28  29
ENDBRANCH  25  27
BRANCH  24  32
HETATM   32  N4  UNL     1      59.487  42.143  40.685  1.00  0.00    -0.246 N
ATOM     33  H4  UNL     1      59.168  41.174  40.695  1.00  0.00     0.188 HD
BRANCH  32  34
HETATM   34  N5  UNL     1      59.534  42.876  41.864  1.00  0.00    -0.027 NA
BRANCH  34  35
HETATM   35  N6  UNL     1      59.277  42.125  43.013  1.00  0.00    -0.329 N
ATOM     36  H62 UNL     1      59.328  41.106  43.017  1.00  0.00     0.174 HD
ATOM     37  H61 UNL     1      59.037  42.685  43.831  1.00  0.00     0.174 HD
ENDBRANCH  34  35
ENDBRANCH  32  34
ENDBRANCH  24  32
ENDBRANCH  23  24
ENDBRANCH  22  23
ENDBRANCH   1  22
BRANCH   1  38
HETATM   38  C13 UNL     1      63.445  41.603  37.029  1.00  0.00     0.239 C
BRANCH  38  39
HETATM   39  O6  UNL     1      63.399  40.970  35.803  1.00  0.00    -0.384 OA
ATOM     40  H6  UNL     1      62.917  41.492  35.172  1.00  0.00     0.210 HD
ENDBRANCH  38  39
BRANCH  38  41
HETATM   41  C14 UNL     1      63.276  43.093  36.960  1.00  0.00     0.352 C
BRANCH  41  42
HETATM   42  N7  UNL     1      63.305  43.624  35.611  1.00  0.00    -0.050 N
ATOM     43  H73 UNL     1      63.721  42.950  34.968  1.00  0.00     0.277 HD
ATOM     44  H72 UNL     1      62.362  43.672  35.224  1.00  0.00     0.277 HD
ATOM     45  H71 UNL     1      63.772  44.528  35.534  1.00  0.00     0.277 HD
ENDBRANCH  41  42
BRANCH  41  46
HETATM   46  O7  UNL     1      64.285  43.760  37.675  1.00  0.00    -0.368 OA
ATOM     47  H7  UNL     1      63.983  44.598  38.005  1.00  0.00     0.212 HD
ENDBRANCH  41  46
ENDBRANCH  38  41
ENDBRANCH   1  38
TORSDOF 20
ENDMDL