MODEL 4
REMARK VINA RESULT: -7.353516759      1.166      1.185
REMARK  5 active torsions:
REMARK  status: ('A' for Active; 'I' for Inactive)
REMARK    1  A    between atoms: N1_1  and  C1_4
REMARK    2  A    between atoms: C2_7  and  N3_8
REMARK    3  A    between atoms: C4_10  and  C5_11
REMARK    4  A    between atoms: C6_12  and  C7_13
REMARK    5  A    between atoms: C9_25  and  N9_26
REMARK       I    between atoms: N10_29  and  C10_30
ROOT
HETATM    1  C1  UNL     1      35.804  -5.109  13.667  1.00  0.00     0.146 A
HETATM    2  N2  UNL     1      36.228  -3.870  13.326  1.00  0.00    -0.173 N
ATOM      3  H2  UNL     1      36.812  -3.365  13.993  1.00  0.00     0.186 HD
HETATM    4  C2  UNL     1      35.930  -3.261  12.168  1.00  0.00     0.707 A
HETATM    5  N7  UNL     1      35.162  -3.953  11.317  1.00  0.00    -0.172 N
ATOM      6  H7  UNL     1      34.915  -3.523  10.426  1.00  0.00     0.186 HD
HETATM    7  C8  UNL     1      34.704  -5.182  11.581  1.00  0.00     0.168 A
HETATM    8  N8  UNL     1      33.939  -6.049  10.904  1.00  0.00    -0.173 N
ATOM      9  H8  UNL     1      33.547  -5.881   9.978  1.00  0.00     0.186 HD
HETATM   10  C9  UNL     1      33.766  -7.159  11.614  1.00  0.00     0.688 A
HETATM   11  N10 UNL     1      34.437  -7.037  12.811  1.00  0.00    -0.091 N
HETATM   12  C10 UNL     1      34.478  -8.017  13.816  1.00  0.00     0.354 C
HETATM   13  N11 UNL     1      33.755  -9.250  13.565  1.00  0.00    -0.039 NA
HETATM   14  O2  UNL     1      35.060  -7.970  14.911  1.00  0.00    -0.249 OA
HETATM   15  C11 UNL     1      35.010  -5.828  12.789  1.00  0.00     0.150 A
ENDROOT
BRANCH   4  16
HETATM   16  N3  UNL     1      36.409  -1.958  11.874  1.00  0.00    -0.081 N
HETATM   17  C3  UNL     1      37.180  -1.170  12.626  1.00  0.00     0.167 A
HETATM   18  C4  UNL     1      37.396   0.008  11.944  1.00  0.00     0.067 A
HETATM   19  N5  UNL     1      36.729  -0.120  10.776  1.00  0.00    -0.284 N
HETATM   20  N6  UNL     1      36.146  -1.308  10.761  1.00  0.00    -0.222 N
ATOM     21  H5  UNL     1      36.683   0.578  10.034  1.00  0.00     0.188 HD
ATOM     22  H6  UNL     1      35.575  -1.668   9.997  1.00  0.00     0.209 HD
BRANCH  18  23
HETATM   23  C5  UNL     1      38.185   1.144  12.406  1.00  0.00     0.037 C
HETATM   24  C6  UNL     1      37.667   1.952  13.307  1.00  0.00     0.073 C
BRANCH  24  25
HETATM   25  C7  UNL     1      38.431   3.102  13.792  1.00  0.00     0.254 C
HETATM   26  N4  UNL     1      39.387   3.745  12.960  1.00  0.00    -0.058 NA
HETATM   27  O1  UNL     1      38.237   3.523  14.957  1.00  0.00    -0.272 OA
ENDBRANCH  24  25
ENDBRANCH  18  23
ENDBRANCH   4  16
BRANCH   1  28
HETATM   28  N1  UNL     1      36.151  -5.593  14.803  1.00  0.00    -0.383 N
ATOM     29  H12 UNL     1      36.983  -5.261  15.290  1.00  0.00     0.157 HD
ATOM     30  H11 UNL     1      35.579  -6.325  15.225  1.00  0.00     0.157 HD
ENDBRANCH   1  28
BRANCH  10  31
HETATM   31  N9  UNL     1      33.093  -8.213  11.290  1.00  0.00    -0.234 N
ATOM     32  H92 UNL     1      32.975  -8.521  10.324  1.00  0.00     0.174 HD
ATOM     33  H91 UNL     1      32.604  -8.861  11.908  1.00  0.00     0.174 HD
ENDBRANCH  10  31
TORSDOF 5
ENDMDL