MODEL 2
REMARK VINA RESULT: -7.071059253      1.620      6.532
REMARK  6 active torsions:
REMARK  status: ('A' for Active; 'I' for Inactive)
REMARK       I    between atoms: N1_2  and  C2_4
REMARK    1  A    between atoms: C2_4  and  C3_6
REMARK    2  A    between atoms: C4_7  and  C5_8
REMARK    3  A    between atoms: C5_8  and  C7_16
REMARK    4  A    between atoms: N2_9  and  N3_11
REMARK       I    between atoms: N3_11  and  C6_13
REMARK    5  A    between atoms: N8_23  and  C8_24
REMARK    6  A    between atoms: C9_30  and  N11_31
ROOT
HETATM    1  C3  UNL     1      36.344  -2.468  12.826  1.00  0.00     0.158 A
HETATM    2  C4  UNL     1      36.321  -1.341  12.049  1.00  0.00     0.117 A
HETATM    3  N6  UNL     1      35.462  -1.606  11.000  1.00  0.00    -0.281 N
ATOM      4  H6  UNL     1      35.227  -0.966  10.242  1.00  0.00     0.188 HD
HETATM    5  N7  UNL     1      35.012  -2.793  11.147  1.00  0.00    -0.233 N
ATOM      6  H7  UNL     1      34.354  -3.238  10.507  1.00  0.00     0.209 HD
HETATM    7  N8  UNL     1      35.510  -3.383  12.244  1.00  0.00    -0.212 N
ENDROOT
BRANCH   2   8
HETATM    8  C5  UNL     1      36.983  -0.057  12.237  1.00  0.00     0.144 C
HETATM    9  N2  UNL     1      36.353   1.020  12.303  1.00  0.00    -0.290 N
ATOM     10  H2  UNL     1      35.336   1.000  12.222  1.00  0.00     0.187 HD
BRANCH   9  11
HETATM   11  N3  UNL     1      36.982   2.243  12.483  1.00  0.00    -0.253 N
HETATM   12  C6  UNL     1      36.337   3.328  13.155  1.00  0.00     0.347 C
HETATM   13  N4  UNL     1      36.982   4.579  13.338  1.00  0.00    -0.038 NA
HETATM   14  O2  UNL     1      35.160   3.110  13.576  1.00  0.00    -0.249 OA
ATOM     15  H3  UNL     1      37.929   2.371  12.127  1.00  0.00     0.191 HD
ENDBRANCH   9  11
BRANCH   8  16
HETATM   16  C7  UNL     1      38.447  -0.020  12.355  1.00  0.00     0.285 C
HETATM   17  N5  UNL     1      39.056   0.064  13.653  1.00  0.00    -0.056 NA
HETATM   18  O3  UNL     1      39.221  -0.057  11.365  1.00  0.00    -0.269 OA
ENDBRANCH   8  16
ENDBRANCH   2   8
BRANCH   1  19
HETATM   19  C2  UNL     1      37.146  -2.750  13.996  1.00  0.00     0.272 C
HETATM   20  N1  UNL     1      37.070  -2.042  15.233  1.00  0.00    -0.360 N
HETATM   21  C1  UNL     1      37.904  -2.383  16.383  1.00  0.00     0.149 C
ATOM     22  H1  UNL     1      36.410  -1.268  15.317  1.00  0.00     0.162 HD
HETATM   23  O1  UNL     1      37.997  -3.676  13.992  1.00  0.00    -0.266 OA
ENDBRANCH   1  19
BRANCH   7  24
HETATM   24  C8  UNL     1      35.236  -4.701  12.676  1.00  0.00     0.196 A
HETATM   25  N9  UNL     1      35.394  -5.135  13.937  1.00  0.00    -0.220 N
HETATM   26  O4  UNL     1      35.073  -6.411  14.001  1.00  0.00    -0.153 OA
ATOM     27  H9  UNL     1      35.712  -4.565  14.721  1.00  0.00     0.198 HD
HETATM   28  N10 UNL     1      34.707  -6.838  12.832  1.00  0.00    -0.222 N
HETATM   29  C9  UNL     1      34.795  -5.795  11.964  1.00  0.00     0.169 A
ATOM     30  H10 UNL     1      34.407  -7.787  12.604  1.00  0.00     0.198 HD
BRANCH  29  31
HETATM   31  N11 UNL     1      34.526  -5.782  10.710  1.00  0.00    -0.381 N
ATOM     32 2H11 UNL     1      34.706  -6.511  10.020  1.00  0.00     0.157 HD
ATOM     33 1H11 UNL     1      34.077  -5.005  10.225  1.00  0.00     0.157 HD
ENDBRANCH  29  31
ENDBRANCH   7  24
TORSDOF 6
ENDMDL