MODEL 5
REMARK VINA RESULT: -6.325935611      1.352      1.517
REMARK  6 active torsions:
REMARK  status: ('A' for Active; 'I' for Inactive)
REMARK    1  A    between atoms: N1_2  and  C3_4
REMARK    2  A    between atoms: C4_7  and  N3_8
REMARK    3  A    between atoms: N3_8  and  N4_9
REMARK    4  A    between atoms: C6_15  and  C7_16
REMARK       I    between atoms: C7_16  and  N7_18
REMARK       I    between atoms: N7_18  and  C8_20
REMARK    5  A    between atoms: C9_25  and  N10_26
REMARK    6  A    between atoms: N10_26  and  O2_28
ROOT
HETATM    1  N3  UNL     1      37.250  -0.930  12.582  1.00  0.00    -0.294 NA
ENDROOT
BRANCH   1   2
HETATM    2  C4  UNL     1      37.956  -0.109  13.026  1.00  0.00     0.250 A
HETATM    3  N2  UNL     1      39.275  -0.309  13.358  1.00  0.00    -0.160 N
HETATM    4  C3  UNL     1      40.062   0.638  13.861  1.00  0.00     0.683 A
ATOM      5  H2  UNL     1      39.672  -1.237  13.210  1.00  0.00     0.187 HD
HETATM    6  N12 UNL     1      39.554   1.859  14.060  1.00  0.00    -0.176 N
HETATM    7  C10 UNL     1      38.272   2.193  13.777  1.00  0.00     0.165 A
ATOM      8  H12 UNL     1      40.164   2.579  14.448  1.00  0.00     0.185 HD
HETATM    9  C9  UNL     1      37.488   1.198  13.261  1.00  0.00     0.156 A
HETATM   10  N11 UNL     1      37.786   3.499  14.008  1.00  0.00    -0.079 NA
BRANCH   4  11
HETATM   11  N1  UNL     1      41.439   0.386  14.196  1.00  0.00    -0.226 N
HETATM   12  C1  UNL     1      42.121  -0.786  13.727  1.00  0.00     0.168 C
HETATM   13  C2  UNL     1      42.161   1.324  15.020  1.00  0.00     0.168 C
ENDBRANCH   4  11
BRANCH   9  14
HETATM   14  N10 UNL     1      36.138   1.457  12.937  1.00  0.00    -0.261 N
ATOM     15  H10 UNL     1      35.759   1.089  12.064  1.00  0.00     0.194 HD
BRANCH  14  16
HETATM   16  O2  UNL     1      35.394   2.125  13.687  1.00  0.00    -0.289 OA
ATOM     17  H2  UNL     1      34.448   2.092  13.614  1.00  0.00     0.244 HD
ENDBRANCH  14  16
ENDBRANCH   9  14
ENDBRANCH   1   2
BRANCH   1  18
HETATM   18  N4  UNL     1      36.459  -1.847  12.075  1.00  0.00    -0.160 N
HETATM   19  C5  UNL     1      35.540  -1.691  11.096  1.00  0.00     0.239 A
HETATM   20  N5  UNL     1      34.949  -2.846  10.869  1.00  0.00    -0.291 N
HETATM   21  N6  UNL     1      35.470  -3.732  11.682  1.00  0.00    -0.278 N
ATOM     22  H5  UNL     1      34.215  -3.020  10.181  1.00  0.00     0.188 HD
HETATM   23  C6  UNL     1      36.401  -3.168  12.442  1.00  0.00     0.224 A
ATOM     24  H6  UNL     1      35.200  -4.714  11.725  1.00  0.00     0.189 HD
BRANCH  23  25
HETATM   25  C7  UNL     1      37.231  -3.798  13.485  1.00  0.00     0.296 C
HETATM   26  O1  UNL     1      37.817  -4.882  13.222  1.00  0.00    -0.264 OA
HETATM   27  N7  UNL     1      37.332  -3.151  14.742  1.00  0.00    -0.295 N
HETATM   28  C8  UNL     1      38.116  -3.693  15.808  1.00  0.00     0.188 C
ATOM     29  H7  UNL     1      36.830  -2.275  14.891  1.00  0.00     0.171 HD
HETATM   30  N8  UNL     1      38.154  -3.044  16.915  1.00  0.00    -0.373 N
HETATM   31  N9  UNL     1      38.848  -4.901  15.709  1.00  0.00    -0.064 NA
ATOM     32  H82 UNL     1      37.627  -2.174  16.986  1.00  0.00     0.158 HD
ATOM     33  H81 UNL     1      38.713  -3.431  17.675  1.00  0.00     0.158 HD
ENDBRANCH  23  25
ENDBRANCH   1  18
TORSDOF 6
ENDMDL