MODEL 3
REMARK VINA RESULT: -6.947491558      2.531      3.534
REMARK  6 active torsions:
REMARK  status: ('A' for Active; 'I' for Inactive)
REMARK    1  A    between atoms: C2_2  and  C3_3
REMARK    2  A    between atoms: C3_3  and  N2_6
REMARK    3  A    between atoms: C7_15  and  N7_16
REMARK    4  A    between atoms: N7_16  and  C8_18
REMARK    5  A    between atoms: C8_18  and  C11_29
REMARK    6  A    between atoms: N8_19  and  C9_21
ROOT
HETATM    1  C3  UNL     1      38.083  -1.095  12.119  1.00  0.00     0.197 C
HETATM    2  C4  UNL     1      39.373  -1.520  11.510  1.00  0.00     0.085 C
HETATM    3  N1  UNL     1      40.384  -1.861  11.049  1.00  0.00    -0.195 NA
ENDROOT
BRANCH   1   4
HETATM    4  C2  UNL     1      37.806   0.258  11.664  1.00  0.00     0.036 C
HETATM    5  C1  UNL     1      36.637   0.950  12.296  1.00  0.00     0.008 C
ENDBRANCH   1   4
BRANCH   1   6
HETATM    6  N2  UNL     1      38.092  -1.499  13.463  1.00  0.00    -0.300 N
HETATM    7  C5  UNL     1      38.916  -0.872  14.455  1.00  0.00     0.197 A
HETATM    8  N3  UNL     1      39.688   0.207  13.958  1.00  0.00    -0.063 NA
HETATM    9  N4  UNL     1      38.992  -1.200  15.679  1.00  0.00    -0.305 N
HETATM   10  C6  UNL     1      38.193  -2.287  16.113  1.00  0.00     0.193 A
ATOM     11  H4  UNL     1      39.605  -0.700  16.324  1.00  0.00     0.171 HD
HETATM   12  N5  UNL     1      38.228  -2.707  17.478  1.00  0.00    -0.063 NA
HETATM   13  N6  UNL     1      37.450  -2.881  15.277  1.00  0.00    -0.326 N
HETATM   14  C7  UNL     1      37.275  -2.616  13.875  1.00  0.00     0.297 A
ATOM     15  H6  UNL     1      36.899  -3.654  15.650  1.00  0.00     0.166 HD
BRANCH  14  16
HETATM   16  N7  UNL     1      35.904  -2.403  13.554  1.00  0.00    -0.333 N
ATOM     17  H7  UNL     1      35.375  -1.656  14.006  1.00  0.00     0.165 HD
BRANCH  16  18
HETATM   18  C8  UNL     1      35.258  -3.281  12.553  1.00  0.00     0.184 C
HETATM   19  N8  UNL     1      34.892  -4.397  12.879  1.00  0.00    -0.321 N
ATOM     20  H8  UNL     1      35.131  -4.493  13.866  1.00  0.00     0.169 HD
BRANCH  19  21
HETATM   21  C9  UNL     1      34.308  -5.574  12.519  1.00  0.00     0.140 A
HETATM   22  C10 UNL     1      34.291  -6.727  13.302  1.00  0.00     0.158 A
HETATM   23  N9  UNL     1      33.637  -7.653  12.613  1.00  0.00    -0.294 N
HETATM   24  N10 UNL     1      33.257  -7.123  11.455  1.00  0.00    -0.241 N
ATOM     25  H9  UNL     1      33.456  -8.609  12.920  1.00  0.00     0.187 HD
HETATM   26  N11 UNL     1      33.648  -5.875  11.373  1.00  0.00    -0.270 N
ATOM     27  H10 UNL     1      32.736  -7.618  10.732  1.00  0.00     0.208 HD
ATOM     28  H11 UNL     1      33.484  -5.243  10.589  1.00  0.00     0.190 HD
ENDBRANCH  19  21
BRANCH  18  29
HETATM   29  C11 UNL     1      35.094  -2.736  11.218  1.00  0.00     0.245 C
HETATM   30  O1  UNL     1      35.385  -3.400  10.219  1.00  0.00    -0.642 OA
HETATM   31  O2  UNL     1      34.605  -1.453  11.017  1.00  0.00    -0.642 OA
ENDBRANCH  18  29
ENDBRANCH  16  18
ENDBRANCH  14  16
ENDBRANCH   1   6
TORSDOF 6
ENDMDL