MODEL 4
REMARK VINA RESULT: -7.762890374      2.213     10.046
REMARK  5 active torsions:
REMARK  status: ('A' for Active; 'I' for Inactive)
REMARK    1  A    between atoms: N1_1  and  N2_4
REMARK       I    between atoms: N2_4  and  C1_5
REMARK       I    between atoms: C1_5  and  N3_7
REMARK    2  A    between atoms: N7_17  and  C5_19
REMARK    3  A    between atoms: C5_19  and  C6_20
REMARK    4  A    between atoms: N8_21  and  N9_23
REMARK    5  A    between atoms: N9_23  and  C7_25
ROOT
HETATM    1  N2  UNL     1      36.256   5.059  14.192  1.00  0.00    -0.271 NA
HETATM    2  C1  UNL     1      36.328   3.838  13.677  1.00  0.00     0.439 C
HETATM    3  O1  UNL     1      35.345   3.045  13.502  1.00  0.00    -0.226 OA
HETATM    4  N3  UNL     1      37.618   3.297  13.252  1.00  0.00    -0.170 N
HETATM    5  N4  UNL     1      38.730   4.173  13.163  1.00  0.00    -0.283 N
ATOM      6  H4  UNL     1      38.655   5.155  13.432  1.00  0.00     0.188 HD
HETATM    7  C2  UNL     1      39.947   3.630  12.688  1.00  0.00     0.199 A
HETATM    8  N5  UNL     1      40.047   2.386  12.346  1.00  0.00    -0.334 N
ATOM      9  H5  UNL     1      40.948   2.046  12.009  1.00  0.00     0.168 HD
HETATM   10  C3  UNL     1      38.968   1.474  12.419  1.00  0.00     0.169 A
HETATM   11  N6  UNL     1      38.823   0.188  12.141  1.00  0.00    -0.173 N
ATOM     12  H6  UNL     1      39.554  -0.427  11.781  1.00  0.00     0.186 HD
HETATM   13  C4  UNL     1      37.537  -0.184  12.415  1.00  0.00     0.681 A
HETATM   14  N7  UNL     1      37.029  -1.338  12.224  1.00  0.00    -0.221 N
ATOM     15  H7  UNL     1      37.646  -2.045  11.825  1.00  0.00     0.178 HD
HETATM   16  N13 UNL     1      36.900   0.908  12.866  1.00  0.00    -0.171 N
ATOM     17  H13 UNL     1      35.922   0.940  13.155  1.00  0.00     0.186 HD
HETATM   18  C9  UNL     1      37.737   1.948  12.881  1.00  0.00     0.193 A
ENDROOT
BRANCH  14  19
HETATM   19  C5  UNL     1      35.700  -1.747  12.505  1.00  0.00     0.184 C
BRANCH  19  20
HETATM   20  C6  UNL     1      35.122  -2.276  11.229  1.00  0.00     0.100 C
HETATM   21  N8  UNL     1      35.130  -3.500  10.941  1.00  0.00    -0.300 N
ATOM     22  H8  UNL     1      34.712  -3.763  10.049  1.00  0.00     0.186 HD
BRANCH  21  23
HETATM   23  N9  UNL     1      35.643  -4.516  11.704  1.00  0.00    -0.131 N
ATOM     24  H9  UNL     1      36.600  -4.506  12.057  1.00  0.00     0.205 HD
BRANCH  23  25
HETATM   25  C7  UNL     1      34.810  -5.506  11.948  1.00  0.00     0.719 A
HETATM   26  N10 UNL     1      34.809  -6.324  13.043  1.00  0.00    -0.153 N
HETATM   27  C8  UNL     1      33.824  -7.199  12.922  1.00  0.00     0.271 A
ATOM     28  H10 UNL     1      35.461  -6.268  13.825  1.00  0.00     0.187 HD
HETATM   29  N11 UNL     1      33.564  -8.203  13.916  1.00  0.00    -0.054 NA
HETATM   30  O2  UNL     1      33.221  -6.954  11.802  1.00  0.00    -0.189 OA
HETATM   31  N12 UNL     1      33.792  -5.943  11.197  1.00  0.00    -0.087 N
ATOM     32  H12 UNL     1      33.508  -5.553  10.299  1.00  0.00     0.214 HD
ENDBRANCH  23  25
ENDBRANCH  21  23
ENDBRANCH  19  20
ENDBRANCH  14  19
BRANCH   1  33
HETATM   33  N1  UNL     1      36.182   6.298  14.716  1.00  0.00    -0.275 N
ATOM     34  H12 UNL     1      36.226   5.341  14.365  1.00  0.00     0.191 HD
ATOM     35  H11 UNL     1      36.126   7.236  15.111  1.00  0.00     0.191 HD
ENDBRANCH   1  33
TORSDOF 5
ENDMDL