MODEL 4
REMARK VINA RESULT: -7.381319059      1.158      1.382
REMARK  6 active torsions:
REMARK  status: ('A' for Active; 'I' for Inactive)
REMARK    1  A    between atoms: N1_1  and  C1_4
REMARK    2  A    between atoms: C4_14  and  S1_15
REMARK    3  A    between atoms: S1_15  and  C5_16
REMARK    4  A    between atoms: C5_16  and  C6_17
REMARK    5  A    between atoms: C7_22  and  C8_23
REMARK       I    between atoms: C8_23  and  N7_25
REMARK    6  A    between atoms: N7_25  and  N8_26
ROOT
HETATM    1  C1  UNL     1      33.573  -6.383  12.157  1.00  0.00     0.694 A
HETATM    2  N2  UNL     1      33.898  -7.255  13.127  1.00  0.00    -0.152 N
ATOM      3  H2  UNL     1      33.395  -8.135  13.242  1.00  0.00     0.188 HD
HETATM    4  C2  UNL     1      34.921  -6.917  13.944  1.00  0.00     0.307 A
HETATM    5  O1  UNL     1      35.259  -7.693  14.861  1.00  0.00    -0.263 OA
HETATM    6  C3  UNL     1      35.585  -5.712  13.761  1.00  0.00     0.214 A
HETATM    7  N3  UNL     1      36.622  -5.118  14.408  1.00  0.00    -0.277 N
ATOM      8  H3  UNL     1      37.124  -5.501  15.208  1.00  0.00     0.189 HD
HETATM    9  N4  UNL     1      36.868  -3.957  13.823  1.00  0.00    -0.277 N
ATOM     10  H4  UNL     1      37.597  -3.301  14.104  1.00  0.00     0.189 HD
HETATM   11  C4  UNL     1      36.026  -3.777  12.820  1.00  0.00     0.183 A
HETATM   12  N10 UNL     1      35.236  -4.863  12.785  1.00  0.00    -0.195 N
HETATM   13  N11 UNL     1      34.224  -5.217  11.989  1.00  0.00    -0.122 N
ATOM     14  H11 UNL     1      33.938  -4.589  11.238  1.00  0.00     0.206 HD
ENDROOT
BRANCH  11  15
HETATM   15  S1  UNL     1      35.921  -2.401  11.719  1.00  0.00    -0.083 SA
BRANCH  15  16
HETATM   16  C5  UNL     1      37.344  -1.336  11.736  1.00  0.00     0.160 C
BRANCH  16  17
HETATM   17  C6  UNL     1      36.966   0.003  12.269  1.00  0.00     0.107 A
HETATM   18  N5  UNL     1      35.817   0.446  12.766  1.00  0.00    -0.286 N
HETATM   19  N6  UNL     1      35.950   1.720  13.169  1.00  0.00    -0.279 N
ATOM     20  H5  UNL     1      34.959  -0.102  12.833  1.00  0.00     0.188 HD
HETATM   21  C7  UNL     1      37.208   2.061  12.910  1.00  0.00     0.207 A
ATOM     22  H6  UNL     1      35.230   2.308  13.588  1.00  0.00     0.189 HD
HETATM   23  N9  UNL     1      37.841   1.044  12.367  1.00  0.00    -0.324 N
ATOM     24  H9  UNL     1      38.817   1.035  12.071  1.00  0.00     0.169 HD
BRANCH  21  25
HETATM   25  C8  UNL     1      37.813   3.376  13.223  1.00  0.00     0.380 C
HETATM   26  O2  UNL     1      37.656   4.226  12.279  1.00  0.00    -0.246 OA
HETATM   27  N7  UNL     1      38.448   3.577  14.391  1.00  0.00    -0.285 NA
BRANCH  27  28
HETATM   28  N8  UNL     1      39.056   3.771  15.512  1.00  0.00    -0.276 N
ATOM     29  H82 UNL     1      38.539   3.654  14.641  1.00  0.00     0.191 HD
ATOM     30  H81 UNL     1      39.538   3.924  16.398  1.00  0.00     0.191 HD
ENDBRANCH  27  28
ENDBRANCH  21  25
ENDBRANCH  16  17
ENDBRANCH  15  16
ENDBRANCH  11  15
BRANCH   1  31
HETATM   31  N1  UNL     1      32.604  -6.688  11.365  1.00  0.00    -0.233 N
ATOM     32  H12 UNL     1      31.903  -7.364  11.667  1.00  0.00     0.174 HD
ATOM     33  H11 UNL     1      32.568  -6.235  10.452  1.00  0.00     0.174 HD
ENDBRANCH   1  31
TORSDOF 6
ENDMDL