MODEL 5
REMARK VINA RESULT: -6.457064964      1.445      1.480
REMARK  11 active torsions:
REMARK  status: ('A' for Active; 'I' for Inactive)
REMARK    1  A    between atoms: N1_1  and  N2_4
REMARK    2  A    between atoms: N3_6  and  O1_7
REMARK    3  A    between atoms: N3_6  and  C1_9
REMARK    4  A    between atoms: C2_12  and  N5_13
REMARK    5  A    between atoms: N5_13  and  C3_15
REMARK    6  A    between atoms: C3_15  and  O4_24
REMARK    7  A    between atoms: N6_16  and  C4_18
REMARK    8  A    between atoms: C4_18  and  C5_19
REMARK    9  A    between atoms: C5_19  and  O2_20
REMARK   10  A    between atoms: O2_20  and  C6_21
REMARK   11  A    between atoms: O4_24  and  N8_25
ROOT
HETATM    1  C1  UNL     1      35.755  -4.734  12.700  1.00  0.00     0.198 A
HETATM    2  N4  UNL     1      35.642  -3.427  12.987  1.00  0.00    -0.170 N
ATOM      3  H4  UNL     1      34.713  -3.038  13.146  1.00  0.00     0.186 HD
HETATM    4  C2  UNL     1      36.718  -2.606  13.072  1.00  0.00     0.690 A
HETATM    5  N9  UNL     1      37.947  -3.113  12.863  1.00  0.00    -0.154 N
ATOM      6  H9  UNL     1      38.754  -2.493  12.928  1.00  0.00     0.187 HD
HETATM    7  C7  UNL     1      38.147  -4.411  12.570  1.00  0.00     0.287 A
HETATM    8  O5  UNL     1      39.298  -4.877  12.376  1.00  0.00    -0.265 OA
HETATM    9  C8  UNL     1      37.038  -5.225  12.489  1.00  0.00     0.163 A
HETATM   10  N10 UNL     1      37.156  -6.594  12.188  1.00  0.00    -0.092 NA
ENDROOT
BRANCH   4  11
HETATM   11  N5  UNL     1      36.560  -1.352  13.353  1.00  0.00    -0.153 N
ATOM     12  H5  UNL     1      35.854  -1.069  14.033  1.00  0.00     0.188 HD
BRANCH  11  13
HETATM   13  C3  UNL     1      37.376  -0.356  12.709  1.00  0.00     0.256 C
HETATM   14  N6  UNL     1      37.987   0.537  13.394  1.00  0.00    -0.352 N
ATOM     15  H6  UNL     1      37.879   0.519  14.408  1.00  0.00     0.163 HD
BRANCH  14  16
HETATM   16  C4  UNL     1      38.822   1.570  12.816  1.00  0.00     0.150 C
BRANCH  16  17
HETATM   17  C5  UNL     1      38.369   2.947  13.261  1.00  0.00     0.199 C
BRANCH  17  18
HETATM   18  O2  UNL     1      37.213   3.325  12.594  1.00  0.00    -0.305 OA
BRANCH  18  19
HETATM   19  C6  UNL     1      35.984   3.428  13.143  1.00  0.00     0.372 C
HETATM   20  N7  UNL     1      35.298   4.687  13.189  1.00  0.00    -0.032 NA
HETATM   21  O3  UNL     1      35.401   2.430  13.631  1.00  0.00    -0.242 OA
ENDBRANCH  18  19
ENDBRANCH  17  18
ENDBRANCH  16  17
ENDBRANCH  14  16
BRANCH  13  22
HETATM   22  O4  UNL     1      37.542  -0.308  11.327  1.00  0.00    -0.207 OA
BRANCH  22  23
HETATM   23  N8  UNL     1      36.507   0.018  10.480  1.00  0.00    -0.302 N
ATOM     24  H82 UNL     1      35.554  -0.162  10.797  1.00  0.00     0.184 HD
ATOM     25  H81 UNL     1      36.671   0.429   9.561  1.00  0.00     0.184 HD
ENDBRANCH  22  23
ENDBRANCH  13  22
ENDBRANCH  11  13
ENDBRANCH   4  11
BRANCH   1  26
HETATM   26  N3  UNL     1      34.625  -5.587  12.612  1.00  0.00    -0.129 N
HETATM   27  N2  UNL     1      33.842  -5.536  11.624  1.00  0.00    -0.221 N
ATOM     28  H2  UNL     1      34.027  -4.867  10.877  1.00  0.00     0.210 HD
BRANCH  27  29
HETATM   29  N1  UNL     1      32.729  -6.372  11.530  1.00  0.00    -0.329 N
ATOM     30  H12 UNL     1      32.195  -6.561  12.378  1.00  0.00     0.178 HD
ATOM     31  H11 UNL     1      32.448  -6.789  10.642  1.00  0.00     0.178 HD
ENDBRANCH  27  29
BRANCH  26  32
HETATM   32  O1  UNL     1      34.360  -6.489  13.605  1.00  0.00    -0.265 OA
ATOM     33  H1  UNL     1      34.297  -7.409  13.374  1.00  0.00     0.247 HD
ENDBRANCH  26  32
ENDBRANCH   1  26
TORSDOF 11
ENDMDL