MODEL 4
REMARK VINA RESULT: -6.208626077      2.489      5.880
REMARK  7 active torsions:
REMARK  status: ('A' for Active; 'I' for Inactive)
REMARK    1  A    between atoms: O1_2  and  C2_3
REMARK       I    between atoms: C2_3  and  N1_5
REMARK    2  A    between atoms: C3_7  and  C4_9
REMARK    3  A    between atoms: C4_9  and  N3_10
REMARK    4  A    between atoms: C4_9  and  C8_28
REMARK    5  A    between atoms: N3_10  and  N4_12
REMARK    6  A    between atoms: C7_22  and  N8_23
REMARK    7  A    between atoms: N8_23  and  N9_25
ROOT
HETATM    1  N4  UNL     1      38.672  -2.636  11.937  1.00  0.00    -0.073 N
HETATM    2  C5  UNL     1      39.789  -1.777  11.954  1.00  0.00     0.134 C
HETATM    3  N5  UNL     1      40.117  -1.054  10.964  1.00  0.00    -0.386 N
ATOM      4  H51 UNL     1      40.925  -0.432  10.977  1.00  0.00     0.157 HD
ATOM      5  H52 UNL     1      39.538  -1.062  10.125  1.00  0.00     0.157 HD
HETATM    6  C6  UNL     1      40.636  -1.766  13.184  1.00  0.00     0.218 C
HETATM    7  N6  UNL     1      40.965  -3.189  13.403  1.00  0.00    -0.315 N
ATOM      8  H6  UNL     1      41.924  -3.509  13.544  1.00  0.00     0.181 HD
HETATM    9  N7  UNL     1      39.881  -4.068  13.404  1.00  0.00    -0.133 N
ATOM     10  H7  UNL     1      39.944  -4.924  13.954  1.00  0.00     0.205 HD
HETATM   11  C7  UNL     1      38.785  -3.832  12.722  1.00  0.00     0.738 C
ENDROOT
BRANCH   1  12
HETATM   12  N3  UNL     1      37.540  -2.352  11.230  1.00  0.00    -0.292 N
ATOM     13  H3  UNL     1      37.490  -2.547  10.230  1.00  0.00     0.183 HD
BRANCH  12  14
HETATM   14  C4  UNL     1      36.433  -1.780  11.912  1.00  0.00     0.265 C
BRANCH  14  15
HETATM   15  C3  UNL     1      36.466  -0.277  11.843  1.00  0.00     0.132 C
HETATM   16  N1  UNL     1      36.359   0.411  12.911  1.00  0.00    -0.292 N
HETATM   17  C2  UNL     1      36.373   1.809  12.987  1.00  0.00     0.365 C
ATOM     18  H1  UNL     1      36.254  -0.101  13.787  1.00  0.00     0.172 HD
HETATM   19  O2  UNL     1      35.372   2.436  13.438  1.00  0.00    -0.238 OA
HETATM   20  N2  UNL     1      36.614   0.387  10.603  1.00  0.00    -0.085 NA
BRANCH  17  21
HETATM   21  O1  UNL     1      37.457   2.593  12.582  1.00  0.00    -0.309 OA
HETATM   22  C1  UNL     1      38.768   2.276  13.014  1.00  0.00     0.215 C
ENDBRANCH  17  21
ENDBRANCH  14  15
BRANCH  14  23
HETATM   23  C8  UNL     1      35.163  -2.213  11.291  1.00  0.00     0.205 C
HETATM   24  O5  UNL     1      34.272  -1.459  10.883  1.00  0.00    -0.646 OA
HETATM   25  O6  UNL     1      35.015  -3.614  11.182  1.00  0.00    -0.646 OA
ENDBRANCH  14  23
ENDBRANCH  12  14
ENDBRANCH   1  12
BRANCH  11  26
HETATM   26  N8  UNL     1      37.699  -4.731  12.709  1.00  0.00    -0.069 N
ATOM     27  H8  UNL     1      37.386  -5.107  11.814  1.00  0.00     0.212 HD
BRANCH  26  28
HETATM   28  N9  UNL     1      37.039  -5.124  13.861  1.00  0.00    -0.024 N
HETATM   29  O3  UNL     1      37.639  -5.086  14.942  1.00  0.00    -0.516 OA
HETATM   30  O4  UNL     1      35.742  -5.546  13.800  1.00  0.00    -0.516 OA
ENDBRANCH  26  28
ENDBRANCH  11  26
TORSDOF 7
ENDMDL