MODEL 4
REMARK VINA RESULT: -6.117984037      2.388      7.120
REMARK  8 active torsions:
REMARK  status: ('A' for Active; 'I' for Inactive)
REMARK    1  A    between atoms: C3_5  and  O1_6
REMARK    2  A    between atoms: O1_6  and  C4_7
REMARK    3  A    between atoms: C5_10  and  N3_11
REMARK    4  A    between atoms: N5_16  and  N6_17
REMARK    5  A    between atoms: C6_20  and  C7_21
REMARK    6  A    between atoms: C7_21  and  O2_22
REMARK    7  A    between atoms: C7_21  and  O3_24
REMARK    8  A    between atoms: C10_29  and  C11_30
ROOT
HETATM    1  C1  UNL     1      38.730  -3.656  15.710  1.00  0.00     0.089 C
HETATM    2  C2  UNL     1      37.815  -3.147  14.626  1.00  0.00     0.079 A
HETATM    3  N1  UNL     1      37.862  -1.920  14.162  1.00  0.00    -0.325 N
ATOM      4  H1  UNL     1      38.558  -1.292  14.564  1.00  0.00     0.169 HD
HETATM    5  C3  UNL     1      37.047  -1.414  13.175  1.00  0.00     0.174 A
HETATM    6  C8  UNL     1      36.122  -2.321  12.668  1.00  0.00     0.127 A
HETATM    7  C9  UNL     1      35.234  -1.877  11.612  1.00  0.00     0.106 C
HETATM    8  N7  UNL     1      34.536  -1.520  10.743  1.00  0.00    -0.191 NA
HETATM    9  C10 UNL     1      36.067  -3.609  13.150  1.00  0.00     0.124 A
HETATM   10  N9  UNL     1      36.925  -4.016  14.138  1.00  0.00    -0.341 N
ATOM     11  H9  UNL     1      36.886  -4.970  14.496  1.00  0.00     0.167 HD
ENDROOT
BRANCH   5  12
HETATM   12  O1  UNL     1      37.224  -0.147  12.823  1.00  0.00    -0.272 OA
BRANCH  12  13
HETATM   13  C4  UNL     1      38.164   0.777  12.662  1.00  0.00     0.196 A
HETATM   14  N2  UNL     1      39.450   0.461  12.301  1.00  0.00    -0.167 N
HETATM   15  C5  UNL     1      40.415   1.365  12.135  1.00  0.00     0.694 A
ATOM     16  H2  UNL     1      39.680  -0.522  12.152  1.00  0.00     0.186 HD
HETATM   17  N4  UNL     1      40.117   2.659  12.327  1.00  0.00    -0.111 N
HETATM   18  N5  UNL     1      38.903   3.024  12.673  1.00  0.00    -0.184 N
ATOM     19  H4  UNL     1      40.841   3.367  12.204  1.00  0.00     0.207 HD
HETATM   20  C6  UNL     1      37.913   2.122  12.846  1.00  0.00     0.158 A
BRANCH  15  21
HETATM   21  N3  UNL     1      41.633   1.015  11.789  1.00  0.00    -0.233 N
ATOM     22  H32 UNL     1      42.071   0.201  12.219  1.00  0.00     0.174 HD
ATOM     23  H31 UNL     1      42.162   1.540  11.094  1.00  0.00     0.174 HD
ENDBRANCH  15  21
BRANCH  18  24
HETATM   24  N6  UNL     1      38.655   4.412  12.862  1.00  0.00    -0.323 N
ATOM     25  H62 UNL     1      39.163   5.107  12.315  1.00  0.00     0.179 HD
ATOM     26  H61 UNL     1      37.958   4.680  13.557  1.00  0.00     0.179 HD
ENDBRANCH  18  24
BRANCH  20  27
HETATM   27  C7  UNL     1      36.590   2.682  13.191  1.00  0.00     0.313 C
BRANCH  27  28
HETATM   28  O2  UNL     1      35.679   1.677  13.402  1.00  0.00    -0.366 OA
ATOM     29  H2  UNL     1      35.295   1.749  14.267  1.00  0.00     0.213 HD
ENDBRANCH  27  28
BRANCH  27  30
HETATM   30  O3  UNL     1      36.145   3.369  12.033  1.00  0.00    -0.366 OA
ATOM     31  H3  UNL     1      36.925   3.549  11.521  1.00  0.00     0.213 HD
ENDBRANCH  27  30
ENDBRANCH  20  27
ENDBRANCH  12  13
ENDBRANCH   5  12
BRANCH   9  32
HETATM   32  C11 UNL     1      35.105  -4.573  12.634  1.00  0.00     0.283 C
HETATM   33  N8  UNL     1      35.118  -4.954  11.269  1.00  0.00    -0.056 NA
HETATM   34  O4  UNL     1      34.250  -5.086  13.369  1.00  0.00    -0.269 OA
ENDBRANCH   9  32
TORSDOF 8
ENDMDL