MODEL 4
REMARK VINA RESULT: -5.773760991      1.386      1.703
REMARK  9 active torsions:
REMARK  status: ('A' for Active; 'I' for Inactive)
REMARK    1  A    between atoms: C2_2  and  N1_3
REMARK    2  A    between atoms: C2_2  and  N2_7
REMARK    3  A    between atoms: C2_2  and  C3_11
REMARK    4  A    between atoms: C3_11  and  C4_12
REMARK    5  A    between atoms: C4_12  and  N3_13
REMARK    6  A    between atoms: C5_14  and  N4_15
REMARK    7  A    between atoms: N5_18  and  N6_19
REMARK    8  A    between atoms: C7_25  and  S1_26
REMARK    9  A    between atoms: S1_26  and  N8_27
ROOT
HETATM    1  N3  UNL     1      38.634  -0.774  11.834  1.00  0.00    -0.163 N
HETATM    2  C5  UNL     1      39.961  -0.617  11.564  1.00  0.00     0.702 A
HETATM    3  N5  UNL     1      40.309   0.654  11.883  1.00  0.00    -0.072 N
HETATM    4  C6  UNL     1      39.236   1.311  12.349  1.00  0.00     0.191 A
HETATM    5  N7  UNL     1      38.963   2.550  12.807  1.00  0.00    -0.324 N
ATOM      6  H7  UNL     1      39.715   3.238  12.842  1.00  0.00     0.168 HD
HETATM    7  C7  UNL     1      37.739   2.909  13.216  1.00  0.00     0.192 A
HETATM    8  C8  UNL     1      36.725   1.989  13.167  1.00  0.00     0.158 A
HETATM    9  N9  UNL     1      35.441   2.357  13.593  1.00  0.00    -0.079 NA
HETATM   10  N10 UNL     1      36.962   0.756  12.720  1.00  0.00    -0.325 N
ATOM     11  H10 UNL     1      36.205   0.074  12.686  1.00  0.00     0.169 HD
HETATM   12  C9  UNL     1      38.203   0.404  12.310  1.00  0.00     0.172 A
ENDROOT
BRANCH   1  13
HETATM   13  C4  UNL     1      37.882  -1.984  11.632  1.00  0.00     0.154 C
BRANCH  13  14
HETATM   14  C3  UNL     1      38.083  -2.907  12.817  1.00  0.00     0.089 C
BRANCH  14  15
HETATM   15  C2  UNL     1      36.820  -3.009  13.645  1.00  0.00     0.280 C
HETATM   16  C1  UNL     1      35.603  -2.791  12.802  1.00  0.00     0.078 C
BRANCH  15  17
HETATM   17  N1  UNL     1      36.764  -4.375  14.150  1.00  0.00    -0.045 N
ATOM     18  H13 UNL     1      35.849  -4.810  14.021  1.00  0.00     0.277 HD
ATOM     19  H12 UNL     1      37.304  -5.030  13.585  1.00  0.00     0.277 HD
ATOM     20  H11 UNL     1      37.060  -4.353  15.126  1.00  0.00     0.277 HD
ENDBRANCH  15  17
BRANCH  15  21
HETATM   21  N2  UNL     1      36.822  -2.119  14.765  1.00  0.00    -0.045 N
ATOM     22  H23 UNL     1      37.768  -1.856  15.038  1.00  0.00     0.277 HD
ATOM     23  H22 UNL     1      36.473  -1.193  14.514  1.00  0.00     0.277 HD
ATOM     24  H21 UNL     1      36.301  -2.522  15.544  1.00  0.00     0.277 HD
ENDBRANCH  15  21
ENDBRANCH  14  15
ENDBRANCH  13  14
ENDBRANCH   1  13
BRANCH   2  25
HETATM   25  N4  UNL     1      40.783  -1.492  11.089  1.00  0.00    -0.233 N
ATOM     26  H42 UNL     1      40.525  -2.452  10.866  1.00  0.00     0.174 HD
ATOM     27  H41 UNL     1      41.772  -1.369  10.872  1.00  0.00     0.174 HD
ENDBRANCH   2  25
BRANCH   3  28
HETATM   28  N6  UNL     1      41.582   1.217  11.755  1.00  0.00    -0.322 N
ATOM     29  H62 UNL     1      41.757   2.183  11.478  1.00  0.00     0.178 HD
ATOM     30  H61 UNL     1      42.469   0.743  11.918  1.00  0.00     0.178 HD
ENDBRANCH   3  28
BRANCH   7  31
HETATM   31  S1  UNL     1      37.436   4.503  13.793  1.00  0.00     0.275 S
HETATM   32  O1  UNL     1      38.359   5.447  13.033  1.00  0.00    -0.199 OA
HETATM   33  O2  UNL     1      37.829   4.543  15.263  1.00  0.00    -0.199 OA
BRANCH  31  34
HETATM   34  N8  UNL     1      35.858   5.046  13.633  1.00  0.00    -0.323 N
ATOM     35  H82 UNL     1      35.065   4.439  13.842  1.00  0.00     0.169 HD
ATOM     36  H81 UNL     1      35.752   6.010  13.320  1.00  0.00     0.169 HD
ENDBRANCH  31  34
ENDBRANCH   7  31
TORSDOF 9
ENDMDL