MODEL 3
REMARK VINA RESULT: -6.381296811      2.245      4.628
REMARK  5 active torsions:
REMARK  status: ('A' for Active; 'I' for Inactive)
REMARK    1  A    between atoms: N1_1  and  N2_4
REMARK       I    between atoms: N2_4  and  C1_6
REMARK    2  A    between atoms: C1_6  and  C2_8
REMARK    3  A    between atoms: N4_12  and  C4_13
REMARK    4  A    between atoms: C4_13  and  C5_14
REMARK    5  A    between atoms: C5_14  and  N5_15
ROOT
HETATM    1  C2  UNL     1      38.188  -2.538  15.485  1.00  0.00     0.161 A
HETATM    2  N3  UNL     1      37.533  -1.793  14.599  1.00  0.00    -0.181 N
ATOM      3  H3  UNL     1      37.443  -0.778  14.658  1.00  0.00     0.184 HD
HETATM    4  C3  UNL     1      36.993  -2.559  13.593  1.00  0.00     0.703 A
HETATM    5  N4  UNL     1      36.278  -2.372  12.501  1.00  0.00    -0.138 N
HETATM    6  C7  UNL     1      35.954  -3.442  11.777  1.00  0.00     0.321 A
HETATM    7  O2  UNL     1      35.271  -3.475  10.691  1.00  0.00    -0.257 OA
HETATM    8  S1  UNL     1      36.674  -4.711  12.661  1.00  0.00     0.074 SA
HETATM    9  N8  UNL     1      37.347  -3.799  13.906  1.00  0.00    -0.095 N
HETATM   10  C8  UNL     1      38.081  -3.841  15.057  1.00  0.00     0.179 A
HETATM   11  N9  UNL     1      38.610  -4.987  15.662  1.00  0.00    -0.078 NA
ENDROOT
BRANCH   1  12
HETATM   12  C1  UNL     1      38.891  -2.055  16.693  1.00  0.00     0.290 C
HETATM   13  N2  UNL     1      38.405  -2.398  17.978  1.00  0.00    -0.271 N
ATOM     14  H2  UNL     1      37.571  -2.978  18.079  1.00  0.00     0.189 HD
HETATM   15  O1  UNL     1      39.910  -1.348  16.534  1.00  0.00    -0.264 OA
BRANCH  13  16
HETATM   16  N1  UNL     1      39.080  -1.935  19.097  1.00  0.00    -0.342 N
ATOM     17  H12 UNL     1      39.979  -2.346  19.349  1.00  0.00     0.176 HD
ATOM     18  H11 UNL     1      38.663  -1.187  19.650  1.00  0.00     0.176 HD
ENDBRANCH  13  16
ENDBRANCH   1  12
BRANCH   5  19
HETATM   19  C4  UNL     1      35.824  -1.027  12.052  1.00  0.00     0.171 C
BRANCH  19  20
HETATM   20  C5  UNL     1      36.855   0.007  12.346  1.00  0.00     0.143 C
BRANCH  20  21
HETATM   21  N5  UNL     1      36.408   0.975  13.332  1.00  0.00    -0.365 N
HETATM   22  C6  UNL     1      36.544   2.237  13.092  1.00  0.00     0.197 C
HETATM   23  N6  UNL     1      36.105   3.189  14.059  1.00  0.00    -0.067 NA
HETATM   24  N7  UNL     1      37.112   2.741  11.901  1.00  0.00    -0.067 NA
ATOM     25  H5  UNL     1      35.991   0.660  14.208  1.00  0.00     0.161 HD
ENDBRANCH  20  21
ENDBRANCH  19  20
ENDBRANCH   5  19
TORSDOF 5
ENDMDL