MODEL 2
REMARK VINA RESULT: -6.412753822      2.611      6.499
REMARK  6 active torsions:
REMARK  status: ('A' for Active; 'I' for Inactive)
REMARK    1  A    between atoms: N1_2  and  C2_4
REMARK    2  A    between atoms: C3_7  and  N3_8
REMARK    3  A    between atoms: C8_16  and  N5_17
REMARK    4  A    between atoms: N5_17  and  C9_19
REMARK    5  A    between atoms: C9_19  and  N6_20
REMARK    6  A    between atoms: C9_19  and  C10_24
ROOT
HETATM    1  C2  UNL     1      35.557  -6.080   9.332  1.00  0.00     0.706 A
HETATM    2  N2  UNL     1      35.201  -7.170  10.034  1.00  0.00    -0.021 N
ATOM      3  H2  UNL     1      35.182  -8.074   9.562  1.00  0.00     0.203 HD
HETATM    4  C3  UNL     1      34.868  -7.112  11.335  1.00  0.00     0.709 A
HETATM    5  N4  UNL     1      34.909  -5.900  11.915  1.00  0.00    -0.021 N
ATOM      6  H4  UNL     1      34.665  -5.814  12.901  1.00  0.00     0.203 HD
HETATM    7  C8  UNL     1      35.264  -4.793  11.228  1.00  0.00     0.709 A
HETATM    8  N9  UNL     1      35.596  -4.870   9.917  1.00  0.00    -0.021 N
ATOM      9  H9  UNL     1      35.865  -4.038   9.392  1.00  0.00     0.203 HD
ENDROOT
BRANCH   7  10
HETATM   10  N5  UNL     1      35.298  -3.629  11.801  1.00  0.00    -0.194 N
ATOM     11  H5  UNL     1      34.549  -2.951  11.659  1.00  0.00     0.180 HD
BRANCH  10  12
HETATM   12  C9  UNL     1      36.435  -3.323  12.648  1.00  0.00     0.317 C
BRANCH  12  13
HETATM   13  N6  UNL     1      35.911  -3.014  13.957  1.00  0.00    -0.056 N
ATOM     14  H63 UNL     1      35.614  -3.841  14.476  1.00  0.00     0.276 HD
ATOM     15  H62 UNL     1      36.627  -2.701  14.613  1.00  0.00     0.276 HD
ATOM     16  H61 UNL     1      35.164  -2.334  13.824  1.00  0.00     0.276 HD
ENDBRANCH  12  13
BRANCH  12  17
HETATM   17  C10 UNL     1      37.103  -2.104  12.058  1.00  0.00     0.146 C
HETATM   18  C11 UNL     1      36.245  -0.883  12.108  1.00  0.00     0.044 C
HETATM   19  C12 UNL     1      37.304   0.229  12.109  1.00  0.00     0.132 C
HETATM   20  N7  UNL     1      38.589  -0.479  12.129  1.00  0.00    -0.148 NA
HETATM   21  N8  UNL     1      38.276  -1.689  12.806  1.00  0.00    -0.140 NA
ENDBRANCH  12  17
ENDBRANCH  10  12
ENDBRANCH   7  10
BRANCH   4  22
HETATM   22  N3  UNL     1      34.496  -8.298  12.040  1.00  0.00    -0.213 N
HETATM   23  C4  UNL     1      34.460  -9.554  11.354  1.00  0.00     0.167 C
HETATM   24  C5  UNL     1      33.302 -10.426  11.783  1.00  0.00     0.188 C
HETATM   25  O1  UNL     1      33.004 -10.291  13.132  1.00  0.00    -0.388 OA
HETATM   26  C6  UNL     1      34.019  -9.736  13.876  1.00  0.00     0.188 C
HETATM   27  C7  UNL     1      34.148  -8.269  13.447  1.00  0.00     0.167 C
ENDBRANCH   4  22
BRANCH   1  28
HETATM   28  N1  UNL     1      35.900  -6.194   7.959  1.00  0.00    -0.229 N
HETATM   29  C1  UNL     1      36.397  -7.423   7.394  1.00  0.00     0.165 C
ATOM     30  H1  UNL     1      35.791  -5.381   7.353  1.00  0.00     0.177 HD
ENDBRANCH   1  28
TORSDOF 6
ENDMDL