MODEL 4
REMARK VINA RESULT: -6.322467493      2.294      7.451
REMARK  7 active torsions:
REMARK  status: ('A' for Active; 'I' for Inactive)
REMARK    1  A    between atoms: C3_3  and  N1_4
REMARK    2  A    between atoms: N1_4  and  C4_6
REMARK    3  A    between atoms: C5_9  and  O1_10
REMARK    4  A    between atoms: C6_12  and  C7_13
REMARK    5  A    between atoms: N3_14  and  N4_16
REMARK    6  A    between atoms: N4_16  and  C8_18
REMARK    7  A    between atoms: N8_23  and  N9_24
ROOT
HETATM    1  C1  UNL     1      40.511  -0.561  11.708  1.00  0.00     0.014 C
HETATM    2  C2  UNL     1      39.742  -0.061  12.494  1.00  0.00    -0.097 C
HETATM    3  C3  UNL     1      38.794   0.534  13.453  1.00  0.00     0.231 C
ENDROOT
BRANCH   3   4
HETATM    4  N1  UNL     1      37.873  -0.451  13.979  1.00  0.00    -0.215 N
ATOM      5  H1  UNL     1      37.789  -0.557  14.990  1.00  0.00     0.178 HD
BRANCH   4   6
HETATM    6  C4  UNL     1      37.154  -1.202  13.210  1.00  0.00     0.683 A
HETATM    7  N2  UNL     1      36.111  -0.745  12.493  1.00  0.00    -0.168 N
HETATM    8  C5  UNL     1      35.603  -1.796  11.814  1.00  0.00     0.184 A
ATOM      9  H2  UNL     1      35.769   0.216  12.466  1.00  0.00     0.186 HD
HETATM   10  C6  UNL     1      36.358  -2.904  12.135  1.00  0.00     0.119 A
HETATM   11  N10 UNL     1      37.322  -2.515  13.006  1.00  0.00    -0.182 N
HETATM   12  C11 UNL     1      38.337  -3.368  13.599  1.00  0.00     0.176 C
BRANCH   8  13
HETATM   13  O1  UNL     1      34.518  -1.800  10.946  1.00  0.00    -0.344 OA
ATOM     14  H1  UNL     1      33.801  -2.423  10.917  1.00  0.00     0.219 HD
ENDBRANCH   8  13
BRANCH  10  15
HETATM   15  C7  UNL     1      36.186  -4.265  11.646  1.00  0.00     0.142 C
HETATM   16  N3  UNL     1      35.007  -4.703  11.367  1.00  0.00    -0.295 N
ATOM     17  H3  UNL     1      34.221  -4.067  11.500  1.00  0.00     0.186 HD
BRANCH  16  18
HETATM   18  N4  UNL     1      34.734  -5.970  10.900  1.00  0.00    -0.129 N
ATOM     19  H4  UNL     1      34.103  -6.588  11.411  1.00  0.00     0.205 HD
BRANCH  18  20
HETATM   20  C8  UNL     1      35.349  -6.396   9.693  1.00  0.00     0.744 C
HETATM   21  N5  UNL     1      35.264  -5.815   8.545  1.00  0.00    -0.114 N
HETATM   22  N6  UNL     1      36.021  -6.571   7.656  1.00  0.00     0.008 NA
ATOM     23  H5  UNL     1      34.742  -4.965   8.331  1.00  0.00     0.203 HD
HETATM   24  N7  UNL     1      36.190  -7.836   8.219  1.00  0.00     0.031 NA
HETATM   25  N8  UNL     1      36.163  -7.555   9.588  1.00  0.00    -0.007 N
BRANCH  25  26
HETATM   26  N9  UNL     1      36.799  -8.278  10.555  1.00  0.00    -0.302 N
HETATM   27  C9  UNL     1      36.869  -9.685  10.345  1.00  0.00     0.173 C
HETATM   28  C10 UNL     1      37.942  -7.682  11.146  1.00  0.00     0.173 C
ENDBRANCH  25  26
ENDBRANCH  18  20
ENDBRANCH  16  18
ENDBRANCH  10  15
ENDBRANCH   4   6
ENDBRANCH   3   4
TORSDOF 7
ENDMDL