MODEL 3
REMARK VINA RESULT: -7.008120840      1.190      1.580
REMARK  5 active torsions:
REMARK  status: ('A' for Active; 'I' for Inactive)
REMARK    1  A    between atoms: C2_2  and  N1_4
REMARK    2  A    between atoms: C2_2  and  C4_8
REMARK       I    between atoms: C4_8  and  N2_10
REMARK    3  A    between atoms: N2_10  and  S1_12
REMARK    4  A    between atoms: S1_12  and  C5_15
REMARK    5  A    between atoms: N5_21  and  N6_22
REMARK       I    between atoms: N6_22  and  C7_24
REMARK       I    between atoms: C7_24  and  N8_28
ROOT
HETATM    1  N6  UNL     1      36.790  -0.963  12.974  1.00  0.00    -0.122 N
ATOM      2  H6  UNL     1      36.243  -0.223  13.415  1.00  0.00     0.206 HD
HETATM    3  C7  UNL     1      37.440  -0.729  11.743  1.00  0.00     0.700 C
HETATM    4  N7  UNL     1      36.837  -0.500  10.630  1.00  0.00    -0.233 N
ATOM      5  H71 UNL     1      37.307  -0.331   9.741  1.00  0.00     0.174 HD
ATOM      6  H72 UNL     1      35.817  -0.491  10.653  1.00  0.00     0.174 HD
HETATM    7  N8  UNL     1      38.873  -0.743  11.710  1.00  0.00    -0.125 N
ATOM      8  H8  UNL     1      39.343  -1.251  10.961  1.00  0.00     0.197 HD
HETATM    9  C8  UNL     1      39.649  -0.084  12.667  1.00  0.00     0.196 C
HETATM   10  N9  UNL     1      40.304   0.446  13.466  1.00  0.00    -0.171 NA
ENDROOT
BRANCH   1  11
HETATM   11  N5  UNL     1      36.901  -2.209  13.580  1.00  0.00    -0.207 N
HETATM   12  C5  UNL     1      36.342  -3.345  13.103  1.00  0.00     0.261 A
HETATM   13  N3  UNL     1      36.688  -4.308  13.979  1.00  0.00    -0.272 N
HETATM   14  N4  UNL     1      37.424  -3.788  14.947  1.00  0.00    -0.292 N
ATOM     15  H3  UNL     1      36.423  -5.290  13.907  1.00  0.00     0.189 HD
HETATM   16  C6  UNL     1      37.578  -2.491  14.735  1.00  0.00     0.226 A
ATOM     17  H4  UNL     1      37.813  -4.307  15.735  1.00  0.00     0.187 HD
BRANCH  12  18
HETATM   18  S1  UNL     1      35.370  -3.559  11.660  1.00  0.00     0.300 S
HETATM   19  O2  UNL     1      34.506  -2.369  11.369  1.00  0.00    -0.197 OA
HETATM   20  O3  UNL     1      36.273  -3.713  10.441  1.00  0.00    -0.197 OA
BRANCH  18  21
HETATM   21  N2  UNL     1      34.465  -5.017  11.782  1.00  0.00    -0.246 N
HETATM   22  C4  UNL     1      35.130  -6.259  11.727  1.00  0.00     0.266 C
HETATM   23  O1  UNL     1      36.386  -6.350  11.588  1.00  0.00    -0.270 OA
ATOM     24  H2  UNL     1      33.451  -4.983  11.895  1.00  0.00     0.182 HD
BRANCH  22  25
HETATM   25  C2  UNL     1      34.371  -7.518  11.830  1.00  0.00     0.197 C
HETATM   26  C1  UNL     1      34.611  -8.202  13.178  1.00  0.00     0.056 C
HETATM   27  C3  UNL     1      34.852  -8.463  10.755  1.00  0.00     0.056 C
BRANCH  25  28
HETATM   28  N1  UNL     1      32.972  -7.238  11.717  1.00  0.00    -0.062 N
ATOM     29  H13 UNL     1      32.745  -6.694  10.884  1.00  0.00     0.275 HD
ATOM     30  H12 UNL     1      32.421  -8.066  11.494  1.00  0.00     0.275 HD
ATOM     31  H11 UNL     1      32.669  -6.784  12.579  1.00  0.00     0.275 HD
ENDBRANCH  25  28
ENDBRANCH  22  25
ENDBRANCH  18  21
ENDBRANCH  12  18
ENDBRANCH   1  11
TORSDOF 5
ENDMDL