MODEL 2
REMARK VINA RESULT: -6.623908167      1.697      2.264
REMARK  9 active torsions:
REMARK  status: ('A' for Active; 'I' for Inactive)
REMARK    1  A    between atoms: C2_2  and  N1_3
REMARK    2  A    between atoms: N1_3  and  C3_5
REMARK    3  A    between atoms: C6_13  and  C7_14
REMARK    4  A    between atoms: C7_14  and  N9_27
REMARK    5  A    between atoms: N4_15  and  N5_17
REMARK    6  A    between atoms: N5_17  and  C8_19
REMARK    7  A    between atoms: C8_19  and  N6_20
REMARK    8  A    between atoms: N6_20  and  N7_22
REMARK    9  A    between atoms: N9_27  and  N10_29
ROOT
HETATM    1  C3  UNL     1      36.583  -3.117  13.794  1.00  0.00     0.682 A
HETATM    2  N2  UNL     1      36.136  -2.794  12.564  1.00  0.00    -0.154 N
ATOM      3  H2  UNL     1      36.204  -1.840  12.210  1.00  0.00     0.187 HD
HETATM    4  C4  UNL     1      35.594  -3.777  11.821  1.00  0.00     0.290 A
HETATM    5  O1  UNL     1      35.170  -3.478  10.660  1.00  0.00    -0.265 OA
HETATM    6  C5  UNL     1      35.479  -5.074  12.250  1.00  0.00     0.147 A
HETATM    7  N3  UNL     1      34.940  -6.065  11.516  1.00  0.00    -0.344 N
ATOM      8  H3  UNL     1      34.591  -5.853  10.581  1.00  0.00     0.166 HD
HETATM    9  C6  UNL     1      34.846  -7.336  11.978  1.00  0.00     0.095 A
HETATM   10  C9  UNL     1      35.320  -7.624  13.254  1.00  0.00     0.123 A
HETATM   11  N11 UNL     1      35.861  -6.645  13.998  1.00  0.00    -0.348 N
ATOM     12  H11 UNL     1      36.209  -6.853  14.934  1.00  0.00     0.167 HD
HETATM   13  C10 UNL     1      35.945  -5.381  13.513  1.00  0.00     0.153 A
HETATM   14  N12 UNL     1      36.482  -4.389  14.241  1.00  0.00    -0.174 N
ATOM     15  H12 UNL     1      36.830  -4.605  15.176  1.00  0.00     0.186 HD
ENDROOT
BRANCH   9  16
HETATM   16  C7  UNL     1      34.253  -8.325  11.118  1.00  0.00     0.163 C
HETATM   17  N4  UNL     1      34.860  -8.823  10.093  1.00  0.00    -0.274 N
ATOM     18  H4  UNL     1      34.365  -9.520   9.538  1.00  0.00     0.189 HD
BRANCH  17  19
HETATM   19  N5  UNL     1      36.144  -8.469   9.700  1.00  0.00    -0.248 N
ATOM     20  H5  UNL     1      36.960  -8.777  10.227  1.00  0.00     0.198 HD
BRANCH  19  21
HETATM   21  C8  UNL     1      36.266  -7.747   8.660  1.00  0.00     0.085 C
BRANCH  21  22
HETATM   22  N6  UNL     1      36.322  -7.022   7.631  1.00  0.00    -0.235 N
ATOM     23  H6  UNL     1      36.731  -7.390   6.773  1.00  0.00     0.200 HD
BRANCH  22  24
HETATM   24  N7  UNL     1      35.835  -5.735   7.658  1.00  0.00    -0.241 N
HETATM   25  N8  UNL     1      34.911  -5.375   8.438  1.00  0.00    -0.330 N
ATOM     26  H82 UNL     1      34.522  -6.078   9.068  1.00  0.00     0.178 HD
ATOM     27  H81 UNL     1      34.550  -4.421   8.458  1.00  0.00     0.178 HD
ATOM     28  H7  UNL     1      36.235  -5.045   7.022  1.00  0.00     0.208 HD
ENDBRANCH  22  24
ENDBRANCH  21  22
ENDBRANCH  19  21
ENDBRANCH  17  19
BRANCH  16  29
HETATM   29  N9  UNL     1      32.942  -8.791  11.388  1.00  0.00    -0.289 N
ATOM     30  H9  UNL     1      32.266  -8.185  11.854  1.00  0.00     0.188 HD
BRANCH  29  31
HETATM   31  N10 UNL     1      32.587 -10.069  11.018  1.00  0.00    -0.344 N
ATOM     32 2H10 UNL     1      31.822 -10.535  11.505  1.00  0.00     0.176 HD
ATOM     33 1H10 UNL     1      33.093 -10.533  10.263  1.00  0.00     0.176 HD
ENDBRANCH  29  31
ENDBRANCH  16  29
ENDBRANCH   9  16
BRANCH   1  34
HETATM   34  N1  UNL     1      37.103  -2.224  14.539  1.00  0.00    -0.226 N
ATOM     35  H1  UNL     1      36.740  -2.093  15.483  1.00  0.00     0.177 HD
BRANCH  34  36
HETATM   36  C2  UNL     1      38.191  -1.392  14.085  1.00  0.00     0.133 C
HETATM   37  C1  UNL     1      39.424  -2.223  13.824  1.00  0.00     0.027 C
ENDBRANCH  34  36
ENDBRANCH   1  34
TORSDOF 9
ENDMDL