MODEL 4
REMARK VINA RESULT: -7.322803546      1.383      2.158
REMARK  6 active torsions:
REMARK  status: ('A' for Active; 'I' for Inactive)
REMARK    1  A    between atoms: C2_2  and  C3_4
REMARK    2  A    between atoms: C3_4  and  N1_5
REMARK    3  A    between atoms: N1_5  and  N2_6
REMARK    4  A    between atoms: N1_5  and  C5_10
REMARK    5  A    between atoms: C7_15  and  C8_16
REMARK    6  A    between atoms: C8_16  and  N7_18
REMARK       I    between atoms: N7_18  and  C9_19
ROOT
HETATM    1  N2  UNL     1      33.969  -6.583  11.243  1.00  0.00    -0.219 N
ATOM      2  H2  UNL     1      33.199  -6.422  10.592  1.00  0.00     0.200 HD
HETATM    3  C4  UNL     1      33.721  -7.058  12.527  1.00  0.00     0.198 C
HETATM    4  N3  UNL     1      33.539  -7.443  13.626  1.00  0.00    -0.170 NA
ENDROOT
BRANCH   1   5
HETATM    5  N1  UNL     1      35.281  -6.332  10.862  1.00  0.00    -0.108 N
BRANCH   5   6
HETATM    6  C3  UNL     1      35.936  -7.173   9.924  1.00  0.00     0.246 C
BRANCH   6   7
HETATM    7  C2  UNL     1      35.885  -6.749   8.510  1.00  0.00     0.143 C
HETATM    8  C1  UNL     1      36.338  -7.641   7.366  1.00  0.00     0.093 C
HETATM    9  O1  UNL     1      35.469  -5.646   8.118  1.00  0.00    -0.297 OA
ENDBRANCH   6   7
ENDBRANCH   5   6
BRANCH   5  10
HETATM   10  C5  UNL     1      35.908  -5.151  11.424  1.00  0.00     0.703 A
HETATM   11  N4  UNL     1      36.954  -5.334  12.255  1.00  0.00    -0.176 N
HETATM   12  C6  UNL     1      37.541  -4.296  12.883  1.00  0.00     0.150 A
ATOM     13  H4  UNL     1      37.309  -6.278  12.412  1.00  0.00     0.185 HD
HETATM   14  N5  UNL     1      38.774  -4.564  13.616  1.00  0.00    -0.081 NA
HETATM   15  C7  UNL     1      37.120  -3.016  12.713  1.00  0.00     0.105 A
HETATM   16  C11 UNL     1      36.034  -2.783  11.837  1.00  0.00     0.133 A
HETATM   17  N9  UNL     1      35.614  -1.686  11.569  1.00  0.00    -0.384 N
HETATM   18  N10 UNL     1      35.480  -3.913  11.232  1.00  0.00    -0.174 N
ATOM     19  H92 UNL     1      36.019  -0.860  12.011  1.00  0.00     0.157 HD
ATOM     20  H91 UNL     1      34.831  -1.518  10.937  1.00  0.00     0.157 HD
ATOM     21  H10 UNL     1      34.691  -3.775  10.600  1.00  0.00     0.186 HD
BRANCH  15  22
HETATM   22  C8  UNL     1      37.477  -1.966  13.692  1.00  0.00     0.210 C
HETATM   23  N6  UNL     1      37.438  -2.216  15.119  1.00  0.00    -0.066 NA
BRANCH  22  24
HETATM   24  N7  UNL     1      37.708  -0.785  13.420  1.00  0.00    -0.342 NA
HETATM   25  C9  UNL     1      37.990   0.404  13.095  1.00  0.00     0.399 C
HETATM   26  O2  UNL     1      38.958   1.063  12.557  1.00  0.00    -0.239 OA
HETATM   27  C10 UNL     1      36.898   1.486  13.372  1.00  0.00     0.177 C
HETATM   28  N8  UNL     1      36.092   2.310  13.601  1.00  0.00    -0.185 NA
ENDBRANCH  22  24
ENDBRANCH  15  22
ENDBRANCH   5  10
ENDBRANCH   1   5
TORSDOF 6
ENDMDL