MODEL 5
REMARK VINA RESULT: -6.700352164      2.178      2.760
REMARK  5 active torsions:
REMARK  status: ('A' for Active; 'I' for Inactive)
REMARK    1  A    between atoms: C3_4  and  C4_5
REMARK    2  A    between atoms: C4_5  and  N2_6
REMARK       I    between atoms: N2_6  and  C5_8
REMARK       I    between atoms: C5_8  and  N3_10
REMARK    3  A    between atoms: C6_13  and  C7_14
REMARK    4  A    between atoms: C8_17  and  C9_18
REMARK       I    between atoms: C9_18  and  N6_20
REMARK    5  A    between atoms: N6_20  and  N7_22
ROOT
HETATM    1  N2  UNL     1      35.922  -4.807  11.841  1.00  0.00    -0.337 N
ATOM      2  H2  UNL     1      36.712  -5.199  12.353  1.00  0.00     0.164 HD
HETATM    3  C5  UNL     1      35.758  -3.419  11.785  1.00  0.00     0.343 C
HETATM    4  O1  UNL     1      34.728  -3.026  11.114  1.00  0.00    -0.245 OA
HETATM    5  N3  UNL     1      36.599  -2.450  12.383  1.00  0.00    -0.190 N
HETATM    6  N4  UNL     1      36.342  -1.154  12.259  1.00  0.00    -0.283 N
ATOM      7  H4  UNL     1      35.553  -0.760  11.747  1.00  0.00     0.188 HD
HETATM    8  C6  UNL     1      37.292  -0.425  12.918  1.00  0.00     0.133 A
HETATM    9  C8  UNL     1      38.149  -1.339  13.459  1.00  0.00     0.110 A
HETATM   10  C10 UNL     1      37.693  -2.640  13.107  1.00  0.00     0.161 A
HETATM   11  N8  UNL     1      38.329  -3.836  13.489  1.00  0.00    -0.079 NA
ENDROOT
BRANCH   1  12
HETATM   12  C4  UNL     1      34.983  -5.703  11.179  1.00  0.00     0.166 C
BRANCH  12  13
HETATM   13  C3  UNL     1      35.565  -6.323   9.973  1.00  0.00    -0.006 A
HETATM   14  C2  UNL     1      36.243  -7.504   9.887  1.00  0.00     0.119 A
HETATM   15  N1  UNL     1      36.612  -7.721   8.588  1.00  0.00    -0.308 N
HETATM   16  C1  UNL     1      37.347  -8.856   8.069  1.00  0.00     0.177 C
HETATM   17  N9  UNL     1      36.160  -6.681   7.917  1.00  0.00    -0.310 N
HETATM   18  C11 UNL     1      35.525  -5.812   8.692  1.00  0.00     0.117 A
ATOM     19  H9  UNL     1      36.284  -6.558   6.913  1.00  0.00     0.186 HD
ENDBRANCH  12  13
ENDBRANCH   1  12
BRANCH   8  20
HETATM   20  C7  UNL     1      37.292   1.035  12.962  1.00  0.00     0.283 C
HETATM   21  N5  UNL     1      36.244   1.769  13.568  1.00  0.00    -0.056 NA
HETATM   22  O2  UNL     1      38.254   1.644  12.443  1.00  0.00    -0.269 OA
ENDBRANCH   8  20
BRANCH   9  23
HETATM   23  C9  UNL     1      39.333  -1.126  14.259  1.00  0.00     0.275 C
HETATM   24  O3  UNL     1      40.350  -0.572  13.709  1.00  0.00    -0.266 OA
HETATM   25  N6  UNL     1      39.432  -1.495  15.609  1.00  0.00    -0.272 N
ATOM     26  H6  UNL     1      38.655  -1.943  16.095  1.00  0.00     0.189 HD
BRANCH  25  27
HETATM   27  N7  UNL     1      40.665  -1.219  16.279  1.00  0.00    -0.342 N
ATOM     28  H72 UNL     1      41.253  -0.442  15.977  1.00  0.00     0.176 HD
ATOM     29  H71 UNL     1      40.923  -1.825  17.058  1.00  0.00     0.176 HD
ENDBRANCH  25  27
ENDBRANCH   9  23
TORSDOF 5
ENDMDL