MODEL 2
REMARK VINA RESULT: -6.620736019      1.987      3.872
REMARK  7 active torsions:
REMARK  status: ('A' for Active; 'I' for Inactive)
REMARK       I    between atoms: C2_2  and  N1_4
REMARK    1  A    between atoms: N1_4  and  N2_6
REMARK    2  A    between atoms: C4_9  and  N4_10
REMARK    3  A    between atoms: N4_10  and  O2_12
REMARK    4  A    between atoms: C5_14  and  S1_15
REMARK    5  A    between atoms: S1_15  and  N5_16
REMARK    6  A    between atoms: S1_15  and  N6_19
REMARK    7  A    between atoms: C6_23  and  C7_24
ROOT
HETATM    1  N2  UNL     1      36.878  -1.881  12.875  1.00  0.00    -0.200 N
HETATM    2  C3  UNL     1      36.080  -2.560  11.974  1.00  0.00     0.171 A
HETATM    3  N3  UNL     1      35.190  -1.792  11.170  1.00  0.00    -0.078 NA
HETATM    4  C4  UNL     1      36.122  -3.932  11.836  1.00  0.00     0.120 A
HETATM    5  C5  UNL     1      36.974  -4.637  12.608  1.00  0.00     0.112 A
HETATM    6  C6  UNL     1      37.772  -4.029  13.502  1.00  0.00     0.134 A
HETATM    7  C8  UNL     1      37.696  -2.628  13.610  1.00  0.00     0.286 A
HETATM    8  O6  UNL     1      38.453  -2.108  14.448  1.00  0.00    -0.265 OA
ENDROOT
BRANCH   5   9
HETATM    9  S1  UNL     1      37.149  -6.650  12.276  1.00  0.00     0.134 S
HETATM   10  O3  UNL     1      36.607  -6.873  11.516  1.00  0.00    -0.224 OA
BRANCH   9  11
HETATM   11  N5  UNL     1      36.542  -7.590  13.940  1.00  0.00    -0.341 N
ATOM     12  H52 UNL     1      37.079  -7.672  14.804  1.00  0.00     0.167 HD
ATOM     13  H51 UNL     1      35.610  -7.962  13.759  1.00  0.00     0.167 HD
ENDBRANCH   9  11
BRANCH   9  14
HETATM   14  N6  UNL     1      39.058  -7.101  12.029  1.00  0.00    -0.341 N
ATOM     15  H62 UNL     1      39.702  -6.587  11.428  1.00  0.00     0.167 HD
ATOM     16  H61 UNL     1      39.283  -7.921  12.593  1.00  0.00     0.167 HD
ENDBRANCH   9  14
ENDBRANCH   5   9
BRANCH   4  17
HETATM   17  N4  UNL     1      35.253  -4.519  10.878  1.00  0.00    -0.264 N
ATOM     18  H4  UNL     1      34.342  -4.877  11.166  1.00  0.00     0.194 HD
BRANCH  17  19
HETATM   19  O2  UNL     1      35.610  -4.598   9.671  1.00  0.00    -0.289 OA
ATOM     20  H2  UNL     1      35.290  -5.309   9.127  1.00  0.00     0.244 HD
ENDBRANCH  17  19
ENDBRANCH   4  17
BRANCH   6  21
HETATM   21  C7  UNL     1      38.708  -4.722  14.379  1.00  0.00     0.216 C
HETATM   22  O4  UNL     1      38.272  -5.178  15.468  1.00  0.00    -0.644 OA
HETATM   23  O5  UNL     1      40.038  -4.874  14.020  1.00  0.00    -0.644 OA
ENDBRANCH   6  21
BRANCH   1  24
HETATM   24  N1  UNL     1      36.749  -0.493  12.923  1.00  0.00    -0.259 N
HETATM   25  C2  UNL     1      37.609   0.546  12.640  1.00  0.00     0.232 C
HETATM   26  C1  UNL     1      37.081   1.977  12.820  1.00  0.00     0.119 C
HETATM   27  O1  UNL     1      38.774   0.484  12.252  1.00  0.00    -0.272 OA
ATOM     28  H1  UNL     1      35.827  -0.182  13.230  1.00  0.00     0.190 HD
ENDBRANCH   1  24
TORSDOF 7
ENDMDL