MODEL 2
REMARK VINA RESULT: -5.990079300      4.491      6.468
REMARK  9 active torsions:
REMARK  status: ('A' for Active; 'I' for Inactive)
REMARK    1  A    between atoms: O1_2  and  C2_3
REMARK    2  A    between atoms: C2_3  and  O2_4
REMARK    3  A    between atoms: C2_3  and  C3_6
REMARK    4  A    between atoms: C5_8  and  O3_9
REMARK    5  A    between atoms: C7_12  and  N1_13
REMARK       I    between atoms: N1_13  and  C8_15
REMARK    6  A    between atoms: C8_15  and  C9_17
REMARK       I    between atoms: C9_17  and  N2_19
REMARK    7  A    between atoms: N2_19  and  N3_21
REMARK    8  A    between atoms: C10_24  and  C11_25
REMARK    9  A    between atoms: C11_25  and  O7_27
ROOT
HETATM    1  C3  UNL     1      37.110  -4.071  13.185  1.00  0.00     0.043 A
HETATM    2  C4  UNL     1      36.510  -4.456  11.939  1.00  0.00     0.054 A
HETATM    3  C5  UNL     1      35.990  -3.513  11.113  1.00  0.00     0.068 A
HETATM    4  C6  UNL     1      36.020  -2.179  11.442  1.00  0.00     0.067 A
HETATM    5  C7  UNL     1      36.591  -1.795  12.632  1.00  0.00     0.055 A
HETATM    6  C10 UNL     1      37.144  -2.746  13.508  1.00  0.00     0.081 A
ENDROOT
BRANCH   5   7
HETATM    7  N1  UNL     1      36.450  -0.451  13.040  1.00  0.00    -0.318 N
HETATM    8  C8  UNL     1      37.354   0.589  12.727  1.00  0.00     0.315 C
HETATM    9  O4  UNL     1      38.407   0.427  12.047  1.00  0.00    -0.262 OA
ATOM     10  H1  UNL     1      35.634  -0.212  13.603  1.00  0.00     0.169 HD
BRANCH   8  11
HETATM   11  C9  UNL     1      37.049   1.952  13.225  1.00  0.00     0.327 C
HETATM   12  O5  UNL     1      35.920   2.153  13.710  1.00  0.00    -0.261 OA
HETATM   13  N2  UNL     1      37.981   3.004  13.166  1.00  0.00    -0.268 N
ATOM     14  H2  UNL     1      38.899   2.815  12.765  1.00  0.00     0.190 HD
BRANCH  13  15
HETATM   15  N3  UNL     1      37.715   4.280  13.624  1.00  0.00    -0.342 N
ATOM     16  H32 UNL     1      37.907   5.054  12.988  1.00  0.00     0.176 HD
ATOM     17  H31 UNL     1      37.341   4.476  14.553  1.00  0.00     0.176 HD
ENDBRANCH  13  15
ENDBRANCH   8  11
ENDBRANCH   5   7
BRANCH   6  18
HETATM   18  C11 UNL     1      37.893  -2.245  14.624  1.00  0.00     0.296 C
HETATM   19  O6  UNL     1      37.511  -2.156  15.804  1.00  0.00    -0.259 OA
BRANCH  18  20
HETATM   20  O7  UNL     1      39.221  -1.783  14.491  1.00  0.00    -0.322 OA
HETATM   21  C12 UNL     1      39.765  -0.744  15.264  1.00  0.00     0.213 C
ENDBRANCH  18  20
ENDBRANCH   6  18
BRANCH   3  22
HETATM   22  O3  UNL     1      35.413  -3.926   9.899  1.00  0.00    -0.361 OA
ATOM     23  H3  UNL     1      34.467  -3.894   9.811  1.00  0.00     0.217 HD
ENDBRANCH   3  22
BRANCH   1  24
HETATM   24  C2  UNL     1      37.564  -5.139  14.021  1.00  0.00     0.189 C
BRANCH  24  25
HETATM   25  O1  UNL     1      38.781  -5.693  14.258  1.00  0.00    -0.335 OA
HETATM   26  C1  UNL     1      39.993  -5.191  13.657  1.00  0.00     0.212 C
ENDBRANCH  24  25
BRANCH  24  27
HETATM   27  O2  UNL     1      36.618  -5.716  14.720  1.00  0.00    -0.340 OA
ATOM     28  H2  UNL     1      35.762  -5.602  14.322  1.00  0.00     0.220 HD
ENDBRANCH  24  27
ENDBRANCH   1  24
TORSDOF 9
ENDMDL