MODEL 1
REMARK VINA RESULT: -6.555336634      0.000      0.000
REMARK  7 active torsions:
REMARK  status: ('A' for Active; 'I' for Inactive)
REMARK    1  A    between atoms: C3_8  and  O1_9
REMARK    2  A    between atoms: O1_9  and  C4_10
REMARK    3  A    between atoms: C5_11  and  O2_12
REMARK    4  A    between atoms: C6_14  and  O3_15
REMARK    5  A    between atoms: C7_17  and  N4_18
REMARK    6  A    between atoms: C8_22  and  O4_23
REMARK    7  A    between atoms: C10_25  and  O5_26
ROOT
HETATM    1  C4  UNL     1      35.095  -6.019  11.739  1.00  0.00     0.187 C
HETATM    2  C5  UNL     1      33.911  -6.919  11.983  1.00  0.00     0.180 C
HETATM    3  C6  UNL     1      34.448  -8.311  12.112  1.00  0.00     0.182 C
HETATM    4  C7  UNL     1      35.224  -8.787  10.924  1.00  0.00     0.245 C
HETATM    5  C8  UNL     1      36.167  -7.824  10.335  1.00  0.00     0.185 C
HETATM    6  C10 UNL     1      35.874  -6.378  10.511  1.00  0.00     0.183 C
ENDROOT
BRANCH   1   7
HETATM    7  O1  UNL     1      34.606  -4.716  11.663  1.00  0.00    -0.348 OA
BRANCH   7   8
HETATM    8  C3  UNL     1      35.606  -3.783  11.474  1.00  0.00     0.305 C
HETATM    9  N3  UNL     1      34.988  -2.552  11.021  1.00  0.00    -0.095 NA
HETATM   10  N2  UNL     1      35.834  -1.488  11.271  1.00  0.00    -0.281 N
HETATM   11  C2  UNL     1      36.355  -1.476  12.586  1.00  0.00     0.155 C
ATOM     12  H2  UNL     1      36.061  -0.779  10.574  1.00  0.00     0.184 HD
HETATM   13  N1  UNL     1      36.801  -0.486  13.249  1.00  0.00    -0.374 N
HETATM   14  S1  UNL     1      36.244  -3.186  13.104  1.00  0.00    -0.043 SA
HETATM   15  C1  UNL     1      36.860   0.866  12.764  1.00  0.00     0.148 C
ATOM     16  H1  UNL     1      37.141  -0.664  14.194  1.00  0.00     0.161 HD
ENDBRANCH   7   8
ENDBRANCH   1   7
BRANCH   2  17
HETATM   17  O2  UNL     1      33.400  -6.561  13.249  1.00  0.00    -0.390 OA
ATOM     18  H2  UNL     1      32.697  -7.173  13.433  1.00  0.00     0.210 HD
ENDBRANCH   2  17
BRANCH   6  19
HETATM   19  O5  UNL     1      35.231  -5.807   9.412  1.00  0.00    -0.385 OA
HETATM   20  C11 UNL     1      35.731  -6.186   8.203  1.00  0.00     0.202 C
ENDBRANCH   6  19
BRANCH   3  21
HETATM   21  O3  UNL     1      33.356  -9.156  12.351  1.00  0.00    -0.391 OA
ATOM     22  H3  UNL     1      32.746  -9.034  11.633  1.00  0.00     0.210 HD
ENDBRANCH   3  21
BRANCH   5  23
HETATM   23  O4  UNL     1      37.448  -8.108  10.812  1.00  0.00    -0.386 OA
HETATM   24  C9  UNL     1      38.124  -9.030  10.042  1.00  0.00     0.202 C
ENDBRANCH   5  23
BRANCH   4  25
HETATM   25  N4  UNL     1      34.258  -9.242   9.933  1.00  0.00    -0.070 N
ATOM     26  H43 UNL     1      33.529  -9.837  10.329  1.00  0.00     0.274 HD
ATOM     27  H42 UNL     1      33.650  -8.496   9.596  1.00  0.00     0.274 HD
ATOM     28  H41 UNL     1      34.783  -9.698   9.186  1.00  0.00     0.274 HD
ENDBRANCH   4  25
TORSDOF 7
ENDMDL