MODEL 2
REMARK VINA RESULT: -5.832843851      5.550      7.769
REMARK  8 active torsions:
REMARK  status: ('A' for Active; 'I' for Inactive)
REMARK    1  A    between atoms: C4_7  and  C5_8
REMARK    2  A    between atoms: C5_8  and  N3_9
REMARK    3  A    between atoms: C5_8  and  C6_13
REMARK    4  A    between atoms: C5_8  and  C7_20
REMARK       I    between atoms: C6_13  and  N4_15
REMARK    5  A    between atoms: N4_15  and  N5_17
REMARK    6  A    between atoms: C7_20  and  C8_22
REMARK    7  A    between atoms: C8_22  and  O3_23
REMARK    8  A    between atoms: C8_22  and  O4_25
ROOT
HETATM    1  C5  UNL     1      35.017  -6.254  12.716  1.00  0.00     0.312 C
ENDROOT
BRANCH   1   2
HETATM    2  C4  UNL     1      35.730  -7.215  11.880  1.00  0.00     0.096 A
HETATM    3  C3  UNL     1      37.084  -7.371  11.931  1.00  0.00     0.104 A
HETATM    4  N2  UNL     1      38.069  -6.809  12.635  1.00  0.00    -0.347 N
HETATM    5  C10 UNL     1      37.726  -8.303  11.107  1.00  0.00     0.139 A
HETATM    6  C2  UNL     1      39.243  -7.341  12.289  1.00  0.00     0.184 A
ATOM      7  H2  UNL     1      37.943  -6.079  13.337  1.00  0.00     0.167 HD
HETATM    8  N1  UNL     1      39.064  -8.275  11.339  1.00  0.00    -0.332 N
HETATM    9  C1  UNL     1      40.071  -9.093  10.684  1.00  0.00     0.158 C
HETATM   10  N7  UNL     1      36.949  -9.020  10.282  1.00  0.00    -0.317 N
HETATM   11  C9  UNL     1      35.615  -8.892  10.207  1.00  0.00     0.180 A
ATOM     12  H7  UNL     1      37.400  -9.705   9.675  1.00  0.00     0.170 HD
HETATM   13  N6  UNL     1      35.049  -7.987  11.015  1.00  0.00    -0.331 N
HETATM   14 CL1  UNL     1      34.632  -9.850   9.114  1.00  0.00    -0.045 Cl
ATOM     15  H6  UNL     1      34.036  -7.876  10.972  1.00  0.00     0.168 HD
ENDBRANCH   1   2
BRANCH   1  16
HETATM   16  N3  UNL     1      35.364  -6.361  14.137  1.00  0.00    -0.048 N
ATOM     17  H33 UNL     1      36.369  -6.484  14.257  1.00  0.00     0.276 HD
ATOM     18  H32 UNL     1      35.249  -5.463  14.607  1.00  0.00     0.276 HD
ATOM     19  H31 UNL     1      34.846  -7.094  14.621  1.00  0.00     0.276 HD
ENDBRANCH   1  16
BRANCH   1  20
HETATM   20  C6  UNL     1      33.562  -6.584  12.641  1.00  0.00     0.286 C
HETATM   21  O1  UNL     1      33.137  -7.513  13.350  1.00  0.00    -0.268 OA
HETATM   22  N4  UNL     1      32.686  -5.877  11.803  1.00  0.00    -0.274 N
ATOM     23  H4  UNL     1      33.069  -5.120  11.237  1.00  0.00     0.189 HD
BRANCH  22  24
HETATM   24  N5  UNL     1      31.324  -6.148  11.700  1.00  0.00    -0.343 N
ATOM     25  H52 UNL     1      31.051  -7.127  11.623  1.00  0.00     0.176 HD
ATOM     26  H51 UNL     1      30.601  -5.429  11.699  1.00  0.00     0.176 HD
ENDBRANCH  22  24
ENDBRANCH   1  20
BRANCH   1  27
HETATM   27  C7  UNL     1      35.263  -4.874  12.216  1.00  0.00     0.232 C
HETATM   28  O2  UNL     1      35.025  -4.612  11.052  1.00  0.00    -0.289 OA
BRANCH  27  29
HETATM   29  C8  UNL     1      35.788  -3.806  13.092  1.00  0.00     0.329 C
BRANCH  29  30
HETATM   30  O3  UNL     1      37.054  -4.175  13.591  1.00  0.00    -0.365 OA
ATOM     31  H3  UNL     1      37.196  -5.105  13.459  1.00  0.00     0.213 HD
ENDBRANCH  29  30
BRANCH  29  32
HETATM   32  O4  UNL     1      35.001  -3.480  14.164  1.00  0.00    -0.365 OA
ATOM     33  H4  UNL     1      34.539  -2.653  14.096  1.00  0.00     0.213 HD
ENDBRANCH  29  32
ENDBRANCH  27  29
ENDBRANCH   1  27
TORSDOF 8
ENDMDL