MODEL 1
REMARK VINA RESULT: -6.733936017      0.000      0.000
REMARK  8 active torsions:
REMARK  status: ('A' for Active; 'I' for Inactive)
REMARK    1  A    between atoms: O1_2  and  C2_3
REMARK    2  A    between atoms: C3_6  and  N2_7
REMARK    3  A    between atoms: N2_7  and  N3_9
REMARK    4  A    between atoms: C4_10  and  N4_11
REMARK    5  A    between atoms: C6_15  and  N5_16
REMARK    6  A    between atoms: N5_16  and  O4_17
REMARK    7  A    between atoms: N5_16  and  O5_19
REMARK    8  A    between atoms: C7_21  and  C8_22
ROOT
HETATM    1  N3  UNL     1      37.438  -2.170  12.566  1.00  0.00    -0.213 N
HETATM    2  C4  UNL     1      38.199  -2.668  13.576  1.00  0.00     0.198 A
HETATM    3  C5  UNL     1      37.556  -3.820  13.974  1.00  0.00     0.087 A
HETATM    4  C6  UNL     1      36.421  -4.005  13.208  1.00  0.00     0.103 A
HETATM    5  C7  UNL     1      36.379  -2.945  12.330  1.00  0.00     0.150 A
ENDROOT
BRANCH   1   6
HETATM    6  N2  UNL     1      37.731  -0.998  11.864  1.00  0.00    -0.121 N
ATOM      7  H2  UNL     1      38.095  -1.060  10.913  1.00  0.00     0.206 HD
BRANCH   6   8
HETATM    8  C3  UNL     1      37.549   0.158  12.400  1.00  0.00     0.715 A
HETATM    9  N1  UNL     1      36.378   0.673  12.831  1.00  0.00    -0.151 N
HETATM   10  C2  UNL     1      36.670   1.896  13.309  1.00  0.00     0.253 A
ATOM     11  H1  UNL     1      35.461   0.227  12.800  1.00  0.00     0.188 HD
HETATM   12  N8  UNL     1      37.987   2.130  13.176  1.00  0.00    -0.250 N
HETATM   13  N7  UNL     1      38.514   1.061  12.619  1.00  0.00    -0.128 N
ATOM     14  H8  UNL     1      38.484   2.976  13.455  1.00  0.00     0.191 HD
ATOM     15  H7  UNL     1      39.501   0.938  12.390  1.00  0.00     0.205 HD
BRANCH  10  16
HETATM   16  O1  UNL     1      35.752   2.791  13.861  1.00  0.00    -0.326 OA
HETATM   17  C1  UNL     1      36.016   4.181  13.852  1.00  0.00     0.213 C
ENDBRANCH  10  16
ENDBRANCH   6   8
ENDBRANCH   1   6
BRANCH   2  18
HETATM   18  N4  UNL     1      39.396  -2.114  14.105  1.00  0.00    -0.096 N
HETATM   19  O2  UNL     1      39.610  -2.110  15.329  1.00  0.00    -0.530 OA
HETATM   20  O3  UNL     1      40.356  -1.569  13.291  1.00  0.00    -0.530 OA
ENDBRANCH   2  18
BRANCH   5  21
HETATM   21  C8  UNL     1      35.359  -2.711  11.327  1.00  0.00     0.285 C
HETATM   22  N6  UNL     1      34.593  -1.517  11.284  1.00  0.00    -0.056 NA
HETATM   23  O6  UNL     1      35.156  -3.601  10.471  1.00  0.00    -0.269 OA
ENDBRANCH   5  21
BRANCH   4  24
HETATM   24  N5  UNL     1      35.473  -5.080  13.301  1.00  0.00    -0.034 NA
BRANCH  24  25
HETATM   25  O4  UNL     1      35.685  -5.748  14.483  1.00  0.00    -0.284 OA
ATOM     26  H4  UNL     1      34.969  -6.356  14.620  1.00  0.00     0.240 HD
ENDBRANCH  24  25
BRANCH  24  27
HETATM   27  O5  UNL     1      35.590  -5.967  12.314  1.00  0.00    -0.284 OA
ATOM     28  H5  UNL     1      34.769  -6.392  12.096  1.00  0.00     0.240 HD
ENDBRANCH  24  27
ENDBRANCH   4  24
TORSDOF 8
ENDMDL