MODEL 1
REMARK VINA RESULT: -6.841202524      0.000      0.000
REMARK  5 active torsions:
REMARK  status: ('A' for Active; 'I' for Inactive)
REMARK    1  A    between atoms: N1_1  and  C1_4
REMARK    2  A    between atoms: C4_11  and  C5_12
REMARK    3  A    between atoms: C5_12  and  N4_13
REMARK       I    between atoms: N4_13  and  C6_15
REMARK    4  A    between atoms: C6_15  and  C7_17
REMARK    5  A    between atoms: C9_26  and  C10_27
ROOT
HETATM    1  C1  UNL     1      37.699  -2.972  14.638  1.00  0.00     0.130 A
HETATM    2  N2  UNL     1      38.592  -2.708  15.651  1.00  0.00    -0.337 N
ATOM      3  H2  UNL     1      38.774  -3.421  16.358  1.00  0.00     0.168 HD
HETATM    4  C2  UNL     1      39.223  -1.537  15.721  1.00  0.00     0.182 A
HETATM    5  N3  UNL     1      39.026  -0.568  14.827  1.00  0.00    -0.349 N
ATOM      6  H3  UNL     1      39.526   0.317  14.912  1.00  0.00     0.167 HD
HETATM    7  C3  UNL     1      38.173  -0.761  13.822  1.00  0.00     0.090 A
HETATM    8  C4  UNL     1      37.964   0.234  12.890  1.00  0.00     0.073 A
HETATM    9  N5  UNL     1      37.108  -0.013  11.915  1.00  0.00    -0.190 N
ATOM     10  H5  UNL     1      36.943   0.714  11.219  1.00  0.00     0.184 HD
HETATM   11  C8  UNL     1      36.448  -1.168  11.795  1.00  0.00     0.706 A
HETATM   12  N6  UNL     1      35.554  -1.607  10.896  1.00  0.00    -0.130 N
ATOM     13  H6  UNL     1      35.209  -1.081  10.093  1.00  0.00     0.205 HD
HETATM   14  N7  UNL     1      35.206  -2.798  11.216  1.00  0.00    -0.266 N
ATOM     15  H7  UNL     1      34.537  -3.368  10.699  1.00  0.00     0.189 HD
HETATM   16  C9  UNL     1      35.889  -3.211  12.394  1.00  0.00     0.210 A
HETATM   17  N9  UNL     1      36.631  -2.174  12.698  1.00  0.00    -0.118 N
HETATM   18  C11 UNL     1      37.497  -1.993  13.732  1.00  0.00     0.131 A
ENDROOT
BRANCH   8  19
HETATM   19  C5  UNL     1      38.683   1.509  13.033  1.00  0.00     0.182 C
BRANCH  19  20
HETATM   20  N4  UNL     1      37.955   2.497  13.767  1.00  0.00    -0.353 N
HETATM   21  C6  UNL     1      36.936   3.322  13.247  1.00  0.00     0.246 C
HETATM   22  O1  UNL     1      36.611   3.214  12.042  1.00  0.00    -0.271 OA
ATOM     23  H4  UNL     1      38.193   2.616  14.751  1.00  0.00     0.162 HD
BRANCH  21  24
HETATM   24  C7  UNL     1      36.239   4.310  14.096  1.00  0.00     0.324 C
HETATM   25  F1  UNL     1      34.996   4.633  13.600  1.00  0.00    -0.246 F
ENDBRANCH  21  24
ENDBRANCH  19  20
ENDBRANCH   8  19
BRANCH   1  26
HETATM   26  N1  UNL     1      37.225  -4.102  14.746  1.00  0.00    -0.384 N
ATOM     27  H12 UNL     1      37.536  -4.925  15.262  1.00  0.00     0.157 HD
ATOM     28  H11 UNL     1      36.364  -4.194  14.207  1.00  0.00     0.157 HD
ENDBRANCH   1  26
BRANCH  16  29
HETATM   29  C10 UNL     1      35.515  -4.527  12.764  1.00  0.00     0.301 C
HETATM   30  N8  UNL     1      36.090  -5.771  12.370  1.00  0.00    -0.054 NA
HETATM   31  O2  UNL     1      34.508  -4.662  13.556  1.00  0.00    -0.268 OA
ENDBRANCH  16  29
TORSDOF 5
ENDMDL