MODEL 2
REMARK VINA RESULT: -6.613908955      1.279      1.279
REMARK  5 active torsions:
REMARK  status: ('A' for Active; 'I' for Inactive)
REMARK    1  A    between atoms: C2_2  and  O1_3
REMARK    2  A    between atoms: O1_3  and  C3_4
REMARK    3  A    between atoms: C3_4  and  C4_5
REMARK       I    between atoms: C4_5  and  N1_7
REMARK    4  A    between atoms: N1_7  and  C5_9
REMARK    5  A    between atoms: C8_19  and  N5_20
REMARK       I    between atoms: N5_20  and  C9_22
ROOT
HETATM    1  C5  UNL     1      36.542  -4.916  12.970  1.00  0.00     0.408 C
HETATM    2  N2  UNL     1      37.488  -4.860  14.063  1.00  0.00    -0.289 N
ATOM      3  H2  UNL     1      37.393  -5.472  14.874  1.00  0.00     0.184 HD
HETATM    4  N3  UNL     1      38.527  -3.946  13.971  1.00  0.00    -0.299 N
ATOM      5  H3  UNL     1      39.493  -4.192  14.187  1.00  0.00     0.186 HD
HETATM    6  C6  UNL     1      38.179  -2.746  13.587  1.00  0.00     0.115 A
HETATM    7  C7  UNL     1      39.107  -1.642  13.422  1.00  0.00     0.147 A
HETATM    8 CL1  UNL     1      40.799  -1.841  13.802  1.00  0.00    -0.062 Cl
HETATM    9  N4  UNL     1      38.696  -0.478  12.985  1.00  0.00    -0.179 N
ATOM     10  H4  UNL     1      39.352   0.294  12.864  1.00  0.00     0.185 HD
HETATM   11  C8  UNL     1      37.323  -0.313  12.685  1.00  0.00     0.685 A
HETATM   12  N7  UNL     1      36.438  -1.258  12.828  1.00  0.00    -0.190 N
ATOM     13  H7  UNL     1      35.471  -1.050  12.580  1.00  0.00     0.180 HD
HETATM   14  C10 UNL     1      36.740  -2.561  13.309  1.00  0.00     0.358 A
HETATM   15  N8  UNL     1      36.307  -3.584  12.412  1.00  0.00    -0.008 N
ATOM     16  H81 UNL     1      35.332  -3.456  12.142  1.00  0.00     0.284 HD
ATOM     17  H82 UNL     1      36.738  -3.481  11.492  1.00  0.00     0.284 HD
ENDROOT
BRANCH   1  18
HETATM   18  N1  UNL     1      35.306  -5.575  13.329  1.00  0.00    -0.314 N
HETATM   19  C4  UNL     1      34.347  -5.914  12.360  1.00  0.00     0.244 C
HETATM   20  O2  UNL     1      34.642  -5.587  11.146  1.00  0.00    -0.271 OA
ATOM     21  H1  UNL     1      35.127  -5.800  14.307  1.00  0.00     0.166 HD
BRANCH  19  22
HETATM   22  C3  UNL     1      33.063  -6.591  12.615  1.00  0.00     0.270 C
BRANCH  22  23
HETATM   23  O1  UNL     1      33.087  -7.717  13.367  1.00  0.00    -0.382 OA
BRANCH  23  24
HETATM   24  C2  UNL     1      33.802  -8.773  12.864  1.00  0.00     0.163 C
HETATM   25  C1  UNL     1      33.217  -9.262  11.545  1.00  0.00     0.033 C
ENDBRANCH  23  24
ENDBRANCH  22  23
ENDBRANCH  19  22
ENDBRANCH   1  18
BRANCH  11  26
HETATM   26  N5  UNL     1      36.868   0.934  12.201  1.00  0.00    -0.144 N
HETATM   27  C9  UNL     1      37.082   2.093  12.998  1.00  0.00     0.346 C
HETATM   28  N6  UNL     1      36.623   3.372  12.517  1.00  0.00    -0.039 NA
HETATM   29  O3  UNL     1      37.648   2.075  14.100  1.00  0.00    -0.250 OA
ATOM     30  H5  UNL     1      36.397   1.002  11.299  1.00  0.00     0.188 HD
ENDBRANCH  11  26
TORSDOF 5
ENDMDL