MODEL 1
REMARK VINA RESULT: -7.790846518      0.000      0.000
REMARK  4 active torsions:
REMARK  status: ('A' for Active; 'I' for Inactive)
REMARK       I    between atoms: C1_4  and  N3_6
REMARK    1  A    between atoms: N3_6  and  C2_8
REMARK    2  A    between atoms: C2_8  and  C3_9
REMARK    3  A    between atoms: C3_9  and  N4_10
REMARK    4  A    between atoms: C7_22  and  C8_23
ROOT
HETATM    1  N4  UNL     1      35.157  -2.425  11.735  1.00  0.00    -0.223 N
ATOM      2  H4  UNL     1      34.150  -2.334  11.870  1.00  0.00     0.177 HD
HETATM    3  C4  UNL     1      35.909  -1.439  12.055  1.00  0.00     0.695 A
HETATM    4  N5  UNL     1      35.593  -0.240  12.563  1.00  0.00    -0.170 N
ATOM      5  H5  UNL     1      34.648   0.075  12.782  1.00  0.00     0.186 HD
HETATM    6  C5  UNL     1      36.702   0.477  12.739  1.00  0.00     0.187 A
HETATM    7  C6  UNL     1      36.913   1.742  13.222  1.00  0.00     0.177 A
HETATM    8  N6  UNL     1      35.870   2.584  13.661  1.00  0.00    -0.077 NA
HETATM    9  N7  UNL     1      38.165   2.209  13.285  1.00  0.00    -0.283 N
ATOM     10  H7  UNL     1      38.353   3.147  13.640  1.00  0.00     0.188 HD
HETATM   11  N8  UNL     1      39.134   1.447  12.885  1.00  0.00    -0.281 N
ATOM     12  H8  UNL     1      40.081   1.821  12.939  1.00  0.00     0.188 HD
HETATM   13  C7  UNL     1      38.983   0.176  12.394  1.00  0.00     0.172 A
HETATM   14  N11 UNL     1      37.745  -0.302  12.326  1.00  0.00    -0.202 N
HETATM   15  N12 UNL     1      37.270  -1.446  11.917  1.00  0.00    -0.122 N
ATOM     16  H12 UNL     1      37.825  -2.221  11.553  1.00  0.00     0.206 HD
ENDROOT
BRANCH   1  17
HETATM   17  C3  UNL     1      35.672  -3.655  11.195  1.00  0.00     0.157 C
BRANCH  17  18
HETATM   18  C2  UNL     1      35.331  -4.791  12.149  1.00  0.00     0.142 C
BRANCH  18  19
HETATM   19  N3  UNL     1      33.912  -4.952  12.272  1.00  0.00    -0.363 N
HETATM   20  C1  UNL     1      33.289  -6.212  12.471  1.00  0.00     0.181 C
HETATM   21  N1  UNL     1      32.259  -6.578  11.779  1.00  0.00    -0.374 N
HETATM   22  N2  UNL     1      33.788  -7.120  13.456  1.00  0.00    -0.064 NA
ATOM     23  H12 UNL     1      31.812  -7.483  11.922  1.00  0.00     0.158 HD
ATOM     24  H11 UNL     1      31.903  -5.930  11.076  1.00  0.00     0.158 HD
ATOM     25  H3  UNL     1      33.322  -4.122  12.213  1.00  0.00     0.162 HD
ENDBRANCH  18  19
ENDBRANCH  17  18
ENDBRANCH   1  17
BRANCH  13  26
HETATM   26  C8  UNL     1      40.197  -0.525  11.996  1.00  0.00     0.095 A
HETATM   27  C9  UNL     1      40.941  -1.243  12.937  1.00  0.00     0.124 A
HETATM   28  N9  UNL     1      42.059  -1.895  12.592  1.00  0.00    -0.340 N
HETATM   29  C10 UNL     1      42.525  -1.894  11.324  1.00  0.00     0.203 A
ATOM     30  H9  UNL     1      42.574  -2.409  13.307  1.00  0.00     0.167 HD
HETATM   31  F1  UNL     1      43.667  -2.564  10.987  1.00  0.00    -0.185 F
HETATM   32  C11 UNL     1      41.797  -1.190  10.392  1.00  0.00     0.150 A
HETATM   33  N10 UNL     1      40.680  -0.543  10.757  1.00  0.00    -0.357 N
ATOM     34  H10 UNL     1      40.168  -0.032  10.037  1.00  0.00     0.165 HD
ENDBRANCH  13  26
TORSDOF 4
ENDMDL