MODEL 4
REMARK VINA RESULT: -6.274118063      1.474      1.611
REMARK  7 active torsions:
REMARK  status: ('A' for Active; 'I' for Inactive)
REMARK    1  A    between atoms: C2_2  and  C3_6
REMARK    2  A    between atoms: C3_6  and  N2_7
REMARK    3  A    between atoms: C3_6  and  C4_11
REMARK       I    between atoms: C4_11  and  N3_13
REMARK    4  A    between atoms: N3_13  and  N4_15
REMARK    5  A    between atoms: C5_16  and  N5_17
REMARK    6  A    between atoms: N5_17  and  N6_19
REMARK    7  A    between atoms: C6_24  and  N8_25
ROOT
HETATM    1  N4  UNL     1      39.738   0.360  13.110  1.00  0.00    -0.080 N
HETATM    2  C5  UNL     1      39.136   1.655  13.106  1.00  0.00     0.718 C
HETATM    3  N7  UNL     1      39.604   2.684  12.506  1.00  0.00    -0.194 N
ATOM      4  H7  UNL     1      39.101   3.570  12.562  1.00  0.00     0.180 HD
HETATM    5  C6  UNL     1      40.810   2.611  11.765  1.00  0.00     0.301 C
HETATM    6  C7  UNL     1      41.708   1.527  12.241  1.00  0.00     0.121 C
HETATM    7  C8  UNL     1      41.011   0.210  12.459  1.00  0.00     0.238 C
HETATM    8 CL1  UNL     1      40.900  -0.622  10.894  1.00  0.00    -0.076 Cl
HETATM    9  C9  UNL     1      41.882  -0.579  13.328  1.00  0.00     0.110 C
HETATM   10  N9  UNL     1      42.563  -1.203  14.034  1.00  0.00    -0.193 NA
ENDROOT
BRANCH   1  11
HETATM   11  N3  UNL     1      39.074  -0.692  13.742  1.00  0.00    -0.248 N
HETATM   12  C4  UNL     1      38.129  -1.531  13.103  1.00  0.00     0.273 C
HETATM   13  O1  UNL     1      37.849  -1.348  11.895  1.00  0.00    -0.269 OA
ATOM     14  H3  UNL     1      39.283  -0.868  14.725  1.00  0.00     0.191 HD
BRANCH  12  15
HETATM   15  C3  UNL     1      37.449  -2.628  13.813  1.00  0.00     0.320 C
BRANCH  15  16
HETATM   16  C2  UNL     1      36.194  -3.052  13.129  1.00  0.00     0.016 C
HETATM   17  C1  UNL     1      35.910  -4.446  12.750  1.00  0.00     0.065 C
HETATM   18  N1  UNL     1      35.346  -2.143  12.873  1.00  0.00    -0.404 N
ATOM     19  H12 UNL     1      34.487  -2.432  12.405  1.00  0.00     0.155 HD
ATOM     20  H11 UNL     1      35.542  -1.177  13.136  1.00  0.00     0.155 HD
ENDBRANCH  15  16
BRANCH  15  21
HETATM   21  N2  UNL     1      37.111  -2.190  15.150  1.00  0.00    -0.061 N
ATOM     22  H23 UNL     1      37.483  -1.266  15.366  1.00  0.00     0.275 HD
ATOM     23  H22 UNL     1      36.121  -1.969  15.252  1.00  0.00     0.275 HD
ATOM     24  H21 UNL     1      37.424  -2.904  15.809  1.00  0.00     0.275 HD
ENDBRANCH  15  21
ENDBRANCH  12  15
ENDBRANCH   1  11
BRANCH   2  25
HETATM   25  N5  UNL     1      37.897   1.823  13.833  1.00  0.00    -0.070 N
ATOM     26  H5  UNL     1      37.846   1.497  14.798  1.00  0.00     0.212 HD
BRANCH  25  27
HETATM   27  N6  UNL     1      36.785   2.408  13.271  1.00  0.00    -0.024 N
HETATM   28  O2  UNL     1      35.693   2.268  13.885  1.00  0.00    -0.516 OA
HETATM   29  O3  UNL     1      36.746   3.125  12.115  1.00  0.00    -0.516 OA
ENDBRANCH  25  27
ENDBRANCH   2  25
BRANCH   5  30
HETATM   30  N8  UNL     1      41.538   3.875  12.007  1.00  0.00    -0.058 N
ATOM     31  H83 UNL     1      41.013   4.539  12.576  1.00  0.00     0.276 HD
ATOM     32  H82 UNL     1      42.334   3.766  12.636  1.00  0.00     0.276 HD
ATOM     33  H81 UNL     1      41.797   4.246  11.093  1.00  0.00     0.276 HD
ENDBRANCH   5  30
TORSDOF 7
ENDMDL