MODEL 5
REMARK VINA RESULT: -6.301493873      2.506      3.638
REMARK  7 active torsions:
REMARK  status: ('A' for Active; 'I' for Inactive)
REMARK    1  A    between atoms: C1_2  and  C2_4
REMARK    2  A    between atoms: C3_5  and  C4_6
REMARK    3  A    between atoms: C4_6  and  N2_7
REMARK    4  A    between atoms: C4_6  and  C5_11
REMARK    5  A    between atoms: C9_24  and  N7_25
REMARK    6  A    between atoms: N7_25  and  C10_27
REMARK    7  A    between atoms: N10_33  and  N11_34
ROOT
HETATM    1  C2  UNL     1      36.832  -3.569  13.341  1.00  0.00     0.099 A
HETATM    2  C3  UNL     1      36.989  -2.252  13.166  1.00  0.00     0.069 A
HETATM    3  N5  UNL     1      36.082  -1.605  12.379  1.00  0.00    -0.318 N
ATOM      4  H5  UNL     1      36.192  -0.601  12.235  1.00  0.00     0.169 HD
HETATM    5  C8  UNL     1      35.072  -2.217  11.798  1.00  0.00     0.267 A
HETATM    6  F1  UNL     1      34.214  -1.490  11.028  1.00  0.00    -0.165 F
HETATM    7  N6  UNL     1      34.913  -3.542  11.980  1.00  0.00    -0.303 N
ATOM      8  H6  UNL     1      34.129  -4.019  11.533  1.00  0.00     0.171 HD
HETATM    9  C9  UNL     1      35.760  -4.243  12.733  1.00  0.00     0.141 A
ENDROOT
BRANCH   2  10
HETATM   10  C4  UNL     1      37.972  -1.388  13.846  1.00  0.00     0.300 C
BRANCH  10  11
HETATM   11  N2  UNL     1      37.533   0.028  13.904  1.00  0.00    -0.063 N
ATOM     12  H23 UNL     1      37.038   0.296  13.053  1.00  0.00     0.275 HD
ATOM     13  H22 UNL     1      36.777   0.151  14.578  1.00  0.00     0.275 HD
ATOM     14  H21 UNL     1      38.305   0.666  14.097  1.00  0.00     0.275 HD
ENDBRANCH  10  11
BRANCH  10  15
HETATM   15  C5  UNL     1      39.217  -1.351  12.978  1.00  0.00     0.110 C
HETATM   16  N3  UNL     1      40.313  -1.920  13.222  1.00  0.00    -0.376 N
HETATM   17  C6  UNL     1      41.300  -1.682  12.187  1.00  0.00     0.140 C
ATOM     18  H3  UNL     1      40.487  -2.484  14.054  1.00  0.00     0.160 HD
HETATM   19  C7  UNL     1      40.709  -0.575  11.339  1.00  0.00     0.140 C
HETATM   20  N4  UNL     1      39.309  -0.653  11.757  1.00  0.00    -0.376 N
ATOM     21  H4  UNL     1      38.520  -0.261  11.242  1.00  0.00     0.160 HD
ENDBRANCH  10  15
ENDBRANCH   2  10
BRANCH   1  22
HETATM   22  C1  UNL     1      37.787  -4.421  14.001  1.00  0.00     0.270 C
HETATM   23  N1  UNL     1      38.921  -5.053  13.460  1.00  0.00    -0.057 NA
HETATM   24  O1  UNL     1      37.589  -4.656  15.256  1.00  0.00    -0.271 OA
ENDBRANCH   1  22
BRANCH   9  25
HETATM   25  N7  UNL     1      35.622  -5.474  12.910  1.00  0.00    -0.172 N
ATOM     26  H7  UNL     1      35.689  -5.814  13.869  1.00  0.00     0.186 HD
BRANCH  25  27
HETATM   27  C10 UNL     1      35.382  -6.439  11.899  1.00  0.00     0.720 A
HETATM   28  N8  UNL     1      34.360  -6.573  11.059  1.00  0.00    -0.129 N
HETATM   29  N9  UNL     1      34.580  -7.629  10.295  1.00  0.00    -0.279 N
ATOM     30  H8  UNL     1      33.543  -5.963  11.012  1.00  0.00     0.205 HD
HETATM   31  C11 UNL     1      35.753  -8.195  10.633  1.00  0.00     0.241 A
ATOM     32  H9  UNL     1      33.956  -7.964   9.562  1.00  0.00     0.188 HD
HETATM   33  N10 UNL     1      36.237  -7.442  11.632  1.00  0.00    -0.086 N
BRANCH  33  34
HETATM   34  N11 UNL     1      37.462  -7.679  12.292  1.00  0.00    -0.323 N
ATOM     35 2H11 UNL     1      37.669  -7.392  13.249  1.00  0.00     0.178 HD
ATOM     36 1H11 UNL     1      38.270  -8.159  11.895  1.00  0.00     0.178 HD
ENDBRANCH  33  34
ENDBRANCH  25  27
ENDBRANCH   9  25
TORSDOF 7
ENDMDL