MODEL 3
REMARK VINA RESULT: -7.119808271      2.707      3.714
REMARK  7 active torsions:
REMARK  status: ('A' for Active; 'I' for Inactive)
REMARK    1  A    between atoms: N1_1  and  N2_4
REMARK    2  A    between atoms: N2_4  and  C1_6
REMARK    3  A    between atoms: C2_9  and  N4_10
REMARK    4  A    between atoms: N4_10  and  N5_12
REMARK    5  A    between atoms: C3_14  and  C4_15
REMARK    6  A    between atoms: C6_19  and  C7_20
REMARK    7  A    between atoms: N7_21  and  N8_23
ROOT
HETATM    1  N4  UNL     1      35.833  -2.652  13.392  1.00  0.00    -0.131 N
ATOM      2  H4  UNL     1      36.477  -2.310  14.104  1.00  0.00     0.205 HD
ENDROOT
BRANCH   1   3
HETATM    3  C2  UNL     1      35.457  -3.896  13.352  1.00  0.00     0.713 A
HETATM    4  N3  UNL     1      34.581  -4.374  12.466  1.00  0.00    -0.169 N
HETATM    5  C1  UNL     1      34.218  -5.664  12.456  1.00  0.00     0.175 A
ATOM      6  H3  UNL     1      34.176  -3.739  11.778  1.00  0.00     0.186 HD
HETATM    7  C9  UNL     1      34.765  -6.541  13.395  1.00  0.00     0.164 A
HETATM    8  N12 UNL     1      35.652  -6.044  14.286  1.00  0.00    -0.272 N
HETATM    9 CL1  UNL     1      34.295  -8.235  13.389  1.00  0.00    -0.059 Cl
HETATM   10  N11 UNL     1      35.971  -4.775  14.250  1.00  0.00    -0.129 N
ATOM     11  H12 UNL     1      36.071  -6.657  14.986  1.00  0.00     0.188 HD
ATOM     12  H11 UNL     1      36.642  -4.427  14.935  1.00  0.00     0.205 HD
BRANCH   5  13
HETATM   13  N2  UNL     1      33.387  -6.143  11.624  1.00  0.00    -0.289 N
ATOM     14  H2  UNL     1      33.773  -6.478  10.741  1.00  0.00     0.188 HD
BRANCH  13  15
HETATM   15  N1  UNL     1      32.028  -6.261  11.776  1.00  0.00    -0.344 N
ATOM     16  H12 UNL     1      31.610  -7.071  11.319  1.00  0.00     0.176 HD
ATOM     17  H11 UNL     1      31.405  -5.636  12.287  1.00  0.00     0.176 HD
ENDBRANCH  13  15
ENDBRANCH   5  13
ENDBRANCH   1   3
BRANCH   1  18
HETATM   18  N5  UNL     1      35.311  -1.813  12.415  1.00  0.00    -0.293 N
HETATM   19  C3  UNL     1      36.022  -0.903  11.880  1.00  0.00     0.164 C
ATOM     20  H5  UNL     1      34.341  -1.927  12.123  1.00  0.00     0.186 HD
BRANCH  19  21
HETATM   21  C4  UNL     1      37.423  -0.749  12.310  1.00  0.00     0.165 A
HETATM   22  N6  UNL     1      38.509  -0.634  11.544  1.00  0.00    -0.343 N
HETATM   23  C5  UNL     1      39.599  -0.513  12.334  1.00  0.00     0.129 A
ATOM     24  H6  UNL     1      38.516  -0.637  10.524  1.00  0.00     0.167 HD
HETATM   25  C6  UNL     1      39.162  -0.555  13.624  1.00  0.00     0.110 A
HETATM   26  O1  UNL     1      37.834  -0.700  13.549  1.00  0.00    -0.290 OA
BRANCH  25  27
HETATM   27  C7  UNL     1      39.823  -0.478  14.904  1.00  0.00     0.145 C
HETATM   28  N7  UNL     1      40.026  -1.478  15.652  1.00  0.00    -0.307 N
ATOM     29  H7  UNL     1      40.502  -1.306  16.537  1.00  0.00     0.186 HD
BRANCH  28  30
HETATM   30  N8  UNL     1      39.664  -2.761  15.383  1.00  0.00    -0.276 N
HETATM   31  C8  UNL     1      38.804  -3.390  16.115  1.00  0.00     0.215 C
HETATM   32  N9  UNL     1      38.435  -4.732  15.822  1.00  0.00    -0.065 NA
HETATM   33  N10 UNL     1      38.219  -2.706  17.240  1.00  0.00    -0.065 NA
ATOM     34  H8  UNL     1      40.083  -3.239  14.585  1.00  0.00     0.189 HD
ENDBRANCH  28  30
ENDBRANCH  25  27
ENDBRANCH  19  21
ENDBRANCH   1  18
TORSDOF 7
ENDMDL