MODEL 3
REMARK VINA RESULT: -6.948780601      4.267      7.352
REMARK  4 active torsions:
REMARK  status: ('A' for Active; 'I' for Inactive)
REMARK       I    between atoms: C2_2  and  N1_4
REMARK    1  A    between atoms: N1_4  and  N2_6
REMARK    2  A    between atoms: C3_7  and  C4_8
REMARK    3  A    between atoms: C4_8  and  N3_9
REMARK    4  A    between atoms: C6_11  and  C7_12
REMARK       I    between atoms: N9_24  and  C9_26
ROOT
HETATM    1  N2  UNL     1      38.496   1.250  12.901  1.00  0.00    -0.067 N
HETATM    2  C3  UNL     1      39.808   1.145  12.491  1.00  0.00     0.156 A
HETATM    3  N7  UNL     1      40.006  -0.020  11.865  1.00  0.00    -0.271 N
ATOM      4  H7  UNL     1      40.883  -0.351  11.462  1.00  0.00     0.189 HD
HETATM    5  N8  UNL     1      38.863  -0.654  11.867  1.00  0.00    -0.129 N
ATOM      6  H8  UNL     1      38.698  -1.575  11.461  1.00  0.00     0.205 HD
HETATM    7  C8  UNL     1      37.920   0.118  12.503  1.00  0.00     0.722 A
HETATM    8  N9  UNL     1      36.703  -0.284  12.640  1.00  0.00    -0.161 N
ATOM      9  H9  UNL     1      36.041   0.324  13.120  1.00  0.00     0.187 HD
HETATM   10  C9  UNL     1      36.245  -1.527  12.156  1.00  0.00     0.200 C
HETATM   11  N10 UNL     1      36.579  -2.646  12.692  1.00  0.00    -0.373 N
ATOM     12 1H10 UNL     1      36.248  -3.545  12.342  1.00  0.00     0.158 HD
ATOM     13 2H10 UNL     1      37.200  -2.637  13.501  1.00  0.00     0.158 HD
HETATM   14  N11 UNL     1      35.382  -1.539  11.031  1.00  0.00    -0.063 NA
ENDROOT
BRANCH   2  15
HETATM   15  C4  UNL     1      40.810   2.225  12.739  1.00  0.00     0.230 C
BRANCH  15  16
HETATM   16  N3  UNL     1      40.834   3.129  11.596  1.00  0.00    -0.280 N
HETATM   17  C5  UNL     1      41.692   3.052  10.539  1.00  0.00     0.148 A
HETATM   18  C6  UNL     1      41.391   4.081   9.682  1.00  0.00     0.131 A
HETATM   19  N5  UNL     1      40.373   4.745  10.234  1.00  0.00    -0.280 N
HETATM   20  N6  UNL     1      40.053   4.155  11.386  1.00  0.00    -0.240 N
ATOM     21  H5  UNL     1      39.916   5.567   9.840  1.00  0.00     0.188 HD
ATOM     22  H6  UNL     1      39.308   4.460  12.012  1.00  0.00     0.208 HD
BRANCH  18  23
HETATM   23  C7  UNL     1      42.030   4.411   8.420  1.00  0.00     0.284 C
HETATM   24  N4  UNL     1      41.347   5.148   7.426  1.00  0.00    -0.056 NA
HETATM   25  O2  UNL     1      43.216   4.060   8.151  1.00  0.00    -0.269 OA
ENDBRANCH  18  23
ENDBRANCH  15  16
ENDBRANCH   2  15
BRANCH   1  26
HETATM   26  N1  UNL     1      37.955   2.315  13.580  1.00  0.00    -0.248 N
HETATM   27  C2  UNL     1      37.023   3.280  13.231  1.00  0.00     0.233 C
HETATM   28  C1  UNL     1      36.625   4.357  14.239  1.00  0.00     0.119 C
HETATM   29  O1  UNL     1      36.459   3.359  12.148  1.00  0.00    -0.272 OA
ATOM     30  H1  UNL     1      38.311   2.415  14.531  1.00  0.00     0.191 HD
ENDBRANCH   1  26
TORSDOF 4
ENDMDL