MODEL 2
REMARK VINA RESULT: -6.902381105      1.737      1.951
REMARK  7 active torsions:
REMARK  status: ('A' for Active; 'I' for Inactive)
REMARK    1  A    between atoms: C2_7  and  C3_8
REMARK    2  A    between atoms: C3_8  and  C4_9
REMARK    3  A    between atoms: C5_10  and  C6_12
REMARK    4  A    between atoms: C7_15  and  C8_16
REMARK    5  A    between atoms: C8_16  and  O1_18
REMARK    6  A    between atoms: C10_21  and  N6_22
REMARK    7  A    between atoms: C11_27  and  N8_28
ROOT
HETATM    1  C6  UNL     1      36.424  -1.619  12.519  1.00  0.00     0.167 A
HETATM    2  N4  UNL     1      35.919  -0.384  12.508  1.00  0.00    -0.333 N
ATOM      3  H4  UNL     1      34.972  -0.150  12.211  1.00  0.00     0.168 HD
HETATM    4  C7  UNL     1      36.851   0.535  12.951  1.00  0.00     0.115 A
HETATM    5  C9  UNL     1      37.945  -0.227  13.229  1.00  0.00     0.133 A
HETATM    6  C10 UNL     1      39.192   0.094  13.712  1.00  0.00     0.146 A
HETATM    7  N7  UNL     1      40.105  -0.897  13.903  1.00  0.00    -0.174 N
ATOM      8  H7  UNL     1      41.027  -0.648  14.263  1.00  0.00     0.186 HD
HETATM    9  C11 UNL     1      39.850  -2.174  13.644  1.00  0.00     0.692 A
HETATM   10  N9  UNL     1      38.626  -2.472  13.173  1.00  0.00    -0.123 N
ATOM     11  H9  UNL     1      38.410  -3.447  12.968  1.00  0.00     0.206 HD
HETATM   12  N10 UNL     1      37.686  -1.562  12.963  1.00  0.00    -0.217 N
ENDROOT
BRANCH   1  13
HETATM   13  C5  UNL     1      35.723  -2.838  12.116  1.00  0.00     0.158 C
HETATM   14  C4  UNL     1      35.338  -3.704  13.062  1.00  0.00     0.027 C
HETATM   15  F1  UNL     1      35.462  -3.099  10.829  1.00  0.00    -0.202 F
BRANCH  14  16
HETATM   16  C3  UNL     1      34.627  -4.963  12.776  1.00  0.00     0.109 C
BRANCH  16  17
HETATM   17  C2  UNL     1      35.585  -6.037  12.410  1.00  0.00     0.116 A
HETATM   18  N3  UNL     1      36.844  -6.168  12.857  1.00  0.00    -0.272 N
HETATM   19  N2  UNL     1      37.368  -7.264  12.287  1.00  0.00    -0.225 N
ATOM     20  H3  UNL     1      37.317  -5.546  13.513  1.00  0.00     0.190 HD
HETATM   21  N1  UNL     1      36.471  -7.817  11.499  1.00  0.00    -0.223 N
ATOM     22  H2  UNL     1      38.314  -7.614  12.439  1.00  0.00     0.210 HD
HETATM   23  C1  UNL     1      36.653  -9.012  10.710  1.00  0.00     0.202 C
HETATM   24  N11 UNL     1      35.388  -7.066  11.578  1.00  0.00    -0.270 N
ATOM     25  H11 UNL     1      34.520  -7.246  11.073  1.00  0.00     0.190 HD
ENDBRANCH  16  17
ENDBRANCH  14  16
ENDBRANCH   1  13
BRANCH   4  26
HETATM   26  C8  UNL     1      36.554   1.938  13.049  1.00  0.00     0.179 C
HETATM   27  N5  UNL     1      37.063   2.987  12.306  1.00  0.00    -0.073 NA
BRANCH  26  28
HETATM   28  O1  UNL     1      35.687   2.302  13.951  1.00  0.00    -0.347 OA
ATOM     29  H1  UNL     1      35.966   2.272  14.859  1.00  0.00     0.219 HD
ENDBRANCH  26  28
ENDBRANCH   4  26
BRANCH   6  30
HETATM   30  N6  UNL     1      39.488   1.297  13.992  1.00  0.00    -0.383 N
ATOM     31  H62 UNL     1      38.827   2.047  13.793  1.00  0.00     0.157 HD
ATOM     32  H61 UNL     1      40.392   1.527  14.407  1.00  0.00     0.157 HD
ENDBRANCH   6  30
BRANCH   9  33
HETATM   33  N8  UNL     1      40.743  -3.112  13.835  1.00  0.00    -0.233 N
ATOM     34  H82 UNL     1      40.973  -3.776  13.096  1.00  0.00     0.174 HD
ATOM     35  H81 UNL     1      41.239  -3.213  14.721  1.00  0.00     0.174 HD
ENDBRANCH   9  33
TORSDOF 7
ENDMDL