MODEL 2
REMARK VINA RESULT: -1.957550492      1.563      3.288
REMARK  2 active torsions:
REMARK  status: ('A' for Active; 'I' for Inactive)
REMARK    1  A    between atoms: C4_5  and  C5_6
REMARK    2  A    between atoms: C5_6  and  N2_7
ROOT
HETATM    1  C1  UNL     1      24.683 -14.471   9.372  1.00  0.00     0.311 C
HETATM    2  N1  UNL     1      25.370 -14.840   8.154  1.00  0.00     0.042 N
HETATM    3  C2  UNL     1      24.509 -14.616   6.988  1.00  0.00     0.311 C
HETATM    4  C3  UNL     1      26.005 -16.132   8.172  1.00  0.00     0.308 C
HETATM    5  C4  UNL     1      27.062 -15.362   7.460  1.00  0.00     0.213 C
HETATM    6  O1  UNL     1      26.529 -14.162   7.961  1.00  0.00    -0.194 OA
ENDROOT
BRANCH   5   7
HETATM    7  C5  UNL     1      28.474 -15.529   7.955  1.00  0.00     0.265 C
BRANCH   7   8
HETATM    8  N2  UNL     1      29.303 -14.397   7.637  1.00  0.00    -0.077 N
ATOM      9  H23 UNL     1      30.152 -14.688   7.151  1.00  0.00     0.274 HD
ATOM     10  H22 UNL     1      28.882 -13.827   6.904  1.00  0.00     0.274 HD
ATOM     11  H21 UNL     1      29.524 -13.835   8.459  1.00  0.00     0.274 HD
ENDBRANCH   7   8
ENDBRANCH   5   7
TORSDOF 2
ENDMDL