MODEL 3
REMARK VINA RESULT: -2.921867693      2.464      2.879
REMARK  5 active torsions:
REMARK  status: ('A' for Active; 'I' for Inactive)
REMARK    1  A    between atoms: N1_1  and  N2_4
REMARK    2  A    between atoms: N3_6  and  C1_8
REMARK    3  A    between atoms: C1_8  and  C2_9
REMARK    4  A    between atoms: C3_10  and  C4_11
REMARK    5  A    between atoms: C4_11  and  O1_12
ROOT
HETATM    1  N2  UNL     1      24.405 -15.436   6.909  1.00  0.00    -0.253 N
ATOM      2  H2  UNL     1      25.206 -15.760   7.452  1.00  0.00     0.207 HD
HETATM    3  N3  UNL     1      24.277 -14.273   7.330  1.00  0.00    -0.311 N
ATOM      4  H3  UNL     1      23.609 -13.620   6.920  1.00  0.00     0.182 HD
ENDROOT
BRANCH   3   5
HETATM    5  C1  UNL     1      25.128 -13.903   8.431  1.00  0.00     0.234 C
BRANCH   5   6
HETATM    6  C2  UNL     1      26.451 -14.467   8.245  1.00  0.00    -0.083 C
HETATM    7  C3  UNL     1      27.553 -14.948   8.090  1.00  0.00    -0.079 C
BRANCH   7   8
HETATM    8  C4  UNL     1      28.893 -15.515   7.883  1.00  0.00     0.257 C
BRANCH   8   9
HETATM    9  O1  UNL     1      29.797 -14.466   7.615  1.00  0.00    -0.389 OA
ATOM     10  H1  UNL     1      29.600 -13.736   8.189  1.00  0.00     0.210 HD
ENDBRANCH   8   9
ENDBRANCH   7   8
ENDBRANCH   5   6
ENDBRANCH   3   5
BRANCH   1  11
HETATM   11  N1  UNL     1      24.152 -16.429   6.236  1.00  0.00    -0.331 N
ATOM     12  H12 UNL     1      24.813 -16.271   5.476  1.00  0.00     0.178 HD
ATOM     13  H11 UNL     1      23.685 -17.300   5.985  1.00  0.00     0.178 HD
ENDBRANCH   1  11
TORSDOF 5
ENDMDL