MODEL 2
REMARK VINA RESULT: -1.982152808      1.090      3.676
REMARK  2 active torsions:
REMARK  status: ('A' for Active; 'I' for Inactive)
REMARK    1  A    between atoms: C4_5  and  C5_6
REMARK    2  A    between atoms: C5_6  and  N2_7
ROOT
HETATM    1  C1  UNL     1      29.078 -15.114   7.755  1.00  0.00     0.309 C
HETATM    2  N1  UNL     1      27.802 -15.392   8.339  1.00  0.00     0.084 N
HETATM    3  C2  UNL     1      27.213 -16.625   7.862  1.00  0.00     0.272 C
HETATM    4  C3  UNL     1      25.721 -16.370   7.939  1.00  0.00     0.038 C
HETATM    5  C4  UNL     1      25.553 -14.961   8.415  1.00  0.00     0.041 C
HETATM    6  C6  UNL     1      26.877 -14.330   7.978  1.00  0.00     0.278 C
ENDROOT
BRANCH   5   7
HETATM    7  C5  UNL     1      24.459 -14.221   7.682  1.00  0.00     0.236 C
BRANCH   7   8
HETATM    8  N2  UNL     1      24.033 -15.100   6.595  1.00  0.00    -0.079 N
ATOM      9  H23 UNL     1      23.855 -16.059   6.894  1.00  0.00     0.274 HD
ATOM     10  H22 UNL     1      23.093 -14.899   6.255  1.00  0.00     0.274 HD
ATOM     11  H21 UNL     1      24.750 -15.026   5.873  1.00  0.00     0.274 HD
ENDBRANCH   7   8
ENDBRANCH   5   7
TORSDOF 2
ENDMDL