MODEL 5
REMARK VINA RESULT: -2.554445777      1.731      2.603
REMARK  2 active torsions:
REMARK  status: ('A' for Active; 'I' for Inactive)
REMARK    1  A    between atoms: C2_2  and  N1_3
REMARK    2  A    between atoms: N2_6  and  N3_7
ROOT
HETATM    1  N1  UNL     1      25.603 -14.252   7.191  1.00  0.00     0.103 N
HETATM    2  C3  UNL     1      24.215 -14.667   7.032  1.00  0.00     0.290 C
HETATM    3  C4  UNL     1      24.512 -16.157   6.774  1.00  0.00     0.145 C
HETATM    4  N2  UNL     1      25.182 -16.393   8.062  1.00  0.00    -0.209 NA
HETATM    5  C5  UNL     1      26.065 -15.250   8.158  1.00  0.00     0.385 C
ENDROOT
BRANCH   4   6
HETATM    6  N3  UNL     1      25.735 -17.616   8.216  1.00  0.00    -0.362 NA
ATOM      7  H32 UNL     1      25.677 -18.041   9.141  1.00  0.00     0.171 HD
ATOM      8  H31 UNL     1      26.733 -17.676   8.015  1.00  0.00     0.171 HD
ENDBRANCH   4   6
BRANCH   1   9
HETATM    9  C2  UNL     1      25.687 -12.919   7.765  1.00  0.00     0.269 C
HETATM   10  C1  UNL     1      26.096 -13.126   9.219  1.00  0.00     0.037 C
ENDBRANCH   1   9
TORSDOF 2
ENDMDL