MODEL 5
REMARK VINA RESULT: -2.034725284      1.640      2.316
REMARK  1 active torsions:
REMARK  status: ('A' for Active; 'I' for Inactive)
REMARK    1  A    between atoms: O1_2  and  N1_3
ROOT
HETATM    1  N1  UNL     1      27.002 -14.048   7.967  1.00  0.00    -0.168 NA
HETATM    2  C2  UNL     1      26.169 -13.694   9.111  1.00  0.00     0.153 C
HETATM    3  C3  UNL     1      24.776 -14.213   8.748  1.00  0.00     0.290 C
HETATM    4  N2  UNL     1      24.861 -14.234   7.305  1.00  0.00     0.100 N
HETATM    5  C4  UNL     1      23.913 -15.158   6.711  1.00  0.00     0.311 C
HETATM    6  C5  UNL     1      26.177 -14.873   7.126  1.00  0.00     0.392 C
ENDROOT
BRANCH   1   7
HETATM    7  O1  UNL     1      28.069 -14.801   8.346  1.00  0.00    -0.307 OA
HETATM    8  C1  UNL     1      27.905 -16.058   7.749  1.00  0.00     0.229 C
ENDBRANCH   1   7
TORSDOF 1
ENDMDL