MODEL 2
REMARK VINA RESULT: -3.190145615      1.936      2.473
REMARK  2 active torsions:
REMARK  status: ('A' for Active; 'I' for Inactive)
REMARK    1  A    between atoms: C2_2  and  O1_3
REMARK    2  A    between atoms: C2_2  and  C3_5
ROOT
HETATM    1  C3  UNL     1      26.797 -14.473   7.660  1.00  0.00     0.077 C
HETATM    2  C4  UNL     1      26.132 -13.612   8.709  1.00  0.00     0.282 C
HETATM    3  N1  UNL     1      24.863 -14.273   8.548  1.00  0.00     0.098 N
HETATM    4  C5  UNL     1      24.315 -14.417   7.210  1.00  0.00     0.309 A
HETATM    5  C6  UNL     1      25.505 -15.215   7.665  1.00  0.00     0.259 A
ENDROOT
BRANCH   1   6
HETATM    6  C2  UNL     1      27.996 -15.167   8.214  1.00  0.00     0.122 C
HETATM    7  C1  UNL     1      28.098 -16.578   7.680  1.00  0.00     0.040 C
BRANCH   6   8
HETATM    8  O1  UNL     1      29.132 -14.481   7.722  1.00  0.00    -0.395 OA
ATOM      9  H1  UNL     1      29.303 -14.843   6.860  1.00  0.00     0.210 HD
ENDBRANCH   6   8
ENDBRANCH   1   6
TORSDOF 2
ENDMDL