MODEL 3
REMARK VINA RESULT: -2.202242963      1.644      2.872
REMARK  2 active torsions:
REMARK  status: ('A' for Active; 'I' for Inactive)
REMARK    1  A    between atoms: N1_1  and  C1_5
REMARK    2  A    between atoms: C1_5  and  C2_6
ROOT
HETATM    1  C2  UNL     1      24.371 -14.538   7.339  1.00  0.00     0.041 C
HETATM    2  C3  UNL     1      24.561 -14.583   8.849  1.00  0.00     0.045 C
HETATM    3  C4  UNL     1      25.972 -14.101   9.028  1.00  0.00     0.251 A
HETATM    4  C5  UNL     1      26.118 -12.601   9.035  1.00  0.00     0.308 A
HETATM    5  N2  UNL     1      26.353 -13.372   7.867  1.00  0.00     0.097 N
HETATM    6  C6  UNL     1      25.389 -13.565   6.845  1.00  0.00     0.279 C
ENDROOT
BRANCH   1   7
HETATM    7  C1  UNL     1      24.580 -15.943   6.836  1.00  0.00     0.236 C
BRANCH   7   8
HETATM    8  N1  UNL     1      25.465 -16.714   7.687  1.00  0.00    -0.079 N
ATOM      9  H13 UNL     1      24.936 -17.332   8.301  1.00  0.00     0.274 HD
ATOM     10  H12 UNL     1      25.974 -17.414   7.148  1.00  0.00     0.274 HD
ATOM     11  H11 UNL     1      26.106 -16.127   8.222  1.00  0.00     0.274 HD
ENDBRANCH   7   8
ENDBRANCH   1   7
TORSDOF 2
ENDMDL