MODEL 5
REMARK VINA RESULT: -2.510196762      2.499      2.930
REMARK  2 active torsions:
REMARK  status: ('A' for Active; 'I' for Inactive)
REMARK    1  A    between atoms: C2_2  and  O1_3
REMARK    2  A    between atoms: C2_2  and  C3_5
ROOT
HETATM    1  C3  UNL     1      24.860 -14.563   7.640  1.00  0.00     0.278 A
HETATM    2  C4  UNL     1      25.230 -13.365   6.804  1.00  0.00     0.311 A
HETATM    3  N1  UNL     1      26.026 -13.745   7.929  1.00  0.00     0.095 N
HETATM    4  C5  UNL     1      26.078 -12.964   9.123  1.00  0.00     0.310 C
ENDROOT
BRANCH   1   5
HETATM    5  C2  UNL     1      25.217 -15.951   7.148  1.00  0.00     0.149 C
HETATM    6  C1  UNL     1      25.927 -16.659   8.302  1.00  0.00     0.041 C
BRANCH   5   7
HETATM    7  O1  UNL     1      24.139 -16.657   6.680  1.00  0.00    -0.394 OA
ATOM      8  H1  UNL     1      23.790 -16.298   5.873  1.00  0.00     0.210 HD
ENDBRANCH   5   7
ENDBRANCH   1   5
TORSDOF 2
ENDMDL