MODEL 3
REMARK VINA RESULT: -1.354894699      1.291      2.041
REMARK  1 active torsions:
REMARK  status: ('A' for Active; 'I' for Inactive)
REMARK    1  A    between atoms: N1_2  and  C2_5
ROOT
HETATM    1  C2  UNL     1      26.307 -15.721   7.782  1.00  0.00     0.215 C
HETATM    2  C3  UNL     1      25.267 -15.610   8.874  1.00  0.00     0.065 C
HETATM    3  C4  UNL     1      24.710 -14.229   8.472  1.00  0.00     0.274 C
HETATM    4  N2  UNL     1      25.873 -13.478   8.120  1.00  0.00     0.086 N
HETATM    5  C5  UNL     1      26.166 -12.505   9.142  1.00  0.00     0.310 C
HETATM    6  C6  UNL     1      26.983 -14.395   7.910  1.00  0.00     0.304 C
ENDROOT
BRANCH   1   7
HETATM    7  N1  UNL     1      27.119 -16.870   7.794  1.00  0.00    -0.073 N
HETATM    8  C1  UNL     1      28.508 -16.476   7.662  1.00  0.00     0.267 C
ATOM      9  H12 UNL     1      26.840 -17.548   7.086  1.00  0.00     0.277 HD
ATOM     10  H11 UNL     1      26.959 -17.449   8.619  1.00  0.00     0.277 HD
ENDBRANCH   1   7
TORSDOF 1
ENDMDL