MODEL 4
REMARK VINA RESULT: -6.060023395      1.387      1.595
REMARK  12 active torsions:
REMARK  status: ('A' for Active; 'I' for Inactive)
REMARK    1  A    between atoms: N1_1  and  N2_4
REMARK    2  A    between atoms: N2_4  and  C1_6
REMARK    3  A    between atoms: C2_9  and  C3_10
REMARK    4  A    between atoms: C3_10  and  C4_11
REMARK    5  A    between atoms: C4_11  and  O2_13
REMARK    6  A    between atoms: O2_13  and  C5_14
REMARK    7  A    between atoms: C5_14  and  C6_15
REMARK    8  A    between atoms: C6_15  and  O3_16
REMARK    9  A    between atoms: C6_15  and  O4_18
REMARK   10  A    between atoms: C7_20  and  S1_21
REMARK   11  A    between atoms: N4_26  and  N5_28
REMARK   12  A    between atoms: N6_31  and  N7_32
ROOT
HETATM    1  C1  UNL     1       0.099  53.880  23.860  1.00  0.00     0.719 A
HETATM    2  N3  UNL     1       0.608  55.035  24.300  1.00  0.00    -0.190 N
ATOM      3  H3  UNL     1       0.831  55.755  23.614  1.00  0.00     0.184 HD
HETATM    4  C2  UNL     1       0.842  55.298  25.593  1.00  0.00     0.064 A
HETATM    5  C7  UNL     1       0.552  54.340  26.568  1.00  0.00     0.151 A
HETATM    6  C8  UNL     1       0.025  53.142  26.088  1.00  0.00     0.185 A
HETATM    7  N4  UNL     1      -0.226  52.173  26.822  1.00  0.00    -0.289 N
ATOM      8  H4  UNL     1      -0.598  51.455  26.201  1.00  0.00     0.188 HD
HETATM    9  N6  UNL     1      -0.188  52.951  24.735  1.00  0.00    -0.072 N
ENDROOT
BRANCH   4  10
HETATM   10  C3  UNL     1       1.402  56.597  25.929  1.00  0.00     0.170 C
BRANCH  10  11
HETATM   11  C4  UNL     1       1.036  57.711  25.045  1.00  0.00     0.264 C
HETATM   12  O1  UNL     1      -0.066  57.737  24.460  1.00  0.00    -0.265 OA
BRANCH  11  13
HETATM   13  O2  UNL     1       1.941  58.732  24.874  1.00  0.00    -0.316 OA
BRANCH  13  14
HETATM   14  C5  UNL     1       1.847  59.982  25.519  1.00  0.00     0.238 C
BRANCH  14  15
HETATM   15  C6  UNL     1       3.074  60.787  25.067  1.00  0.00     0.278 C
BRANCH  15  16
HETATM   16  O3  UNL     1       2.894  62.141  25.242  1.00  0.00    -0.369 OA
ATOM     17  H3  UNL     1       2.557  62.347  26.106  1.00  0.00     0.212 HD
ENDBRANCH  15  16
BRANCH  15  18
HETATM   18  O4  UNL     1       3.349  60.424  23.754  1.00  0.00    -0.369 OA
ATOM     19  H4  UNL     1       2.562  60.579  23.245  1.00  0.00     0.212 HD
ENDBRANCH  15  18
ENDBRANCH  14  15
ENDBRANCH  13  14
ENDBRANCH  11  13
ENDBRANCH  10  11
ENDBRANCH   4  10
BRANCH   5  20
HETATM   20  S1  UNL     1       0.839  54.595  28.245  1.00  0.00     0.143 S
HETATM   21  O5  UNL     1      -0.401  54.307  29.109  1.00  0.00    -0.591 OA
HETATM   22  O6  UNL     1       1.844  53.643  28.817  1.00  0.00    -0.591 OA
HETATM   23  O7  UNL     1       1.365  56.165  28.607  1.00  0.00    -0.591 OA
ENDBRANCH   5  20
BRANCH   1  24
HETATM   24  N2  UNL     1      -0.089  53.728  22.590  1.00  0.00    -0.137 N
ATOM     25  H2  UNL     1      -0.622  52.932  22.241  1.00  0.00     0.205 HD
BRANCH  24  26
HETATM   26  N1  UNL     1       0.436  54.652  21.713  1.00  0.00    -0.331 N
ATOM     27  H12 UNL     1       1.441  54.665  21.543  1.00  0.00     0.177 HD
ATOM     28  H11 UNL     1      -0.188  55.311  21.247  1.00  0.00     0.177 HD
ENDBRANCH  24  26
ENDBRANCH   1  24
BRANCH   9  29
HETATM   29  N7  UNL     1      -0.728  51.712  24.327  1.00  0.00    -0.322 N
ATOM     30  H72 UNL     1      -0.241  51.205  23.589  1.00  0.00     0.178 HD
ATOM     31  H71 UNL     1      -1.575  51.342  24.759  1.00  0.00     0.178 HD
ENDBRANCH   9  29
BRANCH   7  32
HETATM   32  N5  UNL     1      -0.239  51.639  28.017  1.00  0.00    -0.344 N
ATOM     33  H52 UNL     1       0.750  51.584  28.259  1.00  0.00     0.176 HD
ATOM     34  H51 UNL     1      -0.766  51.261  28.803  1.00  0.00     0.176 HD
ENDBRANCH   7  32
TORSDOF 12
ENDMDL