MODEL 3
REMARK VINA RESULT: -5.346509962      2.544      5.052
REMARK  11 active torsions:
REMARK  status: ('A' for Active; 'I' for Inactive)
REMARK    1  A    between atoms: N1_1  and  N2_4
REMARK    2  A    between atoms: C2_9  and  N4_10
REMARK    3  A    between atoms: N4_10  and  C3_12
REMARK    4  A    between atoms: C3_12  and  C4_13
REMARK    5  A    between atoms: C3_12  and  C5_18
REMARK    6  A    between atoms: C4_13  and  O2_14
REMARK    7  A    between atoms: C4_13  and  O3_16
REMARK    8  A    between atoms: C5_18  and  O4_19
REMARK    9  A    between atoms: C5_18  and  O5_21
REMARK   10  A    between atoms: N6_30  and  C9_31
REMARK   11  A    between atoms: C9_31  and  O8_32
ROOT
HETATM    1  N2  UNL     1       0.890  55.643  28.458  1.00  0.00    -0.194 N
HETATM    2  C1  UNL     1      -0.181  55.990  27.677  1.00  0.00     0.348 A
HETATM    3  O1  UNL     1      -0.871  57.018  27.952  1.00  0.00    -0.245 OA
HETATM    4  N3  UNL     1      -0.519  55.250  26.615  1.00  0.00    -0.292 N
ATOM      5  H3  UNL     1      -1.321  55.525  26.047  1.00  0.00     0.172 HD
HETATM    6  C2  UNL     1       0.177  54.152  26.282  1.00  0.00     0.125 A
HETATM    7  C6  UNL     1       1.259  53.822  27.086  1.00  0.00     0.122 A
HETATM    8  C7  UNL     1       1.962  52.701  26.740  1.00  0.00     0.267 A
HETATM    9  O6  UNL     1       1.663  52.005  25.760  1.00  0.00    -0.267 OA
HETATM   10  N5  UNL     1       3.008  52.373  27.512  1.00  0.00    -0.274 N
ATOM     11  H5  UNL     1       3.555  51.542  27.282  1.00  0.00     0.173 HD
HETATM   12  C8  UNL     1       3.352  53.103  28.572  1.00  0.00     0.332 A
HETATM   13  O7  UNL     1       4.329  52.750  29.247  1.00  0.00    -0.246 OA
HETATM   14  N6  UNL     1       2.675  54.247  28.967  1.00  0.00    -0.261 N
HETATM   15  C10 UNL     1       1.634  54.573  28.199  1.00  0.00     0.159 A
ENDROOT
BRANCH   6  16
HETATM   16  N4  UNL     1      -0.114  53.414  25.267  1.00  0.00    -0.361 N
ATOM     17  H4  UNL     1       0.086  52.415  25.333  1.00  0.00     0.161 HD
BRANCH  16  18
HETATM   18  C3  UNL     1      -0.697  53.897  24.059  1.00  0.00     0.192 C
BRANCH  18  19
HETATM   19  C4  UNL     1      -1.151  52.694  23.249  1.00  0.00     0.281 C
BRANCH  19  20
HETATM   20  O2  UNL     1      -1.212  53.005  21.884  1.00  0.00    -0.369 OA
ATOM     21  H2  UNL     1      -2.075  52.819  21.533  1.00  0.00     0.212 HD
ENDBRANCH  19  20
BRANCH  19  22
HETATM   22  O3  UNL     1      -0.256  51.633  23.396  1.00  0.00    -0.369 OA
ATOM     23  H3  UNL     1       0.637  51.923  23.251  1.00  0.00     0.212 HD
ENDBRANCH  19  22
ENDBRANCH  18  19
BRANCH  18  24
HETATM   24  C5  UNL     1       0.366  54.611  23.219  1.00  0.00     0.281 C
BRANCH  24  25
HETATM   25  O4  UNL     1       0.585  55.865  23.761  1.00  0.00    -0.369 OA
ATOM     26  H4  UNL     1       1.226  56.318  23.226  1.00  0.00     0.212 HD
ENDBRANCH  24  25
BRANCH  24  27
HETATM   27  O5  UNL     1       1.531  53.830  23.316  1.00  0.00    -0.369 OA
ATOM     28  H5  UNL     1       2.250  54.395  23.059  1.00  0.00     0.212 HD
ENDBRANCH  24  27
ENDBRANCH  18  24
ENDBRANCH  16  18
ENDBRANCH   6  16
BRANCH   1  29
HETATM   29  N1  UNL     1       1.104  56.485  29.513  1.00  0.00    -0.333 N
ATOM     30  H12 UNL     1       1.045  57.502  29.452  1.00  0.00     0.177 HD
ATOM     31  H11 UNL     1       1.340  56.007  30.383  1.00  0.00     0.177 HD
ENDBRANCH   1  29
BRANCH  14  32
HETATM   32  C9  UNL     1       3.146  54.948  30.114  1.00  0.00     0.302 C
BRANCH  32  33
HETATM   33  O8  UNL     1       4.258  55.690  29.699  1.00  0.00    -0.382 OA
ATOM     34  H8  UNL     1       5.000  55.367  30.196  1.00  0.00     0.211 HD
ENDBRANCH  32  33
ENDBRANCH  14  32
TORSDOF 11
ENDMDL