MODEL 5
REMARK VINA RESULT: -5.719100814      2.408      4.566
REMARK  9 active torsions:
REMARK  status: ('A' for Active; 'I' for Inactive)
REMARK    1  A    between atoms: N1_1  and  C1_4
REMARK    2  A    between atoms: C3_12  and  N5_13
REMARK    3  A    between atoms: N5_13  and  C4_15
REMARK    4  A    between atoms: C5_17  and  C6_18
REMARK    5  A    between atoms: C6_18  and  O2_19
REMARK    6  A    between atoms: C7_24  and  N7_25
REMARK    7  A    between atoms: C7_24  and  C8_29
REMARK    8  A    between atoms: C8_29  and  O3_30
REMARK    9  A    between atoms: C9_34  and  C10_35
ROOT
HETATM    1  C1  UNL     1       0.884  51.732  24.864  1.00  0.00     0.144 A
HETATM    2  N2  UNL     1       0.278  52.005  23.683  1.00  0.00    -0.269 N
ATOM      3  H2  UNL     1      -0.058  51.258  23.075  1.00  0.00     0.190 HD
HETATM    4  N3  UNL     1       0.138  53.277  23.352  1.00  0.00    -0.240 N
ATOM      5  H3  UNL     1      -0.317  53.507  22.468  1.00  0.00     0.208 HD
HETATM    6  N4  UNL     1       0.569  54.274  24.130  1.00  0.00    -0.280 N
ATOM      7  H4  UNL     1       0.436  55.239  23.826  1.00  0.00     0.188 HD
HETATM    8  C2  UNL     1       1.170  54.032  25.299  1.00  0.00     0.123 A
HETATM    9  C3  UNL     1       1.634  55.039  26.140  1.00  0.00     0.136 A
HETATM   10  N8  UNL     1       2.242  54.751  27.325  1.00  0.00    -0.323 N
ATOM     11  H8  UNL     1       2.577  55.500  27.931  1.00  0.00     0.169 HD
HETATM   12  C9  UNL     1       2.394  53.463  27.682  1.00  0.00     0.174 A
HETATM   13  N10 UNL     1       1.955  52.472  26.886  1.00  0.00    -0.333 N
ATOM     14  H10 UNL     1       2.084  51.504  27.182  1.00  0.00     0.168 HD
HETATM   15  C11 UNL     1       1.345  52.725  25.700  1.00  0.00     0.111 A
ENDROOT
BRANCH   9  16
HETATM   16  N5  UNL     1       1.451  56.243  25.729  1.00  0.00    -0.344 N
ATOM     17  H5  UNL     1       1.650  56.496  24.761  1.00  0.00     0.163 HD
BRANCH  16  18
HETATM   18  C4  UNL     1       0.968  57.218  26.648  1.00  0.00     0.292 C
HETATM   19  O1  UNL     1      -0.195  56.847  27.313  1.00  0.00    -0.328 OA
HETATM   20  C5  UNL     1      -0.817  57.995  27.729  1.00  0.00     0.349 C
HETATM   21  N6  UNL     1      -0.239  59.113  27.044  1.00  0.00    -0.006 N
HETATM   22  C7  UNL     1       0.529  58.501  25.973  1.00  0.00     0.350 C
ATOM     23  H62 UNL     1      -0.914  59.812  26.732  1.00  0.00     0.283 HD
ATOM     24  H61 UNL     1       0.299  59.742  27.641  1.00  0.00     0.283 HD
BRANCH  20  25
HETATM   25  C6  UNL     1      -2.315  57.965  27.503  1.00  0.00     0.225 C
BRANCH  25  26
HETATM   26  O2  UNL     1      -2.644  57.102  26.464  1.00  0.00    -0.397 OA
ATOM     27  H2  UNL     1      -3.251  57.514  25.860  1.00  0.00     0.209 HD
ENDBRANCH  25  26
ENDBRANCH  20  25
BRANCH  22  28
HETATM   28  N7  UNL     1      -0.362  58.250  24.884  1.00  0.00    -0.038 N
ATOM     29  H73 UNL     1      -1.310  58.073  25.213  1.00  0.00     0.277 HD
ATOM     30  H72 UNL     1      -0.536  59.098  24.344  1.00  0.00     0.277 HD
ATOM     31  H71 UNL     1      -0.028  57.492  24.288  1.00  0.00     0.277 HD
ENDBRANCH  22  28
BRANCH  22  32
HETATM   32  C8  UNL     1       1.715  59.353  25.582  1.00  0.00     0.238 C
BRANCH  32  33
HETATM   33  O3  UNL     1       2.322  58.822  24.454  1.00  0.00    -0.396 OA
ATOM     34  H3  UNL     1       3.230  59.098  24.418  1.00  0.00     0.209 HD
ENDBRANCH  32  33
ENDBRANCH  22  32
ENDBRANCH  16  18
ENDBRANCH   9  16
BRANCH  12  35
HETATM   35  C10 UNL     1       3.045  53.128  28.950  1.00  0.00     0.298 C
HETATM   36  N9  UNL     1       2.392  53.248  30.197  1.00  0.00    -0.054 NA
HETATM   37  O4  UNL     1       4.236  52.711  28.967  1.00  0.00    -0.268 OA
ENDBRANCH  12  35
BRANCH   1  38
HETATM   38  N1  UNL     1       1.039  50.519  25.221  1.00  0.00    -0.382 N
ATOM     39  H12 UNL     1       1.356  49.845  24.525  1.00  0.00     0.157 HD
ATOM     40  H11 UNL     1       0.841  50.253  26.186  1.00  0.00     0.157 HD
ENDBRANCH   1  38
TORSDOF 9
ENDMDL