MODEL 2
REMARK VINA RESULT: -5.798187420      5.021     10.120
REMARK  10 active torsions:
REMARK  status: ('A' for Active; 'I' for Inactive)
REMARK    1  A    between atoms: C3_3  and  O1_4
REMARK    2  A    between atoms: C5_11  and  O2_12
REMARK    3  A    between atoms: C6_14  and  N4_15
REMARK    4  A    between atoms: N4_15  and  N5_17
REMARK    5  A    between atoms: C7_19  and  C8_20
REMARK    6  A    between atoms: C8_20  and  O3_21
REMARK    7  A    between atoms: C8_20  and  C9_23
REMARK    8  A    between atoms: C9_23  and  N6_25
REMARK    9  A    between atoms: C12_32  and  O4_33
REMARK   10  A    between atoms: C12_32  and  O5_35
ROOT
HETATM    1  C1  UNL     1       0.112  57.370  27.584  1.00  0.00     0.017 C
HETATM    2  C2  UNL     1       0.267  57.947  26.537  1.00  0.00    -0.051 C
HETATM    3  C3  UNL     1       0.462  58.653  25.245  1.00  0.00     0.262 C
HETATM    4  N1  UNL     1       1.795  59.124  25.235  1.00  0.00    -0.318 N
ATOM      5  H1  UNL     1       2.562  58.464  25.104  1.00  0.00     0.166 HD
HETATM    6  C4  UNL     1       2.051  60.375  25.391  1.00  0.00     0.193 C
HETATM    7  N2  UNL     1       3.442  60.780  25.370  1.00  0.00    -0.063 NA
HETATM    8  N3  UNL     1       1.059  61.352  25.576  1.00  0.00    -0.295 N
HETATM    9  C5  UNL     1       1.088  62.780  25.688  1.00  0.00     0.294 C
HETATM   10  C6  UNL     1      -0.198  63.121  25.005  1.00  0.00     0.143 C
HETATM   11  N7  UNL     1      -0.981  62.100  25.017  1.00  0.00    -0.349 N
ATOM     12  H7  UNL     1      -1.918  62.076  24.615  1.00  0.00     0.163 HD
HETATM   13  C11 UNL     1      -0.336  60.991  25.687  1.00  0.00     0.260 C
HETATM   14  C12 UNL     1      -0.629  59.647  25.098  1.00  0.00     0.264 C
ENDROOT
BRANCH   3  15
HETATM   15  O1  UNL     1       0.291  57.678  24.253  1.00  0.00    -0.356 OA
ATOM     16  H1  UNL     1      -0.260  58.081  23.591  1.00  0.00     0.213 HD
ENDBRANCH   3  15
BRANCH  14  17
HETATM   17  O4  UNL     1      -1.040  59.831  23.774  1.00  0.00    -0.358 OA
ATOM     18  H4  UNL     1      -1.678  60.527  23.670  1.00  0.00     0.213 HD
ENDBRANCH  14  17
BRANCH  14  19
HETATM   19  O5  UNL     1      -1.759  59.139  25.779  1.00  0.00    -0.358 OA
ATOM     20  H5  UNL     1      -1.464  58.829  26.627  1.00  0.00     0.213 HD
ENDBRANCH  14  19
BRANCH   9  21
HETATM   21  O2  UNL     1       2.174  63.363  25.047  1.00  0.00    -0.369 OA
ATOM     22  H2  UNL     1       2.987  62.888  25.176  1.00  0.00     0.212 HD
ENDBRANCH   9  21
BRANCH  10  23
HETATM   23  N4  UNL     1      -0.500  64.376  24.437  1.00  0.00    -0.286 N
ATOM     24  H4  UNL     1      -1.416  64.504  24.009  1.00  0.00     0.188 HD
BRANCH  23  25
HETATM   25  N5  UNL     1       0.388  65.453  24.428  1.00  0.00    -0.312 N
HETATM   26  C7  UNL     1       0.470  66.277  23.430  1.00  0.00     0.113 C
ATOM     27  H5  UNL     1       0.994  65.596  25.236  1.00  0.00     0.185 HD
BRANCH  26  28
HETATM   28  C8  UNL     1       1.413  67.404  23.444  1.00  0.00     0.188 C
BRANCH  28  29
HETATM   29  O3  UNL     1       2.637  67.018  23.950  1.00  0.00    -0.388 OA
ATOM     30  H3  UNL     1       3.180  67.773  24.143  1.00  0.00     0.210 HD
ENDBRANCH  28  29
BRANCH  28  31
HETATM   31  C9  UNL     1       1.508  67.985  22.062  1.00  0.00     0.213 C
HETATM   32  C10 UNL     1       2.876  68.503  21.738  1.00  0.00     0.043 C
BRANCH  31  33
HETATM   33  N6  UNL     1       1.110  67.037  21.064  1.00  0.00    -0.073 N
ATOM     34  H63 UNL     1       1.229  66.078  21.392  1.00  0.00     0.274 HD
ATOM     35  H62 UNL     1       0.099  67.034  20.934  1.00  0.00     0.274 HD
ATOM     36  H61 UNL     1       1.600  67.193  20.183  1.00  0.00     0.274 HD
ENDBRANCH  31  33
ENDBRANCH  28  31
ENDBRANCH  26  28
ENDBRANCH  23  25
ENDBRANCH  10  23
TORSDOF 10
ENDMDL