MODEL 5
REMARK VINA RESULT: -5.469907101      4.452      7.074
REMARK  8 active torsions:
REMARK  status: ('A' for Active; 'I' for Inactive)
REMARK    1  A    between atoms: N1_1  and  N2_4
REMARK    2  A    between atoms: N2_4  and  C1_5
REMARK    3  A    between atoms: C1_5  and  N3_6
REMARK    4  A    between atoms: C1_5  and  C2_10
REMARK    5  A    between atoms: N5_19  and  C7_20
REMARK    6  A    between atoms: C8_24  and  C9_25
REMARK    7  A    between atoms: C9_25  and  N7_26
REMARK    8  A    between atoms: C9_25  and  O3_30
REMARK       I    between atoms: N8_34  and  C11_35
ROOT
HETATM    1  C2  UNL     1       0.269  59.563  25.723  1.00  0.00     0.071 A
HETATM    2  C3  UNL     1      -1.063  59.654  26.032  1.00  0.00     0.050 A
HETATM    3  C4  UNL     1      -1.391  60.976  26.153  1.00  0.00     0.079 A
HETATM    4  C5  UNL     1      -2.624  61.549  26.450  1.00  0.00     0.263 A
HETATM    5  O1  UNL     1      -3.617  60.818  26.660  1.00  0.00    -0.267 OA
HETATM    6  N4  UNL     1      -2.657  62.880  26.490  1.00  0.00    -0.274 N
ATOM      7  H4  UNL     1      -3.534  63.355  26.703  1.00  0.00     0.173 HD
HETATM    8  C6  UNL     1      -1.555  63.600  26.256  1.00  0.00     0.334 A
HETATM    9  O2  UNL     1      -1.618  64.862  26.301  1.00  0.00    -0.246 OA
HETATM   10  N5  UNL     1      -0.327  63.066  25.960  1.00  0.00    -0.232 N
HETATM   11  C10 UNL     1      -0.231  61.728  25.911  1.00  0.00     0.141 A
HETATM   12  N8  UNL     1       0.777  60.841  25.650  1.00  0.00    -0.251 N
HETATM   13  C11 UNL     1       2.081  61.108  25.283  1.00  0.00     0.341 C
HETATM   14  N9  UNL     1       2.844  60.030  24.606  1.00  0.00    -0.039 NA
HETATM   15  O5  UNL     1       2.782  62.091  25.388  1.00  0.00    -0.250 OA
ENDROOT
BRANCH  10  16
HETATM   16  C7  UNL     1       0.754  63.953  25.650  1.00  0.00     0.446 C
HETATM   17  N6  UNL     1       0.693  65.299  26.170  1.00  0.00     0.001 N
HETATM   18  C8  UNL     1       1.255  65.611  24.853  1.00  0.00     0.385 C
ATOM     19  H62 UNL     1      -0.158  65.725  26.537  1.00  0.00     0.285 HD
ATOM     20  H61 UNL     1       1.122  65.585  27.049  1.00  0.00     0.285 HD
HETATM   21  O4  UNL     1       0.405  64.613  24.382  1.00  0.00    -0.306 OA
BRANCH  18  22
HETATM   22  C9  UNL     1       1.012  67.001  24.381  1.00  0.00     0.373 C
BRANCH  22  23
HETATM   23  N7  UNL     1       1.412  67.151  23.001  1.00  0.00    -0.049 N
ATOM     24  H73 UNL     1       1.595  68.127  22.765  1.00  0.00     0.277 HD
ATOM     25  H72 UNL     1       2.345  66.776  22.835  1.00  0.00     0.277 HD
ATOM     26  H71 UNL     1       0.720  66.736  22.377  1.00  0.00     0.277 HD
ENDBRANCH  22  23
BRANCH  22  27
HETATM   27  O3  UNL     1      -0.277  67.453  24.502  1.00  0.00    -0.367 OA
ATOM     28  H3  UNL     1      -0.535  68.129  23.887  1.00  0.00     0.212 HD
ENDBRANCH  22  27
ENDBRANCH  18  22
ENDBRANCH  10  16
BRANCH   1  29
HETATM   29  C1  UNL     1       0.919  58.264  25.552  1.00  0.00     0.345 C
BRANCH  29  30
HETATM   30  N2  UNL     1       0.280  57.535  24.467  1.00  0.00    -0.108 NA
BRANCH  30  31
HETATM   31  N1  UNL     1       0.975  56.392  24.110  1.00  0.00    -0.346 N
ATOM     32  H12 UNL     1       1.903  56.418  23.688  1.00  0.00     0.172 HD
ATOM     33  H11 UNL     1       0.458  55.536  24.316  1.00  0.00     0.172 HD
ENDBRANCH  30  31
ENDBRANCH  29  30
BRANCH  29  34
HETATM   34  N3  UNL     1       0.551  57.428  26.754  1.00  0.00    -0.054 N
ATOM     35  H33 UNL     1      -0.438  57.442  27.002  1.00  0.00     0.276 HD
ATOM     36  H32 UNL     1       0.601  56.420  26.610  1.00  0.00     0.276 HD
ATOM     37  H31 UNL     1       1.181  57.795  27.468  1.00  0.00     0.276 HD
ENDBRANCH  29  34
ENDBRANCH   1  29
TORSDOF 8
ENDMDL