MODEL 3
REMARK VINA RESULT: -5.412715335      2.168      6.439
REMARK  9 active torsions:
REMARK  status: ('A' for Active; 'I' for Inactive)
REMARK    1  A    between atoms: C2_2  and  N1_3
REMARK    2  A    between atoms: C2_2  and  C3_7
REMARK    3  A    between atoms: C3_7  and  N3_11
REMARK    4  A    between atoms: N3_11  and  C4_13
REMARK    5  A    between atoms: C4_13  and  O1_14
REMARK    6  A    between atoms: O1_14  and  C5_15
REMARK    7  A    between atoms: C7_24  and  N7_25
REMARK    8  A    between atoms: N7_25  and  N8_27
REMARK    9  A    between atoms: C10_36  and  O4_37
ROOT
HETATM    1  C4  UNL     1       0.900  55.322  25.990  1.00  0.00     0.292 C
HETATM    2  O2  UNL     1       1.543  56.458  25.489  1.00  0.00    -0.261 OA
HETATM    3  C6  UNL     1       1.092  57.773  25.655  1.00  0.00     0.248 A
HETATM    4  N6  UNL     1       1.842  58.825  25.253  1.00  0.00    -0.153 N
ATOM      5  H6  UNL     1       2.752  58.669  24.821  1.00  0.00     0.188 HD
HETATM    6  C7  UNL     1       1.384  60.076  25.425  1.00  0.00     0.703 A
HETATM    7  N9  UNL     1       0.177  60.222  25.999  1.00  0.00    -0.139 N
ATOM      8  H9  UNL     1      -0.185  61.165  26.136  1.00  0.00     0.189 HD
HETATM    9  C8  UNL     1      -0.575  59.182  26.401  1.00  0.00     0.344 A
HETATM   10  O3  UNL     1      -1.698  59.359  26.934  1.00  0.00    -0.246 OA
HETATM   11  N10 UNL     1      -0.114  57.921  26.228  1.00  0.00    -0.261 N
HETATM   12  C9  UNL     1      -0.919  56.770  26.660  1.00  0.00     0.176 C
HETATM   13  C10 UNL     1       0.069  55.719  27.185  1.00  0.00     0.223 C
ENDROOT
BRANCH   1  14
HETATM   14  N3  UNL     1       1.951  54.376  26.376  1.00  0.00    -0.321 N
ATOM     15  H3  UNL     1       2.892  54.493  26.000  1.00  0.00     0.166 HD
BRANCH  14  16
HETATM   16  C3  UNL     1       1.686  53.300  27.263  1.00  0.00     0.105 C
HETATM   17  N2  UNL     1       0.869  52.369  26.860  1.00  0.00    -0.387 N
ATOM     18  H22 UNL     1       0.679  51.596  27.498  1.00  0.00     0.157 HD
ATOM     19  H21 UNL     1       0.437  52.417  25.938  1.00  0.00     0.157 HD
BRANCH  16  20
HETATM   20  C2  UNL     1       2.308  53.230  28.593  1.00  0.00     0.245 C
HETATM   21  C1  UNL     1       3.633  53.973  28.634  1.00  0.00     0.048 C
BRANCH  20  22
HETATM   22  N1  UNL     1       1.411  53.667  29.648  1.00  0.00    -0.069 N
ATOM     23  H13 UNL     1       1.476  53.060  30.465  1.00  0.00     0.275 HD
ATOM     24  H12 UNL     1       1.732  54.539  30.070  1.00  0.00     0.275 HD
ATOM     25  H11 UNL     1       0.449  53.747  29.319  1.00  0.00     0.275 HD
ENDBRANCH  20  22
ENDBRANCH  16  20
ENDBRANCH  14  16
ENDBRANCH   1  14
BRANCH   1  26
HETATM   26  O1  UNL     1       0.041  54.724  25.027  1.00  0.00    -0.264 OA
BRANCH  26  27
HETATM   27  C5  UNL     1       0.608  54.219  23.872  1.00  0.00     0.229 C
HETATM   28  N4  UNL     1       0.704  54.962  22.827  1.00  0.00    -0.368 N
ATOM     29  H42 UNL     1       0.358  55.921  22.865  1.00  0.00     0.159 HD
ATOM     30  H41 UNL     1       1.123  54.588  21.975  1.00  0.00     0.159 HD
HETATM   31  N5  UNL     1       1.098  52.864  23.819  1.00  0.00    -0.056 NA
ENDBRANCH  26  27
ENDBRANCH   1  26
BRANCH  13  32
HETATM   32  O4  UNL     1       0.893  56.383  28.101  1.00  0.00    -0.386 OA
ATOM     33  H4  UNL     1       0.411  56.505  28.910  1.00  0.00     0.210 HD
ENDBRANCH  13  32
BRANCH   6  34
HETATM   34  N7  UNL     1       2.085  61.116  25.047  1.00  0.00    -0.138 N
ATOM     35  H7  UNL     1       1.714  62.060  25.156  1.00  0.00     0.205 HD
BRANCH  34  36
HETATM   36  N8  UNL     1       3.339  60.908  24.498  1.00  0.00    -0.331 N
ATOM     37  H82 UNL     1       3.421  60.505  23.565  1.00  0.00     0.177 HD
ATOM     38  H81 UNL     1       4.161  61.166  25.045  1.00  0.00     0.177 HD
ENDBRANCH  34  36
ENDBRANCH   6  34
TORSDOF 9
ENDMDL