MODEL 2
REMARK VINA RESULT: -6.012427658      0.989      1.057
REMARK  8 active torsions:
REMARK  status: ('A' for Active; 'I' for Inactive)
REMARK    1  A    between atoms: N2_4  and  C1_5
REMARK    2  A    between atoms: N2_4  and  N8_20
REMARK    3  A    between atoms: N5_10  and  N6_11
REMARK    4  A    between atoms: C4_21  and  O3_22
REMARK    5  A    between atoms: C5_24  and  C6_25
REMARK    6  A    between atoms: C8_29  and  O6_30
REMARK    7  A    between atoms: C8_29  and  C9_32
REMARK    8  A    between atoms: C9_32  and  O7_33
ROOT
HETATM    1  N1  UNL     1       0.306  57.589  28.612  1.00  0.00    -0.322 N
ATOM      2  H11 UNL     1       0.307  58.588  28.814  1.00  0.00     0.179 HD
ATOM      3  H12 UNL     1       0.202  56.857  29.314  1.00  0.00     0.179 HD
HETATM    4  N2  UNL     1       0.443  57.254  27.394  1.00  0.00    -0.176 N
ENDROOT
BRANCH   4   5
HETATM    5  C1  UNL     1       0.441  55.856  27.112  1.00  0.00     0.229 C
HETATM    6  N3  UNL     1       1.548  55.213  27.234  1.00  0.00    -0.262 N
HETATM    7  N4  UNL     1       1.906  53.877  27.045  1.00  0.00    -0.216 N
ATOM      8  H3  UNL     1       2.326  55.802  27.532  1.00  0.00     0.190 HD
HETATM    9  N5  UNL     1       1.161  52.883  26.396  1.00  0.00    -0.134 N
ATOM     10  H4  UNL     1       2.811  53.593  27.420  1.00  0.00     0.210 HD
HETATM   11  C2  UNL     1      -0.172  52.939  25.909  1.00  0.00     0.364 C
HETATM   12  O1  UNL     1      -0.532  51.905  25.291  1.00  0.00    -0.243 OA
HETATM   13  N7  UNL     1      -1.082  54.019  26.059  1.00  0.00    -0.269 N
HETATM   14  C3  UNL     1      -0.843  55.283  26.701  1.00  0.00     0.298 C
ATOM     15  H7  UNL     1      -2.014  53.883  25.665  1.00  0.00     0.174 HD
HETATM   16  O2  UNL     1      -1.866  55.965  26.932  1.00  0.00    -0.264 OA
BRANCH   9  17
HETATM   17  N6  UNL     1       1.805  51.661  26.193  1.00  0.00    -0.319 N
ATOM     18  H62 UNL     1       1.227  50.839  26.374  1.00  0.00     0.179 HD
ATOM     19  H61 UNL     1       2.776  51.708  25.888  1.00  0.00     0.179 HD
ENDBRANCH   9  17
ENDBRANCH   4   5
BRANCH   4  20
HETATM   20  N8  UNL     1       0.584  58.244  26.443  1.00  0.00    -0.232 N
HETATM   21  C4  UNL     1       1.646  58.365  25.486  1.00  0.00     0.282 C
HETATM   22  C5  UNL     1       1.775  59.858  25.368  1.00  0.00     0.069 C
HETATM   23  C7  UNL     1       0.629  60.416  25.803  1.00  0.00     0.056 C
HETATM   24  C8  UNL     1      -0.308  59.350  26.226  1.00  0.00     0.193 C
BRANCH  21  25
HETATM   25  O3  UNL     1       1.349  57.791  24.256  1.00  0.00    -0.371 OA
ATOM     26  H3  UNL     1       2.054  57.258  23.908  1.00  0.00     0.212 HD
ENDBRANCH  21  25
BRANCH  22  27
HETATM   27  C6  UNL     1       2.949  60.544  24.868  1.00  0.00     0.209 C
HETATM   28  O4  UNL     1       3.364  61.565  25.455  1.00  0.00    -0.644 OA
HETATM   29  O5  UNL     1       3.603  60.066  23.747  1.00  0.00    -0.644 OA
ENDBRANCH  22  27
BRANCH  24  30
HETATM   30  O6  UNL     1      -0.947  59.768  27.381  1.00  0.00    -0.364 OA
ATOM     31  H6  UNL     1      -1.516  59.106  27.754  1.00  0.00     0.213 HD
ENDBRANCH  24  30
BRANCH  24  32
HETATM   32  C9  UNL     1      -1.326  59.076  25.148  1.00  0.00     0.231 C
BRANCH  32  33
HETATM   33  O7  UNL     1      -1.081  59.766  23.986  1.00  0.00    -0.396 OA
ATOM     34  H7  UNL     1      -1.677  60.493  23.851  1.00  0.00     0.209 HD
ENDBRANCH  32  33
ENDBRANCH  24  32
ENDBRANCH   4  20
TORSDOF 8
ENDMDL