MODEL 5
REMARK VINA RESULT: -5.624452271      3.572      5.719
REMARK  9 active torsions:
REMARK  status: ('A' for Active; 'I' for Inactive)
REMARK    1  A    between atoms: C2_2  and  N1_3
REMARK    2  A    between atoms: C2_2  and  C3_7
REMARK    3  A    between atoms: C4_11  and  N3_12
REMARK    4  A    between atoms: C5_18  and  C6_19
REMARK    5  A    between atoms: C6_19  and  N5_20
REMARK    6  A    between atoms: C7_23  and  C8_24
REMARK    7  A    between atoms: C9_27  and  N8_28
REMARK    8  A    between atoms: N8_28  and  O2_30
REMARK    9  A    between atoms: C11_36  and  O4_37
ROOT
HETATM    1  C3  UNL     1       1.482  54.032  26.431  1.00  0.00     0.254 C
HETATM    2  N2  UNL     1       0.282  53.281  26.207  1.00  0.00    -0.020 N
ATOM      3  H21 UNL     1      -0.143  52.999  27.090  1.00  0.00     0.282 HD
ATOM      4  H22 UNL     1       0.493  52.360  25.823  1.00  0.00     0.282 HD
HETATM    5  C4  UNL     1      -0.671  53.982  25.375  1.00  0.00     0.483 C
HETATM    6  N4  UNL     1      -1.014  55.210  26.078  1.00  0.00    -0.344 N
ATOM      7  H4  UNL     1      -1.995  55.480  26.164  1.00  0.00     0.163 HD
HETATM    8  C5  UNL     1      -0.110  55.959  26.590  1.00  0.00     0.036 C
HETATM    9  C11 UNL     1       1.303  55.519  26.434  1.00  0.00     0.198 C
ENDROOT
BRANCH   8  10
HETATM   10  C6  UNL     1      -0.424  57.222  27.316  1.00  0.00     0.209 C
BRANCH  10  11
HETATM   11  N5  UNL     1      -0.332  58.376  26.445  1.00  0.00    -0.236 N
HETATM   12  N6  UNL     1       0.863  58.894  26.121  1.00  0.00    -0.286 N
HETATM   13  C7  UNL     1       0.983  59.963  25.318  1.00  0.00     0.159 A
ATOM     14  H6  UNL     1       1.707  58.462  26.498  1.00  0.00     0.187 HD
HETATM   15  C9  UNL     1      -0.182  60.517  24.830  1.00  0.00     0.163 A
HETATM   16  N9  UNL     1      -1.381  59.973  25.174  1.00  0.00    -0.290 N
HETATM   17  C10 UNL     1      -1.481  58.902  25.982  1.00  0.00     0.343 A
ATOM     18  H9  UNL     1      -2.235  60.394  24.807  1.00  0.00     0.172 HD
HETATM   19  O3  UNL     1      -2.611  58.429  26.276  1.00  0.00    -0.245 OA
BRANCH  13  20
HETATM   20  C8  UNL     1       2.280  60.535  24.958  1.00  0.00     0.286 C
HETATM   21  N7  UNL     1       2.676  61.810  25.453  1.00  0.00    -0.056 NA
HETATM   22  O1  UNL     1       3.064  59.923  24.214  1.00  0.00    -0.269 OA
ENDBRANCH  13  20
BRANCH  15  23
HETATM   23  N8  UNL     1      -0.087  61.546  24.055  1.00  0.00    -0.251 N
ATOM     24  H8  UNL     1       0.220  62.452  24.409  1.00  0.00     0.196 HD
BRANCH  23  25
HETATM   25  O2  UNL     1      -0.420  61.368  22.734  1.00  0.00    -0.288 OA
ATOM     26  H2  UNL     1      -1.278  61.007  22.548  1.00  0.00     0.244 HD
ENDBRANCH  23  25
ENDBRANCH  15  23
ENDBRANCH  10  11
ENDBRANCH   8  10
BRANCH   9  27
HETATM   27  O4  UNL     1       1.868  56.027  25.253  1.00  0.00    -0.388 OA
ATOM     28  H4  UNL     1       2.237  56.881  25.448  1.00  0.00     0.210 HD
ENDBRANCH   9  27
BRANCH   5  29
HETATM   29  N3  UNL     1      -0.221  54.218  24.043  1.00  0.00    -0.033 N
ATOM     30  H33 UNL     1       0.747  54.540  24.044  1.00  0.00     0.278 HD
ATOM     31  H32 UNL     1      -0.109  53.336  23.542  1.00  0.00     0.278 HD
ATOM     32  H31 UNL     1      -0.809  54.859  23.510  1.00  0.00     0.278 HD
ENDBRANCH   5  29
BRANCH   1  33
HETATM   33  C2  UNL     1       2.119  53.563  27.737  1.00  0.00     0.213 C
HETATM   34  C1  UNL     1       2.829  54.680  28.440  1.00  0.00     0.042 C
BRANCH  33  35
HETATM   35  N1  UNL     1       2.949  52.411  27.566  1.00  0.00    -0.073 N
ATOM     36  H13 UNL     1       3.824  52.653  27.102  1.00  0.00     0.274 HD
ATOM     37  H12 UNL     1       3.321  52.090  28.460  1.00  0.00     0.274 HD
ATOM     38  H11 UNL     1       2.470  51.656  27.075  1.00  0.00     0.274 HD
ENDBRANCH  33  35
ENDBRANCH   1  33
TORSDOF 9
ENDMDL