MODEL 3
REMARK VINA RESULT: -5.913287548      1.476      1.883
REMARK  7 active torsions:
REMARK  status: ('A' for Active; 'I' for Inactive)
REMARK    1  A    between atoms: C4_6  and  S1_7
REMARK    2  A    between atoms: S1_7  and  C5_10
REMARK    3  A    between atoms: C5_10  and  C6_11
REMARK    4  A    between atoms: C5_10  and  C7_14
REMARK    5  A    between atoms: C6_11  and  O4_12
REMARK    6  A    between atoms: C8_19  and  N5_20
REMARK    7  A    between atoms: C9_28  and  N8_29
ROOT
HETATM    1  C5  UNL     1       0.063  58.512  26.545  1.00  0.00     0.178 C
ENDROOT
BRANCH   1   2
HETATM    2  S1  UNL     1       0.084  56.971  25.653  1.00  0.00     0.201 S
HETATM    3  O2  UNL     1       0.558  57.267  24.264  1.00  0.00    -0.221 OA
HETATM    4  O3  UNL     1      -1.340  56.480  25.592  1.00  0.00    -0.221 OA
BRANCH   2   5
HETATM    5  C4  UNL     1       1.068  55.791  26.456  1.00  0.00     0.149 A
HETATM    6  C3  UNL     1       1.068  54.490  25.985  1.00  0.00     0.117 A
HETATM    7  C2  UNL     1       1.825  53.508  26.576  1.00  0.00     0.264 A
HETATM    8  N1  UNL     1       2.578  53.816  27.630  1.00  0.00    -0.152 N
HETATM    9  O1  UNL     1       1.832  52.311  26.153  1.00  0.00    -0.267 OA
HETATM   10  C1  UNL     1       3.408  52.795  28.298  1.00  0.00     0.179 C
HETATM   11  C9  UNL     1       2.574  55.079  28.081  1.00  0.00     0.681 A
HETATM   12  N7  UNL     1       1.842  56.051  27.517  1.00  0.00    -0.181 N
ATOM     13  H7  UNL     1       1.876  56.996  27.900  1.00  0.00     0.185 HD
BRANCH  11  14
HETATM   14  N8  UNL     1       3.312  55.393  29.118  1.00  0.00    -0.234 N
ATOM     15  H82 UNL     1       3.592  54.641  29.748  1.00  0.00     0.174 HD
ATOM     16  H81 UNL     1       3.583  56.366  29.263  1.00  0.00     0.174 HD
ENDBRANCH  11  14
ENDBRANCH   2   5
ENDBRANCH   1   2
BRANCH   1  17
HETATM   17  C6  UNL     1      -1.335  58.765  27.058  1.00  0.00     0.188 C
BRANCH  17  18
HETATM   18  O4  UNL     1      -2.162  59.188  25.994  1.00  0.00    -0.399 OA
ATOM     19  H4  UNL     1      -2.277  58.476  25.377  1.00  0.00     0.209 HD
ENDBRANCH  17  18
ENDBRANCH   1  17
BRANCH   1  20
HETATM   20  C7  UNL     1       0.463  59.675  25.664  1.00  0.00     0.213 C
HETATM   21  N2  UNL     1       0.227  60.962  26.311  1.00  0.00    -0.100 NA
HETATM   22  N3  UNL     1       0.556  61.929  25.325  1.00  0.00    -0.031 NA
HETATM   23  N4  UNL     1       1.921  61.959  25.216  1.00  0.00    -0.277 N
HETATM   24  C8  UNL     1       2.600  60.721  25.271  1.00  0.00     0.396 C
ATOM     25  H4  UNL     1       2.426  62.837  25.101  1.00  0.00     0.181 HD
HETATM   26  N6  UNL     1       1.825  59.546  25.289  1.00  0.00    -0.359 N
ATOM     27  H6  UNL     1       2.226  58.641  25.044  1.00  0.00     0.158 HD
BRANCH  24  28
HETATM   28  N5  UNL     1       3.509  60.659  24.114  1.00  0.00    -0.040 N
ATOM     29  H53 UNL     1       4.210  61.400  24.121  1.00  0.00     0.279 HD
ATOM     30  H52 UNL     1       4.151  59.867  24.156  1.00  0.00     0.279 HD
ATOM     31  H51 UNL     1       2.937  60.663  23.271  1.00  0.00     0.279 HD
ENDBRANCH  24  28
ENDBRANCH   1  20
TORSDOF 7
ENDMDL