MODEL 5
REMARK VINA RESULT: -6.249005733      1.981      7.836
REMARK  8 active torsions:
REMARK  status: ('A' for Active; 'I' for Inactive)
REMARK    1  A    between atoms: N1_1  and  C1_4
REMARK    2  A    between atoms: N6_16  and  C5_17
REMARK    3  A    between atoms: C6_21  and  O1_22
REMARK    4  A    between atoms: C7_24  and  O2_25
REMARK    5  A    between atoms: O2_25  and  N8_26
REMARK    6  A    between atoms: N8_26  and  O3_27
REMARK    7  A    between atoms: N8_26  and  N9_29
REMARK    8  A    between atoms: C9_34  and  O4_35
ROOT
HETATM    1  C5  UNL     1       0.617  57.918  25.876  1.00  0.00     0.344 C
HETATM    2  N7  UNL     1       1.106  57.358  27.123  1.00  0.00    -0.021 N
ATOM      3  H71 UNL     1       0.845  57.860  27.971  1.00  0.00     0.283 HD
ATOM      4  H72 UNL     1       2.109  57.441  27.288  1.00  0.00     0.283 HD
HETATM    5  C6  UNL     1       0.583  55.987  26.996  1.00  0.00     0.355 C
HETATM    6  C7  UNL     1       1.067  55.629  25.614  1.00  0.00     0.238 C
HETATM    7  C9  UNL     1       1.155  56.947  24.864  1.00  0.00     0.205 C
ENDROOT
BRANCH   1   8
HETATM    8  N6  UNL     1       1.052  59.271  25.666  1.00  0.00    -0.225 N
HETATM    9  C3  UNL     1       0.387  60.414  25.833  1.00  0.00     0.159 A
HETATM   10  N3  UNL     1      -0.849  60.695  26.232  1.00  0.00    -0.335 N
HETATM   11  C4  UNL     1       1.238  61.465  25.499  1.00  0.00     0.139 A
HETATM   12  C2  UNL     1      -1.250  61.992  26.304  1.00  0.00     0.183 A
ATOM     13  H3  UNL     1      -1.491  59.944  26.482  1.00  0.00     0.168 HD
HETATM   14  N2  UNL     1      -0.428  63.012  25.981  1.00  0.00    -0.337 N
HETATM   15  C1  UNL     1       0.822  62.781  25.576  1.00  0.00     0.132 A
ATOM     16  H2  UNL     1      -0.767  63.972  26.048  1.00  0.00     0.168 HD
HETATM   17  N4  UNL     1       2.384  60.902  25.143  1.00  0.00    -0.279 N
HETATM   18  N5  UNL     1       2.262  59.591  25.247  1.00  0.00    -0.236 N
ATOM     19  H4  UNL     1       3.222  61.399  24.840  1.00  0.00     0.189 HD
ATOM     20  H5  UNL     1       3.000  58.920  25.033  1.00  0.00     0.208 HD
BRANCH  15  21
HETATM   21  N1  UNL     1       1.625  63.742  25.261  1.00  0.00    -0.383 N
ATOM     22  H12 UNL     1       2.063  64.310  25.987  1.00  0.00     0.157 HD
ATOM     23  H11 UNL     1       1.847  63.962  24.290  1.00  0.00     0.157 HD
ENDBRANCH  15  21
ENDBRANCH   1   8
BRANCH   7  24
HETATM   24  O4  UNL     1       0.359  56.941  23.725  1.00  0.00    -0.389 OA
ATOM     25  H4  UNL     1       0.851  57.253  22.974  1.00  0.00     0.210 HD
ENDBRANCH   7  24
BRANCH   5  26
HETATM   26  O1  UNL     1       1.144  55.178  27.957  1.00  0.00    -0.368 OA
ATOM     27  H1  UNL     1       0.617  55.199  28.747  1.00  0.00     0.212 HD
ENDBRANCH   5  26
BRANCH   6  28
HETATM   28  O2  UNL     1       0.331  54.684  24.979  1.00  0.00    -0.248 OA
BRANCH  28  29
HETATM   29  N8  UNL     1       1.038  53.765  24.293  1.00  0.00     0.038 NA
BRANCH  29  30
HETATM   30  O3  UNL     1       1.504  54.268  23.101  1.00  0.00    -0.270 OA
ATOM     31  H3  UNL     1       2.154  53.696  22.710  1.00  0.00     0.241 HD
ENDBRANCH  29  30
BRANCH  29  32
HETATM   32  N9  UNL     1       0.145  52.745  23.942  1.00  0.00    -0.247 N
HETATM   33  C8  UNL     1       0.518  51.541  23.701  1.00  0.00     0.215 C
HETATM   34  N10 UNL     1       1.892  51.207  23.789  1.00  0.00    -0.065 NA
HETATM   35  N11 UNL     1      -0.397  50.519  23.347  1.00  0.00    -0.065 NA
ATOM     36  H9  UNL     1      -0.848  52.970  23.875  1.00  0.00     0.188 HD
ENDBRANCH  29  32
ENDBRANCH  28  29
ENDBRANCH   6  28
TORSDOF 8
ENDMDL