MODEL 4
REMARK VINA RESULT: -8.079449137      3.005      6.189
REMARK  12 active torsions:
REMARK  status: ('A' for Active; 'I' for Inactive)
REMARK    1  A    between atoms: C1_2  and  C2_4
REMARK    2  A    between atoms: C2_4  and  O2_5
REMARK    3  A    between atoms: C2_4  and  C12_18
REMARK    4  A    between atoms: O2_5  and  C3_6
REMARK    5  A    between atoms: C8_11  and  O3_12
REMARK    6  A    between atoms: C13_21  and  C14_22
REMARK    7  A    between atoms: C14_22  and  O5_23
REMARK    8  A    between atoms: C16_27  and  C17_28
REMARK    9  A    between atoms: C17_28  and  O6_29
REMARK   10  A    between atoms: C18_31  and  C19_32
REMARK   11  A    between atoms: C19_32  and  O7_33
REMARK   12  A    between atoms: C20_35  and  O8_36
ROOT
HETATM    1  C12 UNL     1      13.727 -13.181  21.436  1.00  0.00     0.187 A
HETATM    2  N2  UNL     1      13.961 -14.195  20.627  1.00  0.00    -0.322 N
ATOM      3  H2  UNL     1      14.475 -14.133  19.749  1.00  0.00     0.169 HD
HETATM    4  C13 UNL     1      13.427 -15.320  21.121  1.00  0.00     0.142 A
HETATM    5  N3  UNL     1      12.838 -14.921  22.311  1.00  0.00    -0.244 N
ATOM      6  H3  UNL     1      12.334 -15.530  22.957  1.00  0.00     0.196 HD
HETATM    7  O9  UNL     1      13.029 -13.665  22.469  1.00  0.00    -0.219 OA
ENDROOT
BRANCH   1   8
HETATM    8  C2  UNL     1      14.125 -11.753  21.323  1.00  0.00     0.294 C
BRANCH   8   9
HETATM    9  C1  UNL     1      12.872 -11.026  20.820  1.00  0.00     0.268 C
HETATM   10  N1  UNL     1      11.695 -11.058  21.574  1.00  0.00    -0.059 NA
HETATM   11  O1  UNL     1      12.970 -10.428  19.747  1.00  0.00    -0.273 OA
ENDBRANCH   8   9
BRANCH   8  12
HETATM   12  O2  UNL     1      15.113 -11.709  20.328  1.00  0.00    -0.326 OA
BRANCH  12  13
HETATM   13  C3  UNL     1      16.247 -12.462  20.244  1.00  0.00     0.106 A
HETATM   14  C4  UNL     1      16.913 -12.897  21.356  1.00  0.00     0.077 A
HETATM   15  C5  UNL     1      18.066 -13.655  21.260  1.00  0.00     0.077 A
HETATM   16  C6  UNL     1      18.596 -14.003  20.031  1.00  0.00    -0.022 A
HETATM   17  O4  UNL     1      18.683 -14.057  22.425  1.00  0.00    -0.350 OA
HETATM   18  C7  UNL     1      17.921 -13.564  18.917  1.00  0.00     0.049 A
HETATM   19  C9  UNL     1      19.892 -14.761  19.917  1.00  0.00     0.043 C
HETATM   20  C8  UNL     1      16.773 -12.812  18.991  1.00  0.00     0.099 A
HETATM   21  C10 UNL     1      20.660 -14.424  21.201  1.00  0.00     0.031 C
HETATM   22  C11 UNL     1      19.806 -14.910  22.360  1.00  0.00     0.176 C
BRANCH  20  23
HETATM   23  O3  UNL     1      16.103 -12.381  17.868  1.00  0.00    -0.358 OA
ATOM     24  H3  UNL     1      16.605 -12.260  17.071  1.00  0.00     0.217 HD
ENDBRANCH  20  23
ENDBRANCH  12  13
ENDBRANCH   8  12
ENDBRANCH   1   8
BRANCH   4  25
HETATM   25  C14 UNL     1      13.387 -16.739  20.656  1.00  0.00     0.152 C
HETATM   26  C15 UNL     1      14.598 -17.094  19.868  1.00  0.00     0.123 C
HETATM   27  S1  UNL     1      14.501 -18.928  19.654  1.00  0.00    -0.158 SA
HETATM   28  C16 UNL     1      12.760 -19.265  19.261  1.00  0.00     0.079 C
HETATM   29  C18 UNL     1      12.088 -17.991  18.885  1.00  0.00     0.057 C
HETATM   30  C20 UNL     1      12.083 -16.947  19.925  1.00  0.00     0.168 C
BRANCH  25  31
HETATM   31  O5  UNL     1      13.307 -17.553  21.809  1.00  0.00    -0.378 OA
ATOM     32  H5  UNL     1      14.172 -17.919  21.952  1.00  0.00     0.211 HD
ENDBRANCH  25  31
BRANCH  28  33
HETATM   33  C17 UNL     1      12.772 -20.166  18.019  1.00  0.00     0.179 C
BRANCH  33  34
HETATM   34  O6  UNL     1      13.588 -19.549  17.073  1.00  0.00    -0.400 OA
ATOM     35  H6  UNL     1      13.333 -19.886  16.222  1.00  0.00     0.209 HD
ENDBRANCH  33  34
ENDBRANCH  28  33
BRANCH  29  36
HETATM   36  C19 UNL     1      10.632 -18.272  18.517  1.00  0.00     0.172 C
BRANCH  36  37
HETATM   37  O7  UNL     1      10.210 -17.576  17.409  1.00  0.00    -0.400 OA
ATOM     38  H7  UNL     1       9.596 -18.063  16.874  1.00  0.00     0.209 HD
ENDBRANCH  36  37
ENDBRANCH  29  36
BRANCH  30  39
HETATM   39  O8  UNL     1      11.781 -15.721  19.283  1.00  0.00    -0.392 OA
ATOM     40  H8  UNL     1      11.891 -15.040  19.937  1.00  0.00     0.210 HD
ENDBRANCH  30  39
ENDBRANCH   4  25
TORSDOF 12
ENDMDL