MODEL 3
REMARK VINA RESULT: -7.677984124      1.712      8.261
REMARK  6 active torsions:
REMARK  status: ('A' for Active; 'I' for Inactive)
REMARK    1  A    between atoms: C2_2  and  N1_3
REMARK       I    between atoms: N1_3  and  C4_5
REMARK    2  A    between atoms: C4_5  and  C5_7
REMARK    3  A    between atoms: C5_7  and  C6_8
REMARK    4  A    between atoms: C16_21  and  O2_22
REMARK    5  A    between atoms: N3_25  and  C18_26
REMARK    6  A    between atoms: C21_29  and  N4_30
ROOT
HETATM    1  C6  UNL     1      16.144 -14.807  21.540  1.00  0.00     0.087 C
HETATM    2  C7  UNL     1      17.590 -14.683  21.829  1.00  0.00     0.018 C
HETATM    3  C8  UNL     1      17.901 -14.643  23.338  1.00  0.00     0.028 C
HETATM    4  C9  UNL     1      19.369 -14.752  23.536  1.00  0.00    -0.022 C
HETATM    5  C10 UNL     1      20.035 -15.789  23.960  1.00  0.00    -0.053 C
HETATM    6  C11 UNL     1      21.523 -15.959  24.181  1.00  0.00     0.036 C
HETATM    7  C12 UNL     1      21.531 -16.800  25.445  1.00  0.00     0.007 C
HETATM    8  C13 UNL     1      20.435 -17.781  25.220  1.00  0.00     0.038 C
HETATM    9  C14 UNL     1      19.441 -17.092  24.343  1.00  0.00     0.214 C
HETATM   10  N2  UNL     1      19.188 -17.956  23.181  1.00  0.00    -0.065 N
ATOM     11  H21 UNL     1      19.900 -18.679  23.080  1.00  0.00     0.278 HD
ATOM     12  H22 UNL     1      19.345 -17.467  22.299  1.00  0.00     0.278 HD
HETATM   13  C15 UNL     1      17.881 -18.505  23.258  1.00  0.00     0.266 C
HETATM   14  C16 UNL     1      17.158 -18.626  21.926  1.00  0.00     0.162 C
HETATM   15  C17 UNL     1      15.846 -17.897  21.942  1.00  0.00     0.165 C
HETATM   16  N3  UNL     1      15.492 -17.168  20.767  1.00  0.00    -0.315 N
HETATM   17  C28 UNL     1      15.952 -15.850  20.480  1.00  0.00     0.229 C
HETATM   18  O3  UNL     1      16.227 -15.486  19.310  1.00  0.00    -0.273 OA
ENDROOT
BRANCH  16  19
HETATM   19  C18 UNL     1      14.596 -17.784  19.822  1.00  0.00     0.037 A
HETATM   20  C19 UNL     1      15.015 -18.580  18.778  1.00  0.00     0.032 A
HETATM   21  C20 UNL     1      14.132 -19.154  17.874  1.00  0.00     0.032 A
HETATM   22  C21 UNL     1      12.758 -18.945  17.986  1.00  0.00     0.038 A
HETATM   23  C26 UNL     1      12.373 -18.149  19.037  1.00  0.00     0.032 A
HETATM   24  C27 UNL     1      13.227 -17.576  19.938  1.00  0.00     0.032 A
BRANCH  22  25
HETATM   25  N4  UNL     1      11.875 -19.524  17.044  1.00  0.00    -0.333 N
HETATM   26  C22 UNL     1      11.474 -20.780  16.957  1.00  0.00     0.096 A
HETATM   27  C23 UNL     1      10.597 -20.948  15.899  1.00  0.00     0.019 A
HETATM   28  C24 UNL     1      10.469 -19.707  15.315  1.00  0.00     0.019 A
HETATM   29  C25 UNL     1      11.282 -18.841  16.053  1.00  0.00     0.096 A
ENDBRANCH  22  25
ENDBRANCH  16  19
BRANCH  14  30
HETATM   30  O2  UNL     1      17.966 -18.402  20.854  1.00  0.00    -0.392 OA
ATOM     31  H2  UNL     1      18.217 -19.199  20.402  1.00  0.00     0.210 HD
ENDBRANCH  14  30
BRANCH   1  32
HETATM   32  C5  UNL     1      15.374 -13.564  21.287  1.00  0.00     0.117 C
BRANCH  32  33
HETATM   33  C4  UNL     1      13.991 -13.495  21.703  1.00  0.00     0.220 C
HETATM   34  N1  UNL     1      13.263 -12.291  21.872  1.00  0.00    -0.357 N
HETATM   35  C3  UNL     1      13.877 -11.004  21.641  1.00  0.00     0.152 C
HETATM   36  O1  UNL     1      13.332 -14.558  21.950  1.00  0.00    -0.273 OA
BRANCH  34  37
HETATM   37  C2  UNL     1      11.860 -12.293  22.283  1.00  0.00     0.120 C
HETATM   38  C1  UNL     1      11.687 -11.509  23.593  1.00  0.00     0.026 C
ENDBRANCH  34  37
ENDBRANCH  32  33
ENDBRANCH   1  32
TORSDOF 6
ENDMDL