MODEL 2
REMARK VINA RESULT: -7.959830806      1.373      1.913
REMARK  10 active torsions:
REMARK  status: ('A' for Active; 'I' for Inactive)
REMARK    1  A    between atoms: C2_2  and  N1_3
REMARK       I    between atoms: N1_3  and  C3_5
REMARK    2  A    between atoms: C3_5  and  C4_7
REMARK    3  A    between atoms: C4_7  and  O3_9
REMARK    4  A    between atoms: O3_9  and  C5_10
REMARK    5  A    between atoms: C7_12  and  O4_13
REMARK    6  A    between atoms: C7_12  and  C8_15
REMARK    7  A    between atoms: C9_16  and  O5_17
REMARK    8  A    between atoms: C13_25  and  N3_26
REMARK    9  A    between atoms: N3_26  and  S1_28
REMARK   10  A    between atoms: C18_35  and  O9_37
ROOT
HETATM    1  C5  UNL     1      16.848 -16.717  22.056  1.00  0.00     0.169 C
HETATM    2  C6  UNL     1      16.262 -16.525  20.680  1.00  0.00     0.074 C
HETATM    3  C7  UNL     1      14.740 -16.447  20.732  1.00  0.00     0.072 C
HETATM    4  C15 UNL     1      14.127 -17.490  21.589  1.00  0.00     0.019 C
HETATM    5  C16 UNL     1      13.449 -18.610  20.771  1.00  0.00     0.013 C
HETATM    6  C17 UNL     1      14.963 -18.110  22.655  1.00  0.00     0.047 C
HETATM    7  C18 UNL     1      16.426 -18.115  22.481  1.00  0.00     0.084 C
HETATM    8  C19 UNL     1      17.059 -18.321  23.867  1.00  0.00     0.049 C
ENDROOT
BRANCH   3   9
HETATM    9  O4  UNL     1      14.371 -16.791  19.399  1.00  0.00    -0.389 OA
ATOM     10  H4  UNL     1      15.211 -16.827  18.958  1.00  0.00     0.210 HD
ENDBRANCH   3   9
BRANCH   3  11
HETATM   11  C8  UNL     1      14.336 -15.093  21.107  1.00  0.00     0.083 C
HETATM   12  C9  UNL     1      12.977 -14.601  20.775  1.00  0.00     0.164 C
HETATM   13  C10 UNL     1      13.102 -13.189  21.328  1.00  0.00     0.022 A
HETATM   14  C11 UNL     1      12.466 -12.127  21.901  1.00  0.00     0.179 A
HETATM   15  C12 UNL     1      14.420 -12.814  21.206  1.00  0.00     0.067 A
HETATM   16  O6  UNL     1      13.350 -11.172  22.111  1.00  0.00    -0.249 OA
HETATM   17  N2  UNL     1      14.511 -11.583  21.696  1.00  0.00    -0.263 N
ATOM     18  H2  UNL     1      15.371 -11.037  21.741  1.00  0.00     0.194 HD
HETATM   19  C13 UNL     1      15.185 -13.963  20.563  1.00  0.00     0.155 C
BRANCH  12  20
HETATM   20  O5  UNL     1      12.580 -14.485  19.521  1.00  0.00    -0.390 OA
ATOM     21  H5  UNL     1      12.322 -13.644  19.162  1.00  0.00     0.210 HD
ENDBRANCH  12  20
BRANCH  19  22
HETATM   22  N3  UNL     1      15.083 -13.743  19.163  1.00  0.00    -0.309 N
ATOM     23  H3  UNL     1      14.247 -13.917  18.604  1.00  0.00     0.172 HD
BRANCH  22  24
HETATM   24  S1  UNL     1      16.571 -13.144  18.549  1.00  0.00     0.223 S
HETATM   25  C14 UNL     1      17.581 -14.496  17.940  1.00  0.00     0.185 C
HETATM   26  O7  UNL     1      16.357 -12.107  17.502  1.00  0.00    -0.206 OA
HETATM   27  O8  UNL     1      17.368 -12.550  19.697  1.00  0.00    -0.206 OA
ENDBRANCH  22  24
ENDBRANCH  19  22
ENDBRANCH   3  11
BRANCH   1  28
HETATM   28  O3  UNL     1      18.203 -16.481  22.133  1.00  0.00    -0.305 OA
BRANCH  28  29
HETATM   29  C4  UNL     1      18.838 -15.367  22.619  1.00  0.00     0.351 C
HETATM   30  O2  UNL     1      18.479 -14.952  23.744  1.00  0.00    -0.254 OA
BRANCH  29  31
HETATM   31  C3  UNL     1      19.890 -14.644  21.925  1.00  0.00     0.317 C
HETATM   32  N1  UNL     1      19.627 -13.763  20.854  1.00  0.00    -0.353 N
ATOM     33  H1  UNL     1      18.658 -13.633  20.562  1.00  0.00     0.162 HD
HETATM   34  O1  UNL     1      21.080 -14.803  22.283  1.00  0.00    -0.262 OA
BRANCH  32  35
HETATM   35  C2  UNL     1      20.644 -13.042  20.157  1.00  0.00     0.118 C
HETATM   36  C1  UNL     1      20.555 -13.194  18.662  1.00  0.00     0.026 C
ENDBRANCH  32  35
ENDBRANCH  29  31
ENDBRANCH  28  29
ENDBRANCH   1  28
BRANCH   7  37
HETATM   37  O9  UNL     1      16.925 -19.032  21.608  1.00  0.00    -0.383 OA
HETATM   38  C20 UNL     1      16.722 -20.343  21.907  1.00  0.00     0.202 C
ENDBRANCH   7  37
TORSDOF 10
ENDMDL