MODEL 5
REMARK VINA RESULT: -7.283113674      2.507      6.803
REMARK  4 active torsions:
REMARK  status: ('A' for Active; 'I' for Inactive)
REMARK    1  A    between atoms: C5_5  and  C6_6
REMARK    2  A    between atoms: C9_10  and  C10_11
REMARK    3  A    between atoms: C10_11  and  C11_12
REMARK    4  A    between atoms: C18_28  and  O7_29
ROOT
HETATM    1  C6  UNL     1      15.938 -17.237  21.779  1.00  0.00     0.065 C
HETATM    2  C7  UNL     1      16.507 -16.115  21.395  1.00  0.00     0.048 C
HETATM    3  C8  UNL     1      15.908 -15.277  20.355  1.00  0.00     0.174 C
HETATM    4  O1  UNL     1      15.564 -15.869  19.263  1.00  0.00    -0.292 OA
HETATM    5  C9  UNL     1      15.727 -13.810  20.577  1.00  0.00     0.162 C
HETATM    6  C12 UNL     1      17.140 -13.357  20.821  1.00  0.00     0.231 C
HETATM    7  O4  UNL     1      17.559 -12.326  20.269  1.00  0.00    -0.273 OA
HETATM    8  N1  UNL     1      17.918 -14.138  21.670  1.00  0.00    -0.335 N
ATOM      9  H1  UNL     1      18.697 -13.662  22.125  1.00  0.00     0.164 HD
HETATM   10  C13 UNL     1      17.761 -15.545  21.990  1.00  0.00     0.225 C
HETATM   11  N2  UNL     1      17.791 -15.593  23.429  1.00  0.00    -0.333 N
ATOM     12  H2  UNL     1      16.940 -15.758  23.968  1.00  0.00     0.165 HD
HETATM   13  C14 UNL     1      19.048 -15.405  24.076  1.00  0.00     0.248 C
HETATM   14  O5  UNL     1      19.136 -14.813  25.177  1.00  0.00    -0.271 OA
HETATM   15  C15 UNL     1      20.320 -15.912  23.458  1.00  0.00     0.209 C
HETATM   16  C16 UNL     1      21.507 -15.192  24.090  1.00  0.00     0.049 C
HETATM   17  O6  UNL     1      20.413 -17.303  23.633  1.00  0.00    -0.374 OA
HETATM   18  C17 UNL     1      20.805 -17.972  22.484  1.00  0.00     0.202 C
HETATM   19  C18 UNL     1      20.105 -19.295  22.286  1.00  0.00     0.159 C
HETATM   20  C19 UNL     1      18.666 -19.127  21.795  1.00  0.00     0.156 C
HETATM   21  N3  UNL     1      17.843 -18.635  22.846  1.00  0.00    -0.354 N
ATOM     22  H3  UNL     1      18.264 -18.670  23.774  1.00  0.00     0.162 HD
HETATM   23  C20 UNL     1      16.542 -18.109  22.805  1.00  0.00     0.253 C
HETATM   24  O8  UNL     1      15.796 -18.442  23.804  1.00  0.00    -0.268 OA
ENDROOT
BRANCH   1  25
HETATM   25  C5  UNL     1      14.663 -17.692  21.204  1.00  0.00     0.052 A
HETATM   26  C4  UNL     1      13.504 -17.055  21.216  1.00  0.00     0.023 A
HETATM   27  C3  UNL     1      12.392 -17.648  20.604  1.00  0.00     0.018 A
HETATM   28  C2  UNL     1      12.544 -18.813  20.033  1.00  0.00     0.010 A
HETATM   29  C1  UNL     1      11.590 -19.693  19.322  1.00  0.00     0.059 C
HETATM   30  S1  UNL     1      14.286 -19.131  20.201  1.00  0.00     0.081 S
HETATM   31  O9  UNL     1      14.824 -18.696  18.794  1.00  0.00    -0.247 OA
ENDBRANCH   1  25
BRANCH   5  32
HETATM   32  C10 UNL     1      15.089 -13.168  19.399  1.00  0.00     0.135 C
BRANCH  32  33
HETATM   33  C11 UNL     1      13.683 -12.832  19.683  1.00  0.00     0.173 C
HETATM   34  O2  UNL     1      13.311 -11.658  19.909  1.00  0.00    -0.648 OA
HETATM   35  O3  UNL     1      12.743 -13.887  19.692  1.00  0.00    -0.648 OA
ENDBRANCH  32  33
ENDBRANCH   5  32
BRANCH  19  36
HETATM   36  O7  UNL     1      20.813 -20.195  21.524  1.00  0.00    -0.392 OA
ATOM     37  H7  UNL     1      21.444 -20.707  22.016  1.00  0.00     0.210 HD
ENDBRANCH  19  36
TORSDOF 4
ENDMDL