MODEL 4
REMARK VINA RESULT: -8.398617388      2.731      6.345
REMARK  5 active torsions:
REMARK  status: ('A' for Active; 'I' for Inactive)
REMARK    1  A    between atoms: C2_2  and  N1_4
REMARK    2  A    between atoms: C6_11  and  C7_12
REMARK    3  A    between atoms: C17_24  and  C18_25
REMARK    4  A    between atoms: C18_25  and  N4_26
REMARK       I    between atoms: N4_26  and  C19_28
REMARK    5  A    between atoms: C19_28  and  C20_30
ROOT
HETATM    1  N1  UNL     1      21.801 -17.746  24.449  1.00  0.00    -0.289 N
HETATM    2  C4  UNL     1      20.835 -18.703  23.961  1.00  0.00     0.254 C
HETATM    3  O1  UNL     1      21.172 -19.306  22.905  1.00  0.00    -0.271 OA
HETATM    4  C5  UNL     1      19.528 -19.017  24.590  1.00  0.00     0.336 C
HETATM    5  N2  UNL     1      18.719 -19.703  23.636  1.00  0.00    -0.060 N
ATOM      6  H21 UNL     1      18.467 -20.629  23.980  1.00  0.00     0.278 HD
ATOM      7  H22 UNL     1      19.272 -19.966  22.820  1.00  0.00     0.278 HD
HETATM    8  C6  UNL     1      17.518 -18.958  23.227  1.00  0.00     0.220 C
HETATM    9  C13 UNL     1      17.716 -18.355  21.883  1.00  0.00     0.062 C
HETATM   10  C14 UNL     1      17.170 -17.013  21.663  1.00  0.00    -0.028 C
HETATM   11  C15 UNL     1      17.418 -15.879  22.251  1.00  0.00    -0.030 C
HETATM   12  C16 UNL     1      18.346 -15.558  23.352  1.00  0.00     0.038 C
HETATM   13  C17 UNL     1      19.811 -15.748  23.034  1.00  0.00     0.042 C
HETATM   14  C23 UNL     1      20.580 -15.548  24.288  1.00  0.00    -0.025 A
HETATM   15  C24 UNL     1      20.373 -14.285  24.850  1.00  0.00     0.010 A
HETATM   16  C25 UNL     1      20.993 -13.872  26.018  1.00  0.00     0.001 A
HETATM   17  C26 UNL     1      21.846 -14.754  26.635  1.00  0.00     0.002 A
HETATM   18  C27 UNL     1      22.047 -16.010  26.065  1.00  0.00     0.030 A
HETATM   19  C28 UNL     1      21.430 -16.428  24.900  1.00  0.00     0.048 A
ENDROOT
BRANCH   8  20
HETATM   20  C7  UNL     1      16.410 -20.031  23.170  1.00  0.00     0.169 C
HETATM   21  C8  UNL     1      15.404 -19.857  24.242  1.00  0.00     0.150 C
HETATM   22  N3  UNL     1      14.787 -21.032  24.737  1.00  0.00    -0.408 N
HETATM   23  C9  UNL     1      14.755 -21.173  26.155  1.00  0.00     0.143 C
HETATM   24  C10 UNL     1      14.950 -22.223  24.000  1.00  0.00     0.098 C
HETATM   25  C11 UNL     1      13.565 -22.702  23.560  1.00  0.00     0.034 C
HETATM   26  C12 UNL     1      15.916 -22.186  22.870  1.00  0.00     0.192 C
HETATM   27  O2  UNL     1      16.962 -21.297  23.205  1.00  0.00    -0.380 OA
ENDBRANCH   8  20
BRANCH   1  28
HETATM   28  C2  UNL     1      23.213 -18.129  24.390  1.00  0.00    -0.010 C
HETATM   29  C1  UNL     1      24.164 -17.064  24.019  1.00  0.00     0.063 C
HETATM   30  C3  UNL     1      23.673 -19.036  25.520  1.00  0.00     0.063 C
ENDBRANCH   1  28
BRANCH  13  31
HETATM   31  C18 UNL     1      20.117 -14.614  22.035  1.00  0.00     0.132 C
BRANCH  31  32
HETATM   32  N4  UNL     1      20.020 -15.027  20.677  1.00  0.00    -0.360 N
HETATM   33  C19 UNL     1      20.142 -14.072  19.653  1.00  0.00     0.221 C
HETATM   34  O3  UNL     1      20.331 -12.860  19.900  1.00  0.00    -0.273 OA
ATOM     35  H4  UNL     1      19.865 -16.008  20.448  1.00  0.00     0.162 HD
BRANCH  33  36
HETATM   36  C20 UNL     1      20.044 -14.497  18.239  1.00  0.00     0.078 A
HETATM   37  C21 UNL     1      18.786 -14.032  17.552  1.00  0.00     0.015 A
HETATM   38  C22 UNL     1      20.091 -13.528  17.124  1.00  0.00     0.015 A
ENDBRANCH  33  36
ENDBRANCH  31  32
ENDBRANCH  13  31
TORSDOF 5
ENDMDL