MODEL 1
REMARK VINA RESULT: -8.409040113      0.000      0.000
REMARK  10 active torsions:
REMARK  status: ('A' for Active; 'I' for Inactive)
REMARK    1  A    between atoms: C3_4  and  N1_5
REMARK    2  A    between atoms: C3_4  and  C13_23
REMARK       I    between atoms: N1_5  and  C4_7
REMARK    3  A    between atoms: C4_7  and  C5_9
REMARK       I    between atoms: C5_9  and  N2_11
REMARK    4  A    between atoms: N2_11  and  C6_13
REMARK    5  A    between atoms: C12_20  and  O5_21
REMARK    6  A    between atoms: C13_23  and  O7_25
REMARK    7  A    between atoms: O7_25  and  C14_26
REMARK    8  A    between atoms: C14_26  and  C15_27
REMARK    9  A    between atoms: C15_27  and  O8_28
REMARK   10  A    between atoms: C15_27  and  C16_30
ROOT
HETATM    1  O1  UNL     1      12.753 -10.858  22.855  1.00  0.00    -0.273 OA
HETATM    2  C1  UNL     1      12.811 -11.686  21.921  1.00  0.00     0.227 C
HETATM    3  C2  UNL     1      12.665 -13.150  21.954  1.00  0.00     0.155 C
HETATM    4  C3  UNL     1      13.349 -13.656  20.731  1.00  0.00     0.211 C
HETATM    5  C20 UNL     1      13.333 -12.501  19.811  1.00  0.00     0.263 C
HETATM    6  O9  UNL     1      13.531 -12.482  18.561  1.00  0.00    -0.270 OA
HETATM    7  N3  UNL     1      13.046 -11.330  20.564  1.00  0.00    -0.295 N
ATOM      8  H3  UNL     1      13.014 -10.382  20.189  1.00  0.00     0.171 HD
ENDROOT
BRANCH   4   9
HETATM    9  N1  UNL     1      12.688 -14.761  20.091  1.00  0.00    -0.326 N
HETATM   10  C4  UNL     1      12.582 -16.052  20.647  1.00  0.00     0.310 C
HETATM   11  O2  UNL     1      13.089 -16.272  21.774  1.00  0.00    -0.262 OA
ATOM     12  H1  UNL     1      12.269 -14.600  19.175  1.00  0.00     0.164 HD
BRANCH  10  13
HETATM   13  C5  UNL     1      11.910 -17.133  19.964  1.00  0.00     0.309 C
HETATM   14  O3  UNL     1      11.464 -18.098  20.629  1.00  0.00    -0.262 OA
HETATM   15  N2  UNL     1      11.743 -17.131  18.555  1.00  0.00    -0.346 N
ATOM     16  H2  UNL     1      12.104 -16.349  18.009  1.00  0.00     0.163 HD
BRANCH  15  17
HETATM   17  C6  UNL     1      11.069 -18.219  17.878  1.00  0.00     0.118 C
HETATM   18  C7  UNL     1      11.978 -19.395  17.812  1.00  0.00     0.059 C
HETATM   19  C8  UNL     1      11.910 -20.193  16.568  1.00  0.00     0.124 C
HETATM   20  C9  UNL     1      13.064 -19.742  15.662  1.00  0.00     0.034 C
HETATM   21  O4  UNL     1      10.821 -19.913  15.755  1.00  0.00    -0.378 OA
HETATM   22  C10 UNL     1      12.501 -18.397  15.183  1.00  0.00     0.037 C
HETATM   23  C11 UNL     1      11.034 -18.592  15.393  1.00  0.00     0.152 C
HETATM   24  C12 UNL     1      10.588 -17.727  16.542  1.00  0.00     0.169 C
BRANCH  24  25
HETATM   25  O5  UNL     1       9.191 -17.669  16.490  1.00  0.00    -0.391 OA
ATOM     26  H5  UNL     1       8.826 -17.333  17.301  1.00  0.00     0.210 HD
ENDBRANCH  24  25
ENDBRANCH  15  17
ENDBRANCH  10  13
ENDBRANCH   4   9
BRANCH   4  27
HETATM   27  C13 UNL     1      14.802 -13.973  20.972  1.00  0.00     0.297 C
HETATM   28  O6  UNL     1      15.342 -13.692  22.071  1.00  0.00    -0.262 OA
BRANCH  27  29
HETATM   29  O7  UNL     1      15.571 -14.577  19.998  1.00  0.00    -0.316 OA
BRANCH  29  30
HETATM   30  C14 UNL     1      16.834 -14.144  19.577  1.00  0.00     0.215 C
BRANCH  30  31
HETATM   31  C15 UNL     1      16.868 -13.742  18.120  1.00  0.00     0.176 C
BRANCH  31  32
HETATM   32  O8  UNL     1      16.235 -12.519  17.918  1.00  0.00    -0.389 OA
ATOM     33  H8  UNL     1      16.740 -11.960  17.339  1.00  0.00     0.210 HD
ENDBRANCH  31  32
BRANCH  31  34
HETATM   34  C16 UNL     1      18.313 -13.535  17.701  1.00  0.00    -0.021 A
HETATM   35  C17 UNL     1      19.316 -13.476  18.583  1.00  0.00     0.017 A
HETATM   36  C18 UNL     1      20.580 -13.280  18.087  1.00  0.00     0.050 A
HETATM   37  S1  UNL     1      20.318 -13.185  16.405  1.00  0.00    -0.113 SA
HETATM   38  C19 UNL     1      18.624 -13.396  16.378  1.00  0.00     0.059 A
ENDBRANCH  31  34
ENDBRANCH  30  31
ENDBRANCH  29  30
ENDBRANCH  27  29
ENDBRANCH   4  27
TORSDOF 10
ENDMDL