MODEL 1
REMARK VINA RESULT: -8.024976298      0.000      0.000
REMARK  12 active torsions:
REMARK  status: ('A' for Active; 'I' for Inactive)
REMARK    1  A    between atoms: O1_2  and  C2_3
REMARK    2  A    between atoms: C2_3  and  C3_5
REMARK    3  A    between atoms: C3_5  and  O3_6
REMARK    4  A    between atoms: O3_6  and  C4_7
REMARK    5  A    between atoms: C4_7  and  C5_9
REMARK    6  A    between atoms: C7_11  and  C8_12
REMARK    7  A    between atoms: C12_19  and  C13_20
REMARK    8  A    between atoms: C14_23  and  O9_24
REMARK    9  A    between atoms: C16_29  and  C17_30
REMARK   10  A    between atoms: C17_30  and  C18_31
REMARK   11  A    between atoms: C18_31  and  C19_33
REMARK   12  A    between atoms: C19_33  and  N3_35
ROOT
HETATM    1  C5  UNL     1      15.276 -13.657  20.638  1.00  0.00     0.075 C
HETATM    2  C6  UNL     1      15.310 -14.973  20.677  1.00  0.00     0.002 C
HETATM    3  C7  UNL     1      16.192 -15.982  20.186  1.00  0.00     0.013 C
HETATM    4  S1  UNL     1      15.510 -17.448  19.474  1.00  0.00    -0.111 SA
HETATM    5  C12 UNL     1      14.078 -17.870  20.591  1.00  0.00     0.184 C
HETATM    6  C14 UNL     1      14.010 -16.816  21.629  1.00  0.00     0.169 C
HETATM    7  C15 UNL     1      13.950 -15.399  21.188  1.00  0.00     0.148 C
HETATM    8  N1  UNL     1      13.681 -14.392  22.115  1.00  0.00    -0.378 N
ATOM      9  H1  UNL     1      13.209 -14.500  23.013  1.00  0.00     0.160 HD
HETATM   10  C16 UNL     1      14.207 -13.157  21.550  1.00  0.00     0.047 C
ENDROOT
BRANCH   1  11
HETATM   11  C4  UNL     1      16.309 -12.867  19.946  1.00  0.00     0.296 C
HETATM   12  O4  UNL     1      17.256 -12.224  20.325  1.00  0.00    -0.259 OA
BRANCH  11  13
HETATM   13  O3  UNL     1      16.199 -12.846  18.486  1.00  0.00    -0.307 OA
BRANCH  13  14
HETATM   14  C3  UNL     1      17.346 -13.329  17.784  1.00  0.00     0.290 C
BRANCH  14  15
HETATM   15  C2  UNL     1      17.755 -12.438  16.696  1.00  0.00     0.282 C
HETATM   16  O2  UNL     1      16.929 -11.480  16.427  1.00  0.00    -0.263 OA
BRANCH  15  17
HETATM   17  O1  UNL     1      18.875 -12.465  15.921  1.00  0.00    -0.325 OA
HETATM   18  C1  UNL     1      20.120 -13.002  16.314  1.00  0.00     0.213 C
ENDBRANCH  15  17
ENDBRANCH  14  15
ENDBRANCH  13  14
ENDBRANCH  11  13
ENDBRANCH   1  11
BRANCH  10  19
HETATM   19  C17 UNL     1      13.860 -11.937  21.847  1.00  0.00     0.058 C
BRANCH  19  20
HETATM   20  C18 UNL     1      12.478 -11.589  22.028  1.00  0.00     0.070 C
HETATM   21  N2  UNL     1      11.785 -10.747  21.040  1.00  0.00    -0.100 NA
BRANCH  20  22
HETATM   22  C19 UNL     1      11.732 -11.784  23.085  1.00  0.00     0.023 C
HETATM   23  C20 UNL     1      11.754 -10.726  24.172  1.00  0.00     0.069 C
BRANCH  22  24
HETATM   24  N3  UNL     1      10.884 -12.843  23.300  1.00  0.00    -0.401 N
ATOM     25  H32 UNL     1      10.648 -13.396  22.476  1.00  0.00     0.156 HD
ATOM     26  H31 UNL     1      10.502 -13.139  24.199  1.00  0.00     0.156 HD
ENDBRANCH  22  24
ENDBRANCH  20  22
ENDBRANCH  19  20
ENDBRANCH  10  19
BRANCH   3  27
HETATM   27  C8  UNL     1      17.544 -15.888  20.331  1.00  0.00     0.053 C
HETATM   28  C9  UNL     1      17.999 -15.805  21.627  1.00  0.00     0.074 C
HETATM   29  C10 UNL     1      19.544 -15.721  21.552  1.00  0.00     0.235 C
HETATM   30  O6  UNL     1      18.042 -15.741  22.958  1.00  0.00    -0.328 OA
HETATM   31  O5  UNL     1      20.086 -15.636  22.781  1.00  0.00    -0.360 OA
HETATM   32  C11 UNL     1      19.028 -14.992  23.564  1.00  0.00     0.345 C
ENDBRANCH   3  27
BRANCH   6  33
HETATM   33  O9  UNL     1      15.183 -16.962  22.394  1.00  0.00    -0.391 OA
ATOM     34  H9  UNL     1      15.006 -16.527  23.219  1.00  0.00     0.210 HD
ENDBRANCH   6  33
BRANCH   5  35
HETATM   35  C13 UNL     1      12.869 -17.897  19.777  1.00  0.00     0.190 C
HETATM   36  O7  UNL     1      12.901 -18.173  18.547  1.00  0.00    -0.647 OA
HETATM   37  O8  UNL     1      11.616 -17.624  20.302  1.00  0.00    -0.647 OA
ENDBRANCH   5  35
TORSDOF 12
ENDMDL