MODEL 4
REMARK VINA RESULT: -7.880971377      2.336      3.997
REMARK  8 active torsions:
REMARK  status: ('A' for Active; 'I' for Inactive)
REMARK    1  A    between atoms: C2_2  and  O1_3
REMARK    2  A    between atoms: O1_3  and  C3_4
REMARK    3  A    between atoms: C3_4  and  C4_6
REMARK    4  A    between atoms: C5_7  and  C6_8
REMARK    5  A    between atoms: C13_22  and  N3_23
REMARK       I    between atoms: N3_23  and  C14_25
REMARK    6  A    between atoms: C14_25  and  C15_27
REMARK    7  A    between atoms: C16_28  and  O6_29
REMARK    8  A    between atoms: C19_35  and  O9_36
ROOT
HETATM    1  C4  UNL     1      19.281 -17.848  24.310  1.00  0.00     0.061 C
HETATM    2  C5  UNL     1      18.828 -19.001  24.757  1.00  0.00     0.069 C
HETATM    3  O3  UNL     1      19.186 -20.244  24.143  1.00  0.00    -0.287 OA
HETATM    4  C8  UNL     1      20.027 -20.263  23.058  1.00  0.00     0.243 C
HETATM    5  F1  UNL     1      20.418 -21.398  22.426  1.00  0.00    -0.177 F
HETATM    6  C9  UNL     1      20.520 -19.105  22.558  1.00  0.00     0.088 C
HETATM    7  C10 UNL     1      21.414 -19.146  21.401  1.00  0.00     0.258 C
HETATM    8  O4  UNL     1      22.242 -20.032  21.259  1.00  0.00    -0.267 OA
HETATM    9  N1  UNL     1      21.179 -18.028  20.485  1.00  0.00    -0.316 N
ATOM     10  H1  UNL     1      21.714 -17.952  19.620  1.00  0.00     0.169 HD
HETATM   11  C11 UNL     1      20.213 -17.063  20.806  1.00  0.00     0.099 C
HETATM   12  C12 UNL     1      19.523 -17.029  21.913  1.00  0.00     0.055 C
HETATM   13  N2  UNL     1      18.574 -16.012  21.986  1.00  0.00    -0.360 N
ATOM     14  H2  UNL     1      17.762 -16.080  22.600  1.00  0.00     0.162 HD
HETATM   15  C13 UNL     1      18.797 -14.856  21.147  1.00  0.00     0.255 C
HETATM   16  S1  UNL     1      19.686 -15.672  19.790  1.00  0.00    -0.064 SA
HETATM   17  C20 UNL     1      20.087 -17.831  23.079  1.00  0.00     0.123 C
ENDROOT
BRANCH  15  18
HETATM   18  N3  UNL     1      17.563 -14.347  20.583  1.00  0.00    -0.330 N
HETATM   19  C14 UNL     1      16.411 -14.069  21.330  1.00  0.00     0.229 C
HETATM   20  O5  UNL     1      16.415 -14.261  22.569  1.00  0.00    -0.273 OA
ATOM     21  H3  UNL     1      17.531 -14.181  19.577  1.00  0.00     0.165 HD
BRANCH  19  22
HETATM   22  C15 UNL     1      15.199 -13.555  20.692  1.00  0.00     0.147 C
HETATM   23  C16 UNL     1      14.916 -12.120  20.996  1.00  0.00     0.158 C
HETATM   24  C17 UNL     1      13.639 -11.661  20.381  1.00  0.00     0.211 C
HETATM   25  O7  UNL     1      12.898 -12.660  19.726  1.00  0.00    -0.317 OA
HETATM   26  C18 UNL     1      12.905 -13.976  20.161  1.00  0.00     0.288 C
HETATM   27  O8  UNL     1      12.085 -14.847  19.788  1.00  0.00    -0.262 OA
HETATM   28  C19 UNL     1      13.964 -14.354  21.133  1.00  0.00     0.233 C
BRANCH  23  29
HETATM   29  O6  UNL     1      15.958 -11.307  20.531  1.00  0.00    -0.392 OA
ATOM     30  H6  UNL     1      16.771 -11.798  20.498  1.00  0.00     0.210 HD
ENDBRANCH  23  29
BRANCH  28  31
HETATM   31  O9  UNL     1      13.527 -13.845  22.373  1.00  0.00    -0.385 OA
ATOM     32  H9  UNL     1      13.873 -14.400  23.062  1.00  0.00     0.210 HD
ENDBRANCH  28  31
ENDBRANCH  19  22
ENDBRANCH  15  18
BRANCH   1  33
HETATM   33  C3  UNL     1      18.972 -16.577  24.928  1.00  0.00     0.292 C
HETATM   34  O2  UNL     1      17.821 -16.096  24.897  1.00  0.00    -0.259 OA
BRANCH  33  35
HETATM   35  O1  UNL     1      19.894 -15.784  25.617  1.00  0.00    -0.318 OA
BRANCH  35  36
HETATM   36  C2  UNL     1      20.314 -14.527  25.123  1.00  0.00     0.174 C
HETATM   37  C1  UNL     1      21.073 -13.750  26.150  1.00  0.00     0.034 C
ENDBRANCH  35  36
ENDBRANCH  33  35
ENDBRANCH   1  33
BRANCH   2  38
HETATM   38  C6  UNL     1      17.939 -19.121  25.932  1.00  0.00     0.061 C
HETATM   39  C7  UNL     1      16.726 -20.003  25.669  1.00  0.00     0.012 C
ENDBRANCH   2  38
TORSDOF 8
ENDMDL