MODEL 5
REMARK VINA RESULT: -7.501659360      3.163      7.197
REMARK  11 active torsions:
REMARK  status: ('A' for Active; 'I' for Inactive)
REMARK    1  A    between atoms: C2_2  and  N1_3
REMARK    2  A    between atoms: N1_3  and  C3_6
REMARK    3  A    between atoms: C3_6  and  C4_7
REMARK    4  A    between atoms: C3_6  and  C26_39
REMARK    5  A    between atoms: C4_7  and  N2_8
REMARK    6  A    between atoms: N2_8  and  C5_10
REMARK    7  A    between atoms: C5_10  and  O1_11
REMARK    8  A    between atoms: C5_10  and  C6_13
REMARK    9  A    between atoms: C11_20  and  C12_21
REMARK       I    between atoms: C12_21  and  N4_23
REMARK   10  A    between atoms: N4_23  and  C13_25
REMARK   11  A    between atoms: C23_35  and  C24_36
ROOT
HETATM    1  C6  UNL     1      12.443 -16.757  20.094  1.00  0.00     0.027 A
HETATM    2  C7  UNL     1      11.453 -16.702  19.097  1.00  0.00     0.033 A
HETATM    3  C8  UNL     1      10.896 -17.840  18.617  1.00  0.00     0.091 A
HETATM    4  N3  UNL     1      11.282 -19.023  19.082  1.00  0.00    -0.346 N
ATOM      5  H3  UNL     1      10.856 -19.873  18.714  1.00  0.00     0.167 HD
HETATM    6  C9  UNL     1      12.242 -19.113  20.050  1.00  0.00     0.156 A
HETATM    7  C10 UNL     1      12.849 -18.004  20.584  1.00  0.00     0.025 A
HETATM    8  C11 UNL     1      13.922 -18.086  21.613  1.00  0.00     0.147 A
HETATM    9  C21 UNL     1      14.186 -19.491  21.992  1.00  0.00    -0.036 A
HETATM   10  C22 UNL     1      15.177 -19.786  23.096  1.00  0.00     0.047 C
HETATM   11  C23 UNL     1      13.573 -20.504  21.454  1.00  0.00     0.058 A
HETATM   12  O3  UNL     1      12.599 -20.385  20.483  1.00  0.00    -0.297 OA
ENDROOT
BRANCH   1  13
HETATM   13  C5  UNL     1      12.926 -15.496  20.554  1.00  0.00     0.147 C
BRANCH  13  14
HETATM   14  N2  UNL     1      12.653 -14.753  21.690  1.00  0.00    -0.368 N
ATOM     15  H2  UNL     1      13.105 -14.994  22.572  1.00  0.00     0.161 HD
BRANCH  14  16
HETATM   16  C4  UNL     1      11.715 -13.617  21.639  1.00  0.00     0.155 C
BRANCH  16  17
HETATM   17  C3  UNL     1      12.358 -12.334  22.065  1.00  0.00     0.207 C
BRANCH  17  18
HETATM   18  N1  UNL     1      11.421 -11.348  22.566  1.00  0.00    -0.069 N
ATOM     19  H12 UNL     1      10.454 -11.608  22.374  1.00  0.00     0.277 HD
ATOM     20  H11 UNL     1      11.453 -10.482  22.028  1.00  0.00     0.277 HD
BRANCH  18  21
HETATM   21  C2  UNL     1      11.651 -11.116  23.982  1.00  0.00     0.228 C
HETATM   22  C1  UNL     1      11.806  -9.667  24.328  1.00  0.00     0.034 C
ENDBRANCH  18  21
ENDBRANCH  17  18
BRANCH  17  23
HETATM   23  C26 UNL     1      13.259 -11.746  20.996  1.00  0.00     0.018 A
HETATM   24  C27 UNL     1      14.046 -10.555  21.448  1.00  0.00     0.007 A
HETATM   25  C28 UNL     1      14.744 -11.856  21.117  1.00  0.00     0.007 A
ENDBRANCH  17  23
ENDBRANCH  16  17
ENDBRANCH  14  16
ENDBRANCH  13  14
BRANCH  13  26
HETATM   26  O1  UNL     1      13.788 -14.933  19.744  1.00  0.00    -0.346 OA
ATOM     27  H1  UNL     1      14.669 -15.282  19.814  1.00  0.00     0.219 HD
ENDBRANCH  13  26
ENDBRANCH   1  13
BRANCH   8  28
HETATM   28  C12 UNL     1      15.208 -17.589  21.012  1.00  0.00     0.231 C
HETATM   29  O2  UNL     1      15.602 -18.183  19.948  1.00  0.00    -0.272 OA
HETATM   30  N4  UNL     1      16.005 -16.557  21.490  1.00  0.00    -0.356 N
ATOM     31  H4  UNL     1      15.701 -16.070  22.333  1.00  0.00     0.162 HD
BRANCH  30  32
HETATM   32  C13 UNL     1      17.248 -16.124  20.864  1.00  0.00     0.084 C
HETATM   33  C14 UNL     1      18.409 -16.642  21.652  1.00  0.00     0.025 C
HETATM   34  C15 UNL     1      19.758 -16.358  21.111  1.00  0.00     0.002 C
HETATM   35  C16 UNL     1      19.791 -15.826  19.707  1.00  0.00     0.000 C
HETATM   36  C17 UNL     1      19.573 -14.335  19.763  1.00  0.00     0.004 C
HETATM   37  C18 UNL     1      18.609 -14.009  20.887  1.00  0.00    -0.017 C
HETATM   38  C19 UNL     1      18.407 -12.501  20.868  1.00  0.00     0.010 C
HETATM   39  C20 UNL     1      17.299 -14.676  20.536  1.00  0.00     0.029 C
ENDBRANCH  30  32
ENDBRANCH   8  28
BRANCH  11  40
HETATM   40  C24 UNL     1      13.858 -21.935  21.843  1.00  0.00     0.061 C
HETATM   41  C25 UNL     1      12.602 -22.493  22.439  1.00  0.00     0.012 C
ENDBRANCH  11  40
TORSDOF 11
ENDMDL