MODEL 5
REMARK VINA RESULT: -7.107723720      2.806      3.763
REMARK  14 active torsions:
REMARK  status: ('A' for Active; 'I' for Inactive)
REMARK    1  A    between atoms: C3_5  and  C4_6
REMARK    2  A    between atoms: C4_6  and  C5_7
REMARK    3  A    between atoms: C5_7  and  O1_8
REMARK    4  A    between atoms: C11_15  and  O2_16
REMARK    5  A    between atoms: C12_18  and  O3_19
REMARK    6  A    between atoms: C12_18  and  N2_21
REMARK       I    between atoms: N2_21  and  C13_23
REMARK    7  A    between atoms: C13_23  and  O5_25
REMARK    8  A    between atoms: O5_25  and  S1_26
REMARK    9  A    between atoms: S1_26  and  O6_27
REMARK   10  A    between atoms: C16_31  and  O7_32
REMARK   11  A    between atoms: O7_32  and  C17_33
REMARK   12  A    between atoms: C17_33  and  C19_35
REMARK   13  A    between atoms: C19_35  and  O8_36
REMARK   14  A    between atoms: O8_36  and  C20_37
ROOT
HETATM    1  C5  UNL     1      15.505 -14.294  21.304  1.00  0.00     0.119 C
HETATM    2  C6  UNL     1      15.861 -12.972  20.655  1.00  0.00     0.055 C
HETATM    3  C7  UNL     1      15.710 -12.927  19.186  1.00  0.00     0.010 C
HETATM    4  C8  UNL     1      14.346 -12.750  18.644  1.00  0.00     0.001 C
HETATM    5  C9  UNL     1      13.265 -12.532  19.655  1.00  0.00     0.012 C
HETATM    6  C10 UNL     1      13.590 -12.903  21.055  1.00  0.00     0.073 C
HETATM    7  C11 UNL     1      14.864 -12.092  21.384  1.00  0.00     0.134 C
HETATM    8  C12 UNL     1      14.037 -14.367  21.217  1.00  0.00     0.173 C
ENDROOT
BRANCH   1   9
HETATM    9  C4  UNL     1      16.315 -15.434  20.851  1.00  0.00     0.100 C
BRANCH   9  10
HETATM   10  C3  UNL     1      17.593 -15.544  21.543  1.00  0.00     0.012 A
HETATM   11  N1  UNL     1      17.796 -16.178  22.701  1.00  0.00    -0.361 N
HETATM   12  C2  UNL     1      18.993 -16.255  23.307  1.00  0.00     0.039 A
ATOM     13  H1  UNL     1      16.999 -16.627  23.151  1.00  0.00     0.165 HD
HETATM   14  C1  UNL     1      19.151 -16.975  24.594  1.00  0.00     0.071 C
HETATM   15  C16 UNL     1      20.145 -15.669  22.768  1.00  0.00     0.091 A
HETATM   16  C15 UNL     1      19.960 -15.009  21.574  1.00  0.00     0.040 A
HETATM   17  C14 UNL     1      18.717 -14.941  20.964  1.00  0.00     0.028 A
BRANCH  15  18
HETATM   18  O7  UNL     1      21.355 -15.753  23.391  1.00  0.00    -0.342 OA
BRANCH  18  19
HETATM   19  C17 UNL     1      22.089 -14.723  23.996  1.00  0.00     0.149 C
HETATM   20  C18 UNL     1      21.841 -14.739  25.516  1.00  0.00     0.042 C
BRANCH  19  21
HETATM   21  C19 UNL     1      23.572 -15.032  23.844  1.00  0.00     0.212 C
BRANCH  21  22
HETATM   22  O8  UNL     1      23.808 -16.410  23.877  1.00  0.00    -0.304 OA
BRANCH  22  23
HETATM   23  C20 UNL     1      25.013 -17.033  23.735  1.00  0.00     0.372 C
HETATM   24  N3  UNL     1      25.693 -17.061  22.469  1.00  0.00    -0.032 NA
HETATM   25  O9  UNL     1      25.545 -17.593  24.723  1.00  0.00    -0.242 OA
ENDBRANCH  22  23
ENDBRANCH  21  22
ENDBRANCH  19  21
ENDBRANCH  18  19
ENDBRANCH  15  18
ENDBRANCH   9  10
ENDBRANCH   1   9
BRANCH   1  26
HETATM   26  O1  UNL     1      15.855 -14.081  22.675  1.00  0.00    -0.384 OA
ATOM     27  H1  UNL     1      15.057 -14.213  23.173  1.00  0.00     0.210 HD
ENDBRANCH   1  26
BRANCH   8  28
HETATM   28  O3  UNL     1      13.438 -14.790  22.414  1.00  0.00    -0.367 OA
ATOM     29  H3  UNL     1      12.671 -15.335  22.273  1.00  0.00     0.212 HD
ENDBRANCH   8  28
BRANCH   8  30
HETATM   30  N2  UNL     1      13.499 -15.179  20.155  1.00  0.00    -0.301 N
HETATM   31  C13 UNL     1      13.043 -16.506  20.380  1.00  0.00     0.376 C
HETATM   32  O4  UNL     1      13.078 -17.084  21.511  1.00  0.00    -0.237 OA
ATOM     33  H2  UNL     1      13.443 -14.789  19.214  1.00  0.00     0.168 HD
BRANCH  31  34
HETATM   34  O5  UNL     1      12.514 -17.285  19.354  1.00  0.00    -0.200 OA
BRANCH  34  35
HETATM   35  S1  UNL     1      12.383 -18.981  19.446  1.00  0.00     0.166 SA
BRANCH  35  36
HETATM   36  O6  UNL     1      11.838 -19.477  20.760  1.00  0.00    -0.306 OA
ATOM     37  H6  UNL     1      11.053 -20.005  20.674  1.00  0.00     0.230 HD
ENDBRANCH  35  36
ENDBRANCH  34  35
ENDBRANCH  31  34
ENDBRANCH   8  30
BRANCH   7  38
HETATM   38  O2  UNL     1      14.792 -10.824  20.866  1.00  0.00    -0.395 OA
ATOM     39  H2  UNL     1      15.528 -10.279  21.118  1.00  0.00     0.210 HD
ENDBRANCH   7  38
TORSDOF 14
ENDMDL