MODEL 3
REMARK VINA RESULT: -10.330197968      1.358      1.964
REMARK  5 active torsions:
REMARK  status: ('A' for Active; 'I' for Inactive)
REMARK    1  A    between atoms: C4_4  and  N1_5
REMARK    2  A    between atoms: C8_13  and  C9_14
REMARK    3  A    between atoms: C11_17  and  N4_18
REMARK    4  A    between atoms: N4_18  and  C12_20
REMARK    5  A    between atoms: C25_38  and  C26_39
ROOT
HETATM    1  N1  UNL     1      11.406  26.665 117.977  1.00  0.00    -0.304 N
HETATM    2  C5  UNL     1      10.766  27.501 118.814  1.00  0.00     0.190 A
HETATM    3  N2  UNL     1      11.170  28.758 118.592  1.00  0.00    -0.336 N
ATOM      4  H2  UNL     1      10.841  29.585 119.091  1.00  0.00     0.168 HD
HETATM    5  C6  UNL     1      12.093  28.750 117.588  1.00  0.00     0.133 A
HETATM    6  N3  UNL     1      12.802  29.711 116.984  1.00  0.00    -0.350 N
ATOM      7  H3  UNL     1      12.700  30.688 117.261  1.00  0.00     0.166 HD
HETATM    8  C7  UNL     1      13.662  29.356 115.989  1.00  0.00     0.103 A
HETATM    9  C8  UNL     1      13.816  28.046 115.596  1.00  0.00     0.009 A
HETATM   10  C21 UNL     1      13.088  27.071 116.220  1.00  0.00     0.049 A
HETATM   11  C22 UNL     1      12.218  27.432 117.226  1.00  0.00     0.085 A
ENDROOT
BRANCH   9  12
HETATM   12  C9  UNL     1      14.764  27.677 114.505  1.00  0.00     0.052 A
HETATM   13  C10 UNL     1      15.165  28.637 113.606  1.00  0.00     0.083 A
HETATM   14  S1  UNL     1      16.213  27.753 112.583  1.00  0.00    -0.064 SA
HETATM   15  C11 UNL     1      16.082  26.242 113.345  1.00  0.00     0.149 A
HETATM   16  N6  UNL     1      15.241  26.475 114.350  1.00  0.00    -0.335 N
ATOM     17  H6  UNL     1      14.975  25.725 114.988  1.00  0.00     0.168 HD
BRANCH  15  18
HETATM   18  N4  UNL     1      16.664  25.106 113.029  1.00  0.00    -0.337 N
ATOM     19  H4  UNL     1      17.670  25.035 112.881  1.00  0.00     0.168 HD
BRANCH  18  20
HETATM   20  C12 UNL     1      15.790  23.970 112.904  1.00  0.00     0.035 A
HETATM   21  C13 UNL     1      15.965  22.837 113.666  1.00  0.00     0.030 A
HETATM   22  C14 UNL     1      15.133  21.734 113.559  1.00  0.00     0.020 A
HETATM   23  C15 UNL     1      14.090  21.771 112.655  1.00  0.00     0.048 A
HETATM   24  C16 UNL     1      13.912  22.909 111.888  1.00  0.00     0.050 A
HETATM   25  C20 UNL     1      13.043  20.825 112.281  1.00  0.00     0.261 A
HETATM   26  C17 UNL     1      14.746  24.005 112.001  1.00  0.00     0.047 A
HETATM   27  C18 UNL     1      12.752  22.702 111.017  1.00  0.00     0.261 A
HETATM   28  O1  UNL     1      12.294  23.528 110.182  1.00  0.00    -0.267 OA
HETATM   29  N5  UNL     1      12.235  21.416 111.276  1.00  0.00    -0.284 N
HETATM   30  C19 UNL     1      11.087  20.793 110.641  1.00  0.00     0.163 C
HETATM   31  O2  UNL     1      12.904  19.676 112.785  1.00  0.00    -0.267 OA
ENDBRANCH  18  20
ENDBRANCH  15  18
ENDBRANCH   9  12
BRANCH   1  32
HETATM   32  C4  UNL     1      11.254  25.254 117.899  1.00  0.00     0.041 A
HETATM   33  C3  UNL     1      12.188  24.391 118.430  1.00  0.00     0.038 A
HETATM   34  C2  UNL     1      12.062  23.006 118.367  1.00  0.00    -0.043 A
HETATM   35  C1  UNL     1      13.094  22.113 118.953  1.00  0.00     0.049 C
HETATM   36  C25 UNL     1      10.974  22.438 117.756  1.00  0.00     0.046 A
HETATM   37  C24 UNL     1      10.024  23.303 117.218  1.00  0.00     0.021 A
HETATM   38  C23 UNL     1      10.161  24.676 117.287  1.00  0.00     0.031 A
BRANCH  36  39
HETATM   39  C26 UNL     1      10.745  21.005 117.635  1.00  0.00     0.209 C
HETATM   40  O3  UNL     1       9.827  20.434 118.318  1.00  0.00    -0.644 OA
HETATM   41  O4  UNL     1      11.462  20.156 116.809  1.00  0.00    -0.644 OA
ENDBRANCH  36  39
ENDBRANCH   1  32
TORSDOF 5
ENDMDL