MODEL 3
REMARK VINA RESULT: -9.279262227      2.770      7.485
REMARK  5 active torsions:
REMARK  status: ('A' for Active; 'I' for Inactive)
REMARK    1  A    between atoms: C6_6  and  O1_7
REMARK    2  A    between atoms: O1_7  and  C7_8
REMARK    3  A    between atoms: C8_11  and  C9_12
REMARK       I    between atoms: C9_12  and  N2_14
REMARK    4  A    between atoms: N2_14  and  C10_16
REMARK    5  A    between atoms: N4_27  and  C19_28
ROOT
HETATM    1  C1  UNL     1       7.921  29.246 118.196  1.00  0.00     0.018 C
HETATM    2  C2  UNL     1       8.929  28.578 118.223  1.00  0.00    -0.078 C
HETATM    3  C3  UNL     1      10.127  27.786 118.278  1.00  0.00     0.018 A
HETATM    4  C4  UNL     1      11.254  28.305 118.841  1.00  0.00     0.023 A
HETATM    5  C5  UNL     1      12.365  27.494 118.858  1.00  0.00     0.040 A
HETATM    6  C6  UNL     1      12.344  26.214 118.335  1.00  0.00     0.096 A
HETATM    7  C8  UNL     1      11.223  25.696 117.778  1.00  0.00     0.067 A
HETATM    8  C30 UNL     1      10.089  26.535 117.761  1.00  0.00     0.040 A
ENDROOT
BRANCH   7   9
HETATM    9  C9  UNL     1      11.069  24.333 117.244  1.00  0.00     0.259 C
HETATM   10  O3  UNL     1      10.422  24.248 116.148  1.00  0.00    -0.267 OA
HETATM   11  N2  UNL     1      11.553  23.167 117.810  1.00  0.00    -0.323 N
ATOM     12  H2  UNL     1      12.075  23.229 118.684  1.00  0.00     0.169 HD
BRANCH  11  13
HETATM   13  C10 UNL     1      11.351  21.866 117.216  1.00  0.00     0.035 A
HETATM   14  C11 UNL     1      10.265  21.117 117.689  1.00  0.00     0.030 A
HETATM   15  C12 UNL     1      10.034  19.894 117.119  1.00  0.00     0.010 A
HETATM   16  C13 UNL     1      10.828  19.376 116.099  1.00  0.00    -0.045 A
HETATM   17  C14 UNL     1      11.883  20.143 115.664  1.00  0.00     0.002 A
HETATM   18  C29 UNL     1      10.431  18.057 115.612  1.00  0.00     0.045 A
HETATM   19  C15 UNL     1      12.149  21.382 116.214  1.00  0.00     0.044 A
HETATM   20  C16 UNL     1      12.727  19.598 114.587  1.00  0.00     0.075 A
HETATM   21  C17 UNL     1      12.378  18.340 114.096  1.00  0.00     0.038 A
HETATM   22  N4  UNL     1      13.790  20.049 113.948  1.00  0.00    -0.291 N
HETATM   23  N3  UNL     1      13.277  18.056 113.136  1.00  0.00    -0.353 N
HETATM   24  C28 UNL     1      11.264  17.508 114.538  1.00  0.00     0.064 A
HETATM   25  C18 UNL     1      14.126  19.066 113.038  1.00  0.00     0.190 A
ATOM     26  H3  UNL     1      13.300  17.204 112.577  1.00  0.00     0.166 HD
BRANCH  22  27
HETATM   27  C19 UNL     1      14.513  21.254 114.082  1.00  0.00     0.113 A
HETATM   28  C20 UNL     1      15.048  21.625 115.328  1.00  0.00     0.051 A
HETATM   29  C21 UNL     1      15.711  22.819 115.503  1.00  0.00     0.035 A
HETATM   30  C22 UNL     1      15.877  23.707 114.449  1.00  0.00     0.059 A
HETATM   31  N5  UNL     1      16.520  24.878 114.598  1.00  0.00    -0.363 N
HETATM   32  C27 UNL     1      15.346  23.325 113.234  1.00  0.00     0.062 A
HETATM   33  C23 UNL     1      16.683  25.743 113.572  1.00  0.00     0.111 A
ATOM     34  H5  UNL     1      16.897  25.121 115.514  1.00  0.00     0.165 HD
HETATM   35  C24 UNL     1      16.169  25.408 112.335  1.00  0.00     0.062 A
HETATM   36  C25 UNL     1      16.350  26.339 111.254  1.00  0.00     0.101 C
HETATM   37  C26 UNL     1      15.511  24.210 112.183  1.00  0.00     0.056 A
HETATM   38  N6  UNL     1      16.483  27.086 110.372  1.00  0.00    -0.191 NA
HETATM   39  N7  UNL     1      14.704  22.155 113.092  1.00  0.00    -0.340 N
ATOM     40  H7  UNL     1      14.333  21.929 112.169  1.00  0.00     0.167 HD
ENDBRANCH  22  27
ENDBRANCH  11  13
ENDBRANCH   7   9
BRANCH   6  41
HETATM   41  O1  UNL     1      13.522  25.505 118.411  1.00  0.00    -0.263 OA
BRANCH  41  42
HETATM   42  C7  UNL     1      13.843  24.826 119.622  1.00  0.00     0.378 C
HETATM   43  N1  UNL     1      13.833  23.422 119.598  1.00  0.00    -0.032 NA
HETATM   44  O2  UNL     1      14.105  25.540 120.598  1.00  0.00    -0.242 OA
ENDBRANCH  41  42
ENDBRANCH   6  41
TORSDOF 5
ENDMDL