MODEL 1
REMARK VINA RESULT: -10.049663281      0.000      0.000
REMARK  5 active torsions:
REMARK  status: ('A' for Active; 'I' for Inactive)
REMARK    1  A    between atoms: C4_5  and  C5_6
REMARK       I    between atoms: C5_6  and  N2_8
REMARK    2  A    between atoms: N2_8  and  C6_10
REMARK    3  A    between atoms: C8_12  and  C9_13
REMARK    4  A    between atoms: C12_17  and  C13_18
REMARK    5  A    between atoms: C17_22  and  C18_23
ROOT
HETATM    1  N1  UNL     1      13.611  29.931 112.649  1.00  0.00    -0.190 NA
HETATM    2  C1  UNL     1      13.630  29.945 111.491  1.00  0.00     0.117 C
HETATM    3  C2  UNL     1      13.663  29.982 110.042  1.00  0.00     0.114 A
HETATM    4  C3  UNL     1      14.686  29.435 109.329  1.00  0.00     0.058 A
HETATM    5  C4  UNL     1      14.707  29.477 107.955  1.00  0.00     0.036 A
HETATM    6  C26 UNL     1      13.651  30.098 107.309  1.00  0.00     0.034 A
HETATM    7  C27 UNL     1      12.640  30.635 108.068  1.00  0.00     0.090 A
HETATM    8  N8  UNL     1      12.638  30.584 109.405  1.00  0.00    -0.357 N
ATOM      9  H8  UNL     1      11.870  30.995 109.937  1.00  0.00     0.166 HD
ENDROOT
BRANCH   5  10
HETATM   10  C5  UNL     1      15.814  28.885 107.223  1.00  0.00     0.257 C
HETATM   11  O1  UNL     1      15.749  28.829 105.975  1.00  0.00    -0.267 OA
HETATM   12  N2  UNL     1      16.966  28.365 107.863  1.00  0.00    -0.309 N
ATOM     13  H2  UNL     1      17.817  28.927 107.892  1.00  0.00     0.170 HD
BRANCH  12  14
HETATM   14  C6  UNL     1      16.960  27.193 108.412  1.00  0.00     0.108 A
HETATM   15  C7  UNL     1      16.517  27.122 109.744  1.00  0.00     0.061 A
HETATM   16  C8  UNL     1      16.506  25.893 110.344  1.00  0.00    -0.013 A
HETATM   17  C24 UNL     1      16.922  24.802 109.634  1.00  0.00     0.030 A
HETATM   18  C25 UNL     1      17.355  24.900 108.321  1.00  0.00     0.090 A
HETATM   19  N7  UNL     1      17.363  26.101 107.742  1.00  0.00    -0.352 N
ATOM     20  H7  UNL     1      17.679  26.191 106.777  1.00  0.00     0.166 HD
BRANCH  16  21
HETATM   21  C9  UNL     1      16.047  25.786 111.727  1.00  0.00     0.035 A
HETATM   22  C10 UNL     1      15.180  26.615 112.403  1.00  0.00     0.118 A
HETATM   23  N3  UNL     1      14.898  26.334 113.650  1.00  0.00    -0.309 N
HETATM   24  C11 UNL     1      14.115  26.872 114.654  1.00  0.00     0.129 A
HETATM   25  C23 UNL     1      15.467  25.259 114.196  1.00  0.00     0.156 A
HETATM   26  C12 UNL     1      14.218  26.117 115.798  1.00  0.00     0.060 A
HETATM   27  N6  UNL     1      15.059  25.121 115.497  1.00  0.00    -0.334 N
ATOM     28  H6  UNL     1      15.351  24.379 116.134  1.00  0.00     0.168 HD
HETATM   29  S1  UNL     1      16.418  24.629 112.929  1.00  0.00    -0.051 SA
BRANCH  26  30
HETATM   30  C13 UNL     1      13.532  26.385 117.062  1.00  0.00    -0.007 A
HETATM   31  C14 UNL     1      13.801  25.678 118.211  1.00  0.00     0.014 A
HETATM   32  C15 UNL     1      13.164  25.918 119.407  1.00  0.00     0.002 A
HETATM   33  C16 UNL     1      12.216  26.912 119.447  1.00  0.00     0.012 A
HETATM   34  C17 UNL     1      11.893  27.666 118.329  1.00  0.00    -0.022 A
HETATM   35  C22 UNL     1      12.575  27.371 117.151  1.00  0.00     0.026 A
BRANCH  34  36
HETATM   36  C18 UNL     1      10.891  28.716 118.371  1.00  0.00     0.005 A
HETATM   37  C19 UNL     1      11.244  30.026 118.190  1.00  0.00     0.106 A
HETATM   38  N4  UNL     1      10.330  31.027 118.225  1.00  0.00    -0.318 N
HETATM   39  C20 UNL     1       9.039  30.757 118.439  1.00  0.00     0.324 A
ATOM     40  H4  UNL     1      10.630  31.992 118.088  1.00  0.00     0.170 HD
HETATM   41  O2  UNL     1       8.163  31.690 118.475  1.00  0.00    -0.247 OA
HETATM   42  N5  UNL     1       8.667  29.478 118.619  1.00  0.00    -0.318 N
HETATM   43  C21 UNL     1       9.560  28.446 118.590  1.00  0.00     0.106 A
ATOM     44  H5  UNL     1       7.682  29.271 118.783  1.00  0.00     0.170 HD
ENDBRANCH  34  36
ENDBRANCH  26  30
ENDBRANCH  16  21
ENDBRANCH  12  14
ENDBRANCH   5  10
TORSDOF 5
ENDMDL