MODEL 3
REMARK VINA RESULT: -7.916892916      2.461      3.776
REMARK  5 active torsions:
REMARK  status: ('A' for Active; 'I' for Inactive)
REMARK    1  A    between atoms: C6_6  and  C7_7
REMARK    2  A    between atoms: C11_11  and  C12_12
REMARK    3  A    between atoms: C13_15  and  S1_16
REMARK    4  A    between atoms: S1_16  and  C14_17
REMARK    5  A    between atoms: C14_17  and  C15_18
ROOT
HETATM    1  C12 UNL     1      13.122  24.719 115.957  1.00  0.00     0.072 A
HETATM    2  N1  UNL     1      14.106  25.291 115.263  1.00  0.00    -0.335 N
ATOM      3  H1  UNL     1      13.917  26.207 114.856  1.00  0.00     0.168 HD
HETATM    4  C13 UNL     1      15.332  24.766 115.051  1.00  0.00     0.148 A
HETATM    5  N5  UNL     1      15.570  23.555 115.595  1.00  0.00    -0.302 N
ATOM      6  H5  UNL     1      16.482  23.117 115.461  1.00  0.00     0.171 HD
HETATM    7  C18 UNL     1      14.628  22.914 116.310  1.00  0.00     0.270 A
HETATM    8  O1  UNL     1      14.889  21.774 116.808  1.00  0.00    -0.266 OA
HETATM    9  C19 UNL     1      13.393  23.488 116.500  1.00  0.00     0.140 A
HETATM   10  C20 UNL     1      12.447  22.715 117.308  1.00  0.00     0.107 C
HETATM   11  N6  UNL     1      11.689  22.123 117.948  1.00  0.00    -0.191 NA
ENDROOT
BRANCH   1  12
HETATM   12  C11 UNL     1      11.796  25.246 116.155  1.00  0.00     0.006 A
HETATM   13  C2  UNL     1      10.864  24.815 115.201  1.00  0.00    -0.034 A
HETATM   14  C1  UNL     1      11.183  23.775 114.195  1.00  0.00     0.050 C
HETATM   15  C3  UNL     1       9.606  25.386 115.290  1.00  0.00     0.025 A
HETATM   16  C4  UNL     1       9.294  26.314 116.258  1.00  0.00    -0.015 A
HETATM   17  C25 UNL     1       8.711  24.898 114.234  1.00  0.00     0.162 C
HETATM   18  C5  UNL     1      10.269  26.675 117.153  1.00  0.00     0.018 A
HETATM   19  C21 UNL     1       8.039  27.028 116.519  1.00  0.00     0.311 C
HETATM   20  C6  UNL     1      11.579  26.171 117.166  1.00  0.00    -0.037 A
HETATM   21  N7  UNL     1       7.264  27.267 115.318  1.00  0.00     0.088 N
HETATM   22  C22 UNL     1       6.152  28.124 115.706  1.00  0.00     0.310 C
HETATM   23  C23 UNL     1       6.662  26.014 114.846  1.00  0.00     0.280 C
HETATM   24  C24 UNL     1       7.502  25.551 113.679  1.00  0.00     0.114 C
HETATM   25  O2  UNL     1       9.002  23.828 113.762  1.00  0.00    -0.292 OA
BRANCH  20  26
HETATM   26  C7  UNL     1      12.541  26.607 118.150  1.00  0.00    -0.023 C
HETATM   27  C8  UNL     1      13.129  25.710 119.174  1.00  0.00     0.019 C
HETATM   28  C9  UNL     1      11.759  27.582 119.078  1.00  0.00     0.019 C
HETATM   29  C10 UNL     1      13.573  27.644 117.661  1.00  0.00     0.019 C
ENDBRANCH  20  26
ENDBRANCH   1  12
BRANCH   4  30
HETATM   30  S1  UNL     1      16.550  25.624 114.083  1.00  0.00    -0.086 SA
BRANCH  30  31
HETATM   31  C14 UNL     1      15.862  26.003 112.462  1.00  0.00     0.160 C
BRANCH  31  32
HETATM   32  C15 UNL     1      15.643  27.475 112.316  1.00  0.00     0.109 A
HETATM   33  N2  UNL     1      16.546  28.454 112.537  1.00  0.00    -0.286 N
HETATM   34  N3  UNL     1      15.972  29.607 112.275  1.00  0.00    -0.275 N
ATOM     35  H2  UNL     1      17.507  28.323 112.853  1.00  0.00     0.188 HD
HETATM   36  C16 UNL     1      14.705  29.392 111.885  1.00  0.00     0.194 A
ATOM     37  H3  UNL     1      16.418  30.521 112.356  1.00  0.00     0.189 HD
HETATM   38  S2  UNL     1      13.611  30.551 111.457  1.00  0.00    -0.039 SA
HETATM   39  N4  UNL     1      14.515  28.069 111.914  1.00  0.00    -0.315 N
HETATM   40  C17 UNL     1      13.237  27.456 111.530  1.00  0.00     0.160 C
ENDBRANCH  31  32
ENDBRANCH  30  31
ENDBRANCH   4  30
TORSDOF 5
ENDMDL