MODEL 2
REMARK VINA RESULT: -8.639144000      5.618      9.199
REMARK  6 active torsions:
REMARK  status: ('A' for Active; 'I' for Inactive)
REMARK    1  A    between atoms: N1_10  and  O1_11
REMARK    2  A    between atoms: C12_18  and  N3_19
REMARK    3  A    between atoms: N3_19  and  C13_20
REMARK    4  A    between atoms: C16_23  and  S2_24
REMARK    5  A    between atoms: S2_24  and  N4_25
REMARK    6  A    between atoms: C19_32  and  N5_33
ROOT
HETATM    1  C1  UNL     1      14.000  22.024 119.295  1.00  0.00     0.057 C
HETATM    2  C2  UNL     1      12.753  22.566 118.652  1.00  0.00    -0.014 A
HETATM    3  S1  UNL     1      11.498  21.654 117.981  1.00  0.00    -0.091 SA
HETATM    4  C3  UNL     1      10.487  22.931 117.466  1.00  0.00     0.044 A
HETATM    5  C4  UNL     1      11.171  24.070 117.838  1.00  0.00     0.003 A
HETATM    6  C5  UNL     1      10.526  25.277 117.528  1.00  0.00     0.004 A
HETATM    7  C6  UNL     1      10.996  26.618 117.780  1.00  0.00     0.045 A
HETATM    8  C7  UNL     1      12.017  27.178 117.075  1.00  0.00     0.050 A
HETATM    9  C8  UNL     1      12.344  28.492 117.265  1.00  0.00     0.126 A
HETATM   10  N1  UNL     1      11.687  29.262 118.131  1.00  0.00    -0.232 N
HETATM   11  C9  UNL     1      10.684  28.709 118.822  1.00  0.00     0.213 A
HETATM   12  N2  UNL     1      10.344  27.429 118.656  1.00  0.00    -0.350 N
ATOM     13  H2  UNL     1       9.572  27.048 119.203  1.00  0.00     0.166 HD
HETATM   14  C10 UNL     1       9.276  25.238 116.893  1.00  0.00     0.032 A
HETATM   15  C11 UNL     1       8.620  24.101 116.539  1.00  0.00     0.036 A
HETATM   16  C12 UNL     1       7.355  24.160 115.896  1.00  0.00     0.154 A
HETATM   17  C19 UNL     1       6.796  22.927 115.588  1.00  0.00     0.159 A
HETATM   18  C20 UNL     1       7.493  21.752 115.920  1.00  0.00     0.128 A
HETATM   19  N6  UNL     1       8.685  21.767 116.527  1.00  0.00    -0.361 N
ATOM     20  H6  UNL     1       9.159  20.892 116.752  1.00  0.00     0.165 HD
HETATM   21  C21 UNL     1       9.242  22.926 116.832  1.00  0.00     0.064 A
HETATM   22  C22 UNL     1      12.355  23.868 118.461  1.00  0.00    -0.037 A
HETATM   23  C23 UNL     1      13.269  24.940 119.036  1.00  0.00     0.050 C
ENDROOT
BRANCH  16  24
HETATM   24  N3  UNL     1       6.893  25.259 115.653  1.00  0.00    -0.402 NA
BRANCH  24  25
HETATM   25  C13 UNL     1       6.699  26.416 115.056  1.00  0.00     0.107 A
HETATM   26  C14 UNL     1       6.239  27.526 115.782  1.00  0.00     0.046 A
HETATM   27  C15 UNL     1       6.023  28.722 115.169  1.00  0.00     0.028 A
HETATM   28  C16 UNL     1       6.256  28.847 113.821  1.00  0.00     0.079 A
HETATM   29  C17 UNL     1       6.707  27.782 113.076  1.00  0.00     0.028 A
HETATM   30  C18 UNL     1       6.920  26.586 113.702  1.00  0.00     0.046 A
BRANCH  28  31
HETATM   31  S2  UNL     1       5.991  30.374 113.016  1.00  0.00     0.256 S
HETATM   32  O2  UNL     1       5.970  31.454 114.069  1.00  0.00    -0.201 OA
HETATM   33  O3  UNL     1       7.089  30.623 112.031  1.00  0.00    -0.201 OA
BRANCH  31  34
HETATM   34  N4  UNL     1       4.478  30.382 112.194  1.00  0.00    -0.324 N
ATOM     35  H42 UNL     1       3.979  29.536 111.920  1.00  0.00     0.169 HD
ATOM     36  H41 UNL     1       4.159  31.336 112.025  1.00  0.00     0.169 HD
ENDBRANCH  31  34
ENDBRANCH  28  31
ENDBRANCH  24  25
ENDBRANCH  16  24
BRANCH  17  37
HETATM   37  N5  UNL     1       5.555  22.762 114.946  1.00  0.00    -0.111 N
HETATM   38  O4  UNL     1       5.434  22.744 113.735  1.00  0.00    -0.532 OA
HETATM   39  O5  UNL     1       4.424  22.652 115.716  1.00  0.00    -0.532 OA
ENDBRANCH  17  37
BRANCH  10  40
HETATM   40  O1  UNL     1      12.022  30.597 118.320  1.00  0.00    -0.282 OA
ATOM     41  H1  UNL     1      11.989  31.003 119.178  1.00  0.00     0.245 HD
ENDBRANCH  10  40
TORSDOF 6
ENDMDL