MODEL 1
REMARK VINA RESULT: -7.841669661      0.000      0.000
REMARK  4 active torsions:
REMARK  status: ('A' for Active; 'I' for Inactive)
REMARK       I    between atoms: N1_2  and  C2_4
REMARK    1  A    between atoms: C2_4  and  C3_6
REMARK    2  A    between atoms: C11_17  and  C12_18
REMARK    3  A    between atoms: C15_25  and  N4_26
REMARK       I    between atoms: N4_26  and  C16_28
REMARK    4  A    between atoms: C16_28  and  C17_30
ROOT
HETATM    1  C12 UNL     1      10.923  26.703 114.966  1.00  0.00     0.063 A
HETATM    2  N2  UNL     1      11.136  27.081 116.248  1.00  0.00    -0.350 N
ATOM      3  H2  UNL     1      12.040  27.417 116.582  1.00  0.00     0.166 HD
HETATM    4  C13 UNL     1      10.055  26.979 117.046  1.00  0.00     0.181 A
HETATM    5  N3  UNL     1       8.855  26.549 116.662  1.00  0.00    -0.349 N
ATOM      6  H3  UNL     1       8.099  26.509 117.345  1.00  0.00     0.166 HD
HETATM    7  C14 UNL     1       8.609  26.158 115.363  1.00  0.00     0.080 A
HETATM    8  C15 UNL     1       7.428  25.702 114.846  1.00  0.00     0.070 A
HETATM    9  C22 UNL     1       7.441  25.378 113.518  1.00  0.00     0.082 A
HETATM   10  S2  UNL     1       9.058  25.708 113.041  1.00  0.00    -0.095 SA
HETATM   11  C23 UNL     1       9.668  26.244 114.529  1.00  0.00     0.061 A
ENDROOT
BRANCH   1  12
HETATM   12  C11 UNL     1      11.969  26.751 113.959  1.00  0.00    -0.006 A
HETATM   13  C10 UNL     1      12.603  25.612 113.521  1.00  0.00     0.038 A
HETATM   14  C9  UNL     1      13.594  25.688 112.556  1.00  0.00     0.076 A
HETATM   15  S1  UNL     1      14.535  24.395 111.842  1.00  0.00     0.208 S
HETATM   16  C26 UNL     1      14.022  26.848 111.969  1.00  0.00    -0.003 A
HETATM   17  C7  UNL     1      15.487  25.415 110.782  1.00  0.00     0.076 A
HETATM   18  O2  UNL     1      15.350  23.770 112.917  1.00  0.00    -0.217 OA
HETATM   19  O3  UNL     1      13.696  23.439 111.082  1.00  0.00    -0.217 OA
HETATM   20  C6  UNL     1      15.060  26.693 110.996  1.00  0.00    -0.003 A
HETATM   21  C8  UNL     1      16.478  25.066 109.888  1.00  0.00     0.041 A
HETATM   22  C5  UNL     1      15.718  27.659 110.222  1.00  0.00     0.015 A
HETATM   23  C4  UNL     1      16.703  27.324 109.332  1.00  0.00     0.018 A
HETATM   24  C3  UNL     1      17.112  26.025 109.138  1.00  0.00     0.033 A
HETATM   25  C25 UNL     1      13.368  28.007 112.423  1.00  0.00     0.015 A
HETATM   26  C24 UNL     1      12.384  27.934 113.380  1.00  0.00     0.014 A
BRANCH  24  27
HETATM   27  C2  UNL     1      18.167  25.659 108.186  1.00  0.00     0.251 C
HETATM   28  N1  UNL     1      18.421  26.341 106.978  1.00  0.00    -0.361 N
HETATM   29  C1  UNL     1      19.486  25.900 106.110  1.00  0.00     0.149 C
ATOM     30  H1  UNL     1      17.853  27.146 106.718  1.00  0.00     0.162 HD
HETATM   31  O1  UNL     1      18.892  24.658 108.486  1.00  0.00    -0.268 OA
ENDBRANCH  24  27
ENDBRANCH   1  12
BRANCH   8  32
HETATM   32  N4  UNL     1       6.232  25.565 115.629  1.00  0.00    -0.320 N
HETATM   33  C16 UNL     1       5.794  24.407 116.260  1.00  0.00     0.256 C
HETATM   34  O4  UNL     1       6.388  23.311 116.229  1.00  0.00    -0.267 OA
ATOM     35  H4  UNL     1       5.649  26.397 115.733  1.00  0.00     0.169 HD
BRANCH  33  36
HETATM   36  C17 UNL     1       4.527  24.401 117.048  1.00  0.00     0.035 A
HETATM   37  C18 UNL     1       4.393  23.622 118.164  1.00  0.00     0.034 A
HETATM   38  C19 UNL     1       3.179  23.675 118.861  1.00  0.00     0.088 A
HETATM   39  N5  UNL     1       2.165  24.443 118.488  1.00  0.00    -0.375 N
HETATM   40  C20 UNL     1       2.331  25.192 117.391  1.00  0.00     0.088 A
ATOM     41  H5  UNL     1       1.293  24.462 119.015  1.00  0.00     0.164 HD
HETATM   42  C21 UNL     1       3.484  25.197 116.656  1.00  0.00     0.034 A
ENDBRANCH  33  36
ENDBRANCH   8  32
TORSDOF 4
ENDMDL