MODEL 1
REMARK VINA RESULT: -10.899679618      0.000      0.000
REMARK  4 active torsions:
REMARK  status: ('A' for Active; 'I' for Inactive)
REMARK       I    between atoms: N1_5  and  C5_7
REMARK    1  A    between atoms: C5_7  and  C6_9
REMARK    2  A    between atoms: C9_14  and  C10_15
REMARK    3  A    between atoms: N4_21  and  C14_22
REMARK    4  A    between atoms: C14_22  and  C15_23
ROOT
HETATM    1  C15 UNL     1      11.678  25.288 117.924  1.00  0.00    -0.039 A
HETATM    2  C16 UNL     1      11.634  23.939 117.673  1.00  0.00     0.011 A
HETATM    3  C17 UNL     1      12.434  23.020 118.345  1.00  0.00     0.031 A
HETATM    4  C18 UNL     1      13.314  23.455 119.306  1.00  0.00     0.042 A
HETATM    5  N5  UNL     1      14.112  22.584 119.983  1.00  0.00    -0.364 N
ATOM      6  H5  UNL     1      14.049  21.590 119.767  1.00  0.00     0.165 HD
HETATM    7  C19 UNL     1      14.980  22.991 120.927  1.00  0.00     0.111 A
HETATM    8  C20 UNL     1      15.076  24.331 121.230  1.00  0.00     0.060 A
HETATM    9  C21 UNL     1      15.969  24.842 122.217  1.00  0.00     0.101 C
HETATM   10  N6  UNL     1      16.702  25.257 123.033  1.00  0.00    -0.191 NA
HETATM   11  C22 UNL     1      14.269  25.248 120.550  1.00  0.00     0.038 A
HETATM   12  C23 UNL     1      13.377  24.794 119.575  1.00  0.00    -0.007 A
HETATM   13  C24 UNL     1      12.564  25.705 118.890  1.00  0.00     0.022 A
ENDROOT
BRANCH   1  14
HETATM   14  C14 UNL     1      10.796  26.280 117.205  1.00  0.00     0.169 C
BRANCH  14  15
HETATM   15  N4  UNL     1      11.370  27.596 117.141  1.00  0.00    -0.328 N
HETATM   16  C10 UNL     1      12.330  28.044 116.334  1.00  0.00     0.096 A
HETATM   17  C11 UNL     1      12.595  29.369 116.792  1.00  0.00     0.123 A
HETATM   18  N3  UNL     1      11.792  29.604 117.803  1.00  0.00    -0.354 N
HETATM   19  C12 UNL     1      11.014  28.547 118.061  1.00  0.00     0.080 A
ATOM     20  H3  UNL     1      11.765  30.480 118.324  1.00  0.00     0.166 HD
HETATM   21  C13 UNL     1       9.995  28.515 119.128  1.00  0.00     0.089 C
BRANCH  16  22
HETATM   22  C9  UNL     1      13.130  27.479 115.265  1.00  0.00     0.141 A
HETATM   23  N2  UNL     1      13.756  26.280 115.530  1.00  0.00    -0.343 N
HETATM   24  C7  UNL     1      14.588  25.679 114.693  1.00  0.00     0.025 A
ATOM     25  H2  UNL     1      13.566  25.828 116.425  1.00  0.00     0.167 HD
HETATM   26  C6  UNL     1      14.838  26.287 113.501  1.00  0.00     0.081 A
HETATM   27  C8  UNL     1      15.215  24.367 115.088  1.00  0.00     0.069 C
HETATM   28  C29 UNL     1      14.234  27.484 113.206  1.00  0.00     0.059 A
HETATM   29  N7  UNL     1      13.384  28.061 114.102  1.00  0.00    -0.304 N
HETATM   30  C28 UNL     1      14.339  28.327 112.116  1.00  0.00     0.055 A
HETATM   31  C25 UNL     1      12.991  29.247 113.550  1.00  0.00     0.121 A
HETATM   32  C26 UNL     1      13.562  29.443 112.320  1.00  0.00     0.062 A
HETATM   33  C27 UNL     1      13.366  30.583 111.456  1.00  0.00     0.101 C
HETATM   34  N8  UNL     1      13.220  31.510 110.768  1.00  0.00    -0.191 NA
BRANCH  26  35
HETATM   35  C5  UNL     1      15.737  25.670 112.551  1.00  0.00     0.261 C
HETATM   36  N1  UNL     1      15.271  24.871 111.475  1.00  0.00    -0.308 N
HETATM   37  C4  UNL     1      15.715  25.067 110.272  1.00  0.00     0.124 A
ATOM     38  H1  UNL     1      14.583  24.138 111.648  1.00  0.00     0.170 HD
HETATM   39  C3  UNL     1      16.632  25.987 109.809  1.00  0.00     0.076 A
HETATM   40  N9  UNL     1      15.349  24.371 109.160  1.00  0.00    -0.285 N
HETATM   41  C2  UNL     1      16.809  25.839 108.438  1.00  0.00     0.025 A
HETATM   42  C1  UNL     1      17.700  26.619 107.542  1.00  0.00     0.070 C
HETATM   43  N10 UNL     1      15.990  24.827 108.099  1.00  0.00    -0.304 N
ATOM     44  H10 UNL     1      15.879  24.462 107.153  1.00  0.00     0.186 HD
ATOM     45  H9  UNL     1      14.675  23.606 109.149  1.00  0.00     0.188 HD
HETATM   46  O1  UNL     1      16.978  25.870 112.712  1.00  0.00    -0.267 OA
ENDBRANCH  26  35
ENDBRANCH  16  22
ENDBRANCH  14  15
ENDBRANCH   1  14
TORSDOF 4
ENDMDL