MODEL 1
REMARK VINA RESULT: -9.120213663      0.000      0.000
REMARK  8 active torsions:
REMARK  status: ('A' for Active; 'I' for Inactive)
REMARK    1  A    between atoms: N1_2  and  C2_4
REMARK    2  A    between atoms: C4_8  and  C5_9
REMARK    3  A    between atoms: N3_11  and  C7_12
REMARK    4  A    between atoms: C15_24  and  C16_25
REMARK    5  A    between atoms: C16_25  and  C17_26
REMARK    6  A    between atoms: C17_26  and  O1_27
REMARK    7  A    between atoms: C17_26  and  N6_29
REMARK    8  A    between atoms: N6_29  and  C18_30
ROOT
HETATM    1  C7  UNL     1       9.227  25.341 116.514  1.00  0.00     0.139 A
HETATM    2  N4  UNL     1       8.048  25.718 115.820  1.00  0.00    -0.337 N
ATOM      3  H4  UNL     1       7.599  25.037 115.207  1.00  0.00     0.168 HD
HETATM    4  C8  UNL     1       7.514  26.914 115.940  1.00  0.00     0.182 A
HETATM    5  N5  UNL     1       8.038  27.862 116.723  1.00  0.00    -0.352 N
ATOM      6  H5  UNL     1       7.604  28.782 116.797  1.00  0.00     0.166 HD
HETATM    7  C9  UNL     1       9.154  27.567 117.407  1.00  0.00     0.048 A
HETATM    8  C10 UNL     1       9.713  28.519 118.219  1.00  0.00     0.031 A
HETATM    9  C11 UNL     1      10.837  28.279 118.934  1.00  0.00     0.014 A
HETATM   10  C12 UNL     1      11.437  27.051 118.846  1.00  0.00    -0.025 A
HETATM   11  C13 UNL     1      12.596  26.801 119.569  1.00  0.00     0.013 A
HETATM   12  C14 UNL     1      13.221  25.588 119.493  1.00  0.00     0.008 A
HETATM   13  C15 UNL     1      12.700  24.600 118.693  1.00  0.00    -0.049 A
HETATM   14  C25 UNL     1      11.538  24.825 117.959  1.00  0.00     0.021 A
HETATM   15  C26 UNL     1      10.917  26.031 118.035  1.00  0.00    -0.009 A
HETATM   16  C27 UNL     1       9.754  26.289 117.299  1.00  0.00     0.047 A
ENDROOT
BRANCH   1  17
HETATM   17  N3  UNL     1       9.577  24.032 116.228  1.00  0.00    -0.232 N
HETATM   18  C6  UNL     1      10.656  23.567 115.501  1.00  0.00     0.148 A
HETATM   19  C5  UNL     1      10.729  22.221 115.644  1.00  0.00     0.082 A
HETATM   20  N9  UNL     1       9.720  21.853 116.439  1.00  0.00    -0.281 N
HETATM   21  N8  UNL     1       9.052  22.946 116.772  1.00  0.00    -0.014 NA
ATOM     22  H9  UNL     1       9.503  20.901 116.736  1.00  0.00     0.184 HD
BRANCH  19  23
HETATM   23  C4  UNL     1      11.748  21.323 115.052  1.00  0.00     0.053 A
HETATM   24  C3  UNL     1      11.975  20.009 115.361  1.00  0.00     0.111 A
HETATM   25  N2  UNL     1      12.910  19.372 114.719  1.00  0.00    -0.345 N
HETATM   26  C2  UNL     1      13.603  20.031 113.789  1.00  0.00     0.144 A
ATOM     27  H2  UNL     1      13.109  18.392 114.922  1.00  0.00     0.167 HD
HETATM   28  S1  UNL     1      12.899  21.598 113.836  1.00  0.00    -0.051 SA
BRANCH  26  29
HETATM   29  N1  UNL     1      14.572  19.619 113.000  1.00  0.00    -0.375 N
HETATM   30  C1  UNL     1      14.574  18.194 112.696  1.00  0.00     0.148 C
ATOM     31  H1  UNL     1      15.276  20.256 112.626  1.00  0.00     0.161 HD
ENDBRANCH  26  29
ENDBRANCH  19  23
ENDBRANCH   1  17
BRANCH  13  32
HETATM   32  C16 UNL     1      13.467  23.329 118.648  1.00  0.00     0.138 C
BRANCH  32  33
HETATM   33  C17 UNL     1      14.155  23.253 117.267  1.00  0.00     0.194 C
BRANCH  33  34
HETATM   34  O1  UNL     1      14.550  22.034 116.982  1.00  0.00    -0.339 OA
ATOM     35  H1  UNL     1      14.845  21.957 116.082  1.00  0.00     0.220 HD
ENDBRANCH  33  34
BRANCH  33  36
HETATM   36  N6  UNL     1      14.352  24.209 116.430  1.00  0.00    -0.385 NA
BRANCH  36  37
HETATM   37  C18 UNL     1      14.607  25.219 115.810  1.00  0.00     0.113 A
HETATM   38  C19 UNL     1      14.067  26.485 116.104  1.00  0.00     0.069 A
HETATM   39  C20 UNL     1      14.387  27.618 115.410  1.00  0.00     0.008 A
HETATM   40  C21 UNL     1      13.799  28.953 115.749  1.00  0.00     0.068 C
HETATM   41  N7  UNL     1      15.262  27.532 114.394  1.00  0.00    -0.363 N
HETATM   42  C22 UNL     1      15.825  26.360 114.049  1.00  0.00     0.008 A
ATOM     43  H7  UNL     1      15.504  28.374 113.872  1.00  0.00     0.165 HD
HETATM   44  C23 UNL     1      16.787  26.336 112.921  1.00  0.00     0.068 C
HETATM   45  C24 UNL     1      15.508  25.209 114.741  1.00  0.00     0.069 A
ENDBRANCH  36  37
ENDBRANCH  33  36
ENDBRANCH  32  33
ENDBRANCH  13  32
TORSDOF 8
ENDMDL