MODEL 3
REMARK VINA RESULT: -9.334504644      1.230      1.824
REMARK  5 active torsions:
REMARK  status: ('A' for Active; 'I' for Inactive)
REMARK    1  A    between atoms: C5_5  and  S1_6
REMARK    2  A    between atoms: S1_6  and  C6_9
REMARK    3  A    between atoms: C9_14  and  C10_15
REMARK    4  A    between atoms: C14_25  and  N5_26
REMARK       I    between atoms: N5_26  and  C15_28
REMARK       I    between atoms: C15_28  and  N6_30
REMARK    5  A    between atoms: N6_30  and  C16_32
ROOT
HETATM    1  C6  UNL     1      12.995  24.031 117.671  1.00  0.00     0.107 A
HETATM    2  C7  UNL     1      11.858  24.716 117.975  1.00  0.00     0.062 A
HETATM    3  C8  UNL     1      11.861  26.046 117.714  1.00  0.00     0.056 A
HETATM    4  N1  UNL     1      10.830  26.924 117.940  1.00  0.00    -0.339 N
ATOM      5  H1  UNL     1       9.958  26.581 118.343  1.00  0.00     0.167 HD
HETATM    6  C9  UNL     1      10.948  28.211 117.643  1.00  0.00     0.134 A
HETATM    7  N4  UNL     1      12.051  28.761 117.111  1.00  0.00    -0.325 N
ATOM      8  H4  UNL     1      12.094  29.758 116.901  1.00  0.00     0.169 HD
HETATM    9  C14 UNL     1      13.101  27.950 116.866  1.00  0.00     0.130 A
HETATM   10  C22 UNL     1      12.988  26.584 117.176  1.00  0.00     0.077 A
HETATM   11  S2  UNL     1      14.021  25.229 117.043  1.00  0.00    -0.072 SA
ENDROOT
BRANCH   9  12
HETATM   12  N5  UNL     1      14.182  28.369 116.369  1.00  0.00    -0.293 N
HETATM   13  C15 UNL     1      14.533  28.446 114.988  1.00  0.00     0.326 C
HETATM   14  O3  UNL     1      14.197  29.499 114.414  1.00  0.00    -0.247 OA
HETATM   15  N6  UNL     1      15.210  27.391 114.367  1.00  0.00    -0.307 N
ATOM     16  H6  UNL     1      15.412  26.597 114.975  1.00  0.00     0.170 HD
ATOM     17  H5  UNL     1      14.887  28.692 117.031  1.00  0.00     0.172 HD
BRANCH  15  18
HETATM   18  C16 UNL     1      15.656  27.244 113.042  1.00  0.00     0.058 A
HETATM   19  C17 UNL     1      16.083  28.326 112.305  1.00  0.00     0.033 A
HETATM   20  C18 UNL     1      16.519  28.124 110.988  1.00  0.00     0.019 A
HETATM   21  C19 UNL     1      16.502  26.860 110.486  1.00  0.00     0.088 A
HETATM   22  N7  UNL     1      16.084  25.824 111.217  1.00  0.00    -0.368 N
HETATM   23  C20 UNL     1      15.668  25.979 112.461  1.00  0.00     0.032 A
ATOM     24  H7  UNL     1      16.088  24.891 110.805  1.00  0.00     0.165 HD
HETATM   25  C21 UNL     1      15.216  24.803 113.227  1.00  0.00     0.070 C
ENDBRANCH  15  18
ENDBRANCH   9  12
BRANCH   6  26
HETATM   26  C10 UNL     1       9.822  29.105 117.902  1.00  0.00     0.079 A
HETATM   27  C11 UNL     1       8.546  28.596 117.890  1.00  0.00     0.050 A
HETATM   28  C12 UNL     1       7.514  29.474 118.140  1.00  0.00     0.091 A
HETATM   29  N2  UNL     1       7.700  30.787 118.389  1.00  0.00    -0.362 N
HETATM   30  C13 UNL     1       8.958  31.244 118.391  1.00  0.00     0.180 A
ATOM     31  H2  UNL     1       6.912  31.407 118.568  1.00  0.00     0.165 HD
HETATM   32  N3  UNL     1       9.986  30.404 118.150  1.00  0.00    -0.349 N
ATOM     33  H3  UNL     1      10.933  30.780 118.159  1.00  0.00     0.166 HD
ENDBRANCH   6  26
BRANCH   1  34
HETATM   34  S1  UNL     1      13.366  22.332 117.860  1.00  0.00     0.213 S
HETATM   35  O1  UNL     1      14.666  21.987 117.150  1.00  0.00    -0.217 OA
HETATM   36  O2  UNL     1      13.625  22.075 119.326  1.00  0.00    -0.217 OA
BRANCH  34  37
HETATM   37  C5  UNL     1      12.065  21.316 117.270  1.00  0.00     0.064 A
HETATM   38  C4  UNL     1      10.839  21.307 117.906  1.00  0.00     0.024 A
HETATM   39  C3  UNL     1       9.803  20.512 117.454  1.00  0.00     0.008 A
HETATM   40  C2  UNL     1       9.943  19.696 116.351  1.00  0.00    -0.062 A
HETATM   41  C1  UNL     1       8.816  18.841 115.870  1.00  0.00     0.048 C
HETATM   42  C24 UNL     1      11.164  19.701 115.712  1.00  0.00     0.008 A
HETATM   43  C23 UNL     1      12.199  20.497 116.167  1.00  0.00     0.024 A
ENDBRANCH  34  37
ENDBRANCH   1  34
TORSDOF 5
ENDMDL