MODEL 1
REMARK VINA RESULT: -10.563678931      0.000      0.000
REMARK  6 active torsions:
REMARK  status: ('A' for Active; 'I' for Inactive)
REMARK    1  A    between atoms: C4_4  and  N1_5
REMARK    2  A    between atoms: N1_5  and  C5_7
REMARK    3  A    between atoms: C6_10  and  N3_11
REMARK    4  A    between atoms: N3_11  and  C7_13
REMARK    5  A    between atoms: C21_35  and  C22_36
REMARK    6  A    between atoms: N9_40  and  S1_41
ROOT
HETATM    1  C5  UNL     1      13.949  29.013 115.036  1.00  0.00     0.684 A
HETATM    2  N2  UNL     1      14.672  27.910 115.205  1.00  0.00    -0.174 N
ATOM      3  H2  UNL     1      14.707  27.500 116.138  1.00  0.00     0.186 HD
HETATM    4  C6  UNL     1      15.373  27.290 114.203  1.00  0.00     0.150 A
HETATM    5  C15 UNL     1      15.308  27.867 112.951  1.00  0.00     0.104 A
HETATM    6  N6  UNL     1      15.965  27.332 111.895  1.00  0.00    -0.361 N
ATOM      7  H6  UNL     1      16.522  26.486 112.015  1.00  0.00     0.165 HD
HETATM    8  C16 UNL     1      15.883  27.912 110.697  1.00  0.00     0.088 A
HETATM    9  C17 UNL     1      15.153  29.052 110.457  1.00  0.00     0.019 A
HETATM   10  C18 UNL     1      14.477  29.621 111.502  1.00  0.00     0.034 A
HETATM   11  C19 UNL     1      14.567  29.011 112.747  1.00  0.00     0.079 A
HETATM   12  N7  UNL     1      13.914  29.540 113.808  1.00  0.00    -0.189 N
ATOM     13  H7  UNL     1      13.364  30.387 113.662  1.00  0.00     0.184 HD
ENDROOT
BRANCH   1  14
HETATM   14  N1  UNL     1      13.294  29.572 116.023  1.00  0.00    -0.192 N
ATOM     15  H1  UNL     1      13.263  30.589 116.100  1.00  0.00     0.184 HD
BRANCH  14  16
HETATM   16  C4  UNL     1      12.630  28.774 116.982  1.00  0.00     0.050 A
HETATM   17  C3  UNL     1      11.370  29.172 117.424  1.00  0.00     0.036 A
HETATM   18  C2  UNL     1      10.700  28.413 118.360  1.00  0.00    -0.059 A
HETATM   19  C1  UNL     1       9.355  28.825 118.841  1.00  0.00     0.048 C
HETATM   20  C26 UNL     1      11.289  27.254 118.853  1.00  0.00     0.019 A
HETATM   21  C21 UNL     1      12.542  26.833 118.431  1.00  0.00    -0.020 A
HETATM   22  C20 UNL     1      13.179  27.612 117.502  1.00  0.00     0.042 A
BRANCH  21  23
HETATM   23  C22 UNL     1      13.127  25.611 118.972  1.00  0.00     0.009 A
HETATM   24  C23 UNL     1      13.849  25.483 120.138  1.00  0.00     0.122 A
HETATM   25  N8  UNL     1      14.207  24.202 120.275  1.00  0.00    -0.295 N
HETATM   26  N9  UNL     1      13.753  23.504 119.261  1.00  0.00    -0.192 N
ATOM     27  H8  UNL     1      14.751  23.824 121.050  1.00  0.00     0.187 HD
HETATM   28  C25 UNL     1      13.090  24.344 118.451  1.00  0.00     0.142 A
BRANCH  26  29
HETATM   29  S1  UNL     1      13.983  21.789 119.025  1.00  0.00     0.245 S
HETATM   30  C24 UNL     1      14.417  21.033 120.567  1.00  0.00     0.188 C
HETATM   31  O1  UNL     1      15.000  21.580 117.965  1.00  0.00    -0.204 OA
HETATM   32  O2  UNL     1      12.677  21.237 118.526  1.00  0.00    -0.204 OA
ENDBRANCH  26  29
ENDBRANCH  21  23
ENDBRANCH  14  16
ENDBRANCH   1  14
BRANCH   4  33
HETATM   33  N3  UNL     1      16.032  26.252 114.441  1.00  0.00    -0.340 N
ATOM     34  H3  UNL     1      16.964  26.420 114.822  1.00  0.00     0.167 HD
BRANCH  33  35
HETATM   35  C7  UNL     1      15.710  24.908 114.275  1.00  0.00     0.035 A
HETATM   36  C8  UNL     1      16.390  24.081 113.372  1.00  0.00     0.032 A
HETATM   37  C9  UNL     1      16.012  22.772 113.239  1.00  0.00     0.034 A
HETATM   38  C10 UNL     1      14.979  22.224 113.964  1.00  0.00     0.060 A
HETATM   39  N4  UNL     1      14.411  21.000 114.032  1.00  0.00    -0.344 N
HETATM   40  C13 UNL     1      14.303  23.027 114.855  1.00  0.00     0.062 A
HETATM   41  C11 UNL     1      13.411  21.014 114.930  1.00  0.00     0.078 A
ATOM     42  H4  UNL     1      14.698  20.189 113.484  1.00  0.00     0.167 HD
HETATM   43  C12 UNL     1      12.572  19.812 115.246  1.00  0.00     0.089 C
HETATM   44  N5  UNL     1      13.338  22.251 115.439  1.00  0.00    -0.344 N
ATOM     45  H5  UNL     1      12.671  22.564 116.145  1.00  0.00     0.167 HD
HETATM   46  C14 UNL     1      14.665  24.339 115.003  1.00  0.00     0.061 A
ENDBRANCH  33  35
ENDBRANCH   4  33
TORSDOF 6
ENDMDL