MODEL 1
REMARK VINA RESULT: -6.133168403      0.000      0.000
REMARK  15 active torsions:
REMARK  status: ('A' for Active; 'I' for Inactive)
REMARK    1  A    between atoms: C5_5  and  N1_6
REMARK    2  A    between atoms: N1_6  and  C6_9
REMARK    3  A    between atoms: C6_9  and  C7_10
REMARK    4  A    between atoms: C7_10  and  C8_11
REMARK    5  A    between atoms: C8_11  and  C9_12
REMARK    6  A    between atoms: C9_12  and  C10_13
REMARK    7  A    between atoms: C10_13  and  C11_14
REMARK    8  A    between atoms: C11_14  and  C12_15
REMARK    9  A    between atoms: C12_15  and  N2_16
REMARK   10  A    between atoms: N2_16  and  C13_18
REMARK   11  A    between atoms: C15_20  and  N3_21
REMARK   12  A    between atoms: C16_25  and  O1_26
REMARK   13  A    between atoms: C17_29  and  C18_30
REMARK   14  A    between atoms: C18_30  and  O3_31
REMARK   15  A    between atoms: C20_34  and  N4_35
ROOT
HETATM    1  C10 UNL     1      51.772  47.625  71.284  1.00  0.00     0.005 C
ENDROOT
BRANCH   1   2
HETATM    2  C9  UNL     1      52.436  46.703  70.355  1.00  0.00     0.000 C
BRANCH   2   3
HETATM    3  C8  UNL     1      52.262  46.869  68.909  1.00  0.00     0.002 C
BRANCH   3   4
HETATM    4  C7  UNL     1      51.589  48.043  68.340  1.00  0.00     0.027 C
BRANCH   4   5
HETATM    5  C6  UNL     1      50.123  47.750  67.982  1.00  0.00     0.232 C
BRANCH   5   6
HETATM    6  N1  UNL     1      49.233  48.671  68.607  1.00  0.00    -0.071 N
ATOM      7  H12 UNL     1      49.058  49.492  68.028  1.00  0.00     0.277 HD
ATOM      8  H11 UNL     1      49.662  49.144  69.403  1.00  0.00     0.277 HD
BRANCH   6   9
HETATM    9  C5  UNL     1      47.987  47.971  68.978  1.00  0.00     0.188 C
HETATM   10  C4  UNL     1      46.784  48.630  68.407  1.00  0.00     0.033 C
HETATM   11  C3  UNL     1      45.572  48.006  69.065  1.00  0.00     0.008 C
HETATM   12  C2  UNL     1      45.735  46.523  69.105  1.00  0.00     0.012 C
HETATM   13  C1  UNL     1      44.429  45.786  68.812  1.00  0.00     0.012 C
HETATM   14  C20 UNL     1      46.733  46.043  68.105  1.00  0.00     0.189 C
HETATM   15  C19 UNL     1      48.114  46.570  68.462  1.00  0.00     0.066 C
BRANCH  14  16
HETATM   16  N4  UNL     1      46.776  44.587  68.067  1.00  0.00    -0.075 N
ATOM     17  H43 UNL     1      47.135  44.198  68.939  1.00  0.00     0.274 HD
ATOM     18  H42 UNL     1      45.839  44.183  68.089  1.00  0.00     0.274 HD
ATOM     19  H41 UNL     1      47.308  44.259  67.262  1.00  0.00     0.274 HD
ENDBRANCH  14  16
ENDBRANCH   6   9
ENDBRANCH   5   6
ENDBRANCH   4   5
ENDBRANCH   3   4
ENDBRANCH   2   3
ENDBRANCH   1   2
BRANCH   1  20
HETATM   20  C11 UNL     1      52.643  48.551  72.030  1.00  0.00     0.044 C
BRANCH  20  21
HETATM   21  C12 UNL     1      52.120  49.970  71.895  1.00  0.00     0.056 C
BRANCH  21  22
HETATM   22  N2  UNL     1      50.899  50.231  71.331  1.00  0.00    -0.395 N
ATOM     23  H2  UNL     1      50.182  49.525  71.495  1.00  0.00     0.159 HD
BRANCH  22  24
HETATM   24  C13 UNL     1      50.503  51.309  70.575  1.00  0.00     0.114 C
HETATM   25  C14 UNL     1      49.095  51.809  70.594  1.00  0.00     0.065 C
HETATM   26  C15 UNL     1      48.916  52.635  69.331  1.00  0.00     0.240 C
HETATM   27  C16 UNL     1      50.187  53.038  68.685  1.00  0.00     0.287 C
HETATM   28  O2  UNL     1      51.304  53.177  69.430  1.00  0.00    -0.350 OA
HETATM   29  C17 UNL     1      51.369  52.541  70.639  1.00  0.00     0.170 C
BRANCH  26  30
HETATM   30  N3  UNL     1      48.174  51.807  68.397  1.00  0.00    -0.070 N
ATOM     31  H33 UNL     1      48.001  52.264  67.501  1.00  0.00     0.274 HD
ATOM     32  H32 UNL     1      48.716  51.021  68.036  1.00  0.00     0.274 HD
ATOM     33  H31 UNL     1      47.320  51.521  68.875  1.00  0.00     0.274 HD
ENDBRANCH  26  30
BRANCH  27  34
HETATM   34  O1  UNL     1      49.943  54.266  68.035  1.00  0.00    -0.369 OA
ATOM     35  H1  UNL     1      49.012  54.296  67.846  1.00  0.00     0.212 HD
ENDBRANCH  27  34
BRANCH  29  36
HETATM   36  C18 UNL     1      50.926  53.573  71.656  1.00  0.00     0.198 C
BRANCH  36  37
HETATM   37  O3  UNL     1      51.423  53.089  72.894  1.00  0.00    -0.398 OA
ATOM     38  H3  UNL     1      50.661  53.057  73.461  1.00  0.00     0.209 HD
ENDBRANCH  36  37
ENDBRANCH  29  36
ENDBRANCH  22  24
ENDBRANCH  21  22
ENDBRANCH  20  21
ENDBRANCH   1  20
TORSDOF 15
ENDMDL