MODEL 5
REMARK VINA RESULT: -5.820106114      1.920      5.843
REMARK  17 active torsions:
REMARK  status: ('A' for Active; 'I' for Inactive)
REMARK    1  A    between atoms: C2_2  and  C3_3
REMARK    2  A    between atoms: C3_3  and  C4_4
REMARK    3  A    between atoms: C4_4  and  C5_5
REMARK    4  A    between atoms: C5_5  and  C6_6
REMARK    5  A    between atoms: C5_5  and  C9_9
REMARK    6  A    between atoms: C9_9  and  O1_10
REMARK    7  A    between atoms: C9_9  and  C10_12
REMARK    8  A    between atoms: C10_12  and  O2_14
REMARK    9  A    between atoms: C10_12  and  C12_16
REMARK   10  A    between atoms: C15_19  and  C16_20
REMARK   11  A    between atoms: C16_20  and  O3_21
REMARK   12  A    between atoms: C16_20  and  C17_23
REMARK   13  A    between atoms: C17_23  and  O4_24
REMARK   14  A    between atoms: C17_23  and  C18_26
REMARK   15  A    between atoms: C18_26  and  O5_27
REMARK   16  A    between atoms: C18_26  and  C19_29
REMARK   17  A    between atoms: C19_29  and  O6_30
ROOT
HETATM    1  C12 UNL     1      48.502  51.612  68.665  1.00  0.00     0.158 C
HETATM    2  C13 UNL     1      49.164  52.944  68.962  1.00  0.00     0.038 C
HETATM    3  C14 UNL     1      50.632  52.476  68.884  1.00  0.00     0.037 C
HETATM    4  C15 UNL     1      50.516  51.097  69.494  1.00  0.00     0.153 C
HETATM    5  O7  UNL     1      49.162  50.764  69.538  1.00  0.00    -0.375 OA
ENDROOT
BRANCH   1   6
HETATM    6  C10 UNL     1      47.023  51.621  69.085  1.00  0.00     0.106 C
HETATM    7  C11 UNL     1      46.801  52.944  69.722  1.00  0.00     0.051 C
BRANCH   6   8
HETATM    8  C9  UNL     1      46.658  50.398  69.805  1.00  0.00     0.162 C
BRANCH   8   9
HETATM    9  C5  UNL     1      45.445  49.627  69.338  1.00  0.00     0.045 C
BRANCH   9  10
HETATM   10  C4  UNL     1      45.832  48.237  68.942  1.00  0.00     0.015 C
BRANCH  10  11
HETATM   11  C3  UNL     1      47.180  47.886  68.531  1.00  0.00     0.027 C
BRANCH  11  12
HETATM   12  C2  UNL     1      47.691  46.532  68.750  1.00  0.00    -0.037 C
HETATM   13  C1  UNL     1      47.048  45.457  68.240  1.00  0.00     0.007 C
ENDBRANCH  11  12
ENDBRANCH  10  11
ENDBRANCH   9  10
BRANCH   9  14
HETATM   14  C6  UNL     1      44.315  49.596  70.263  1.00  0.00    -0.086 C
HETATM   15  C7  UNL     1      43.485  50.526  70.631  1.00  0.00     0.014 C
HETATM   16  C8  UNL     1      44.026  48.219  70.860  1.00  0.00     0.043 C
ENDBRANCH   9  14
ENDBRANCH   8   9
BRANCH   8  17
HETATM   17  O1  UNL     1      46.952  50.379  71.121  1.00  0.00    -0.392 OA
ATOM     18  H1  UNL     1      47.555  51.033  71.453  1.00  0.00     0.210 HD
ENDBRANCH   8  17
ENDBRANCH   6   8
BRANCH   6  19
HETATM   19  O2  UNL     1      46.339  51.655  67.836  1.00  0.00    -0.385 OA
ATOM     20  H2  UNL     1      46.795  52.241  67.243  1.00  0.00     0.210 HD
ENDBRANCH   6  19
ENDBRANCH   1   6
BRANCH   4  21
HETATM   21  C16 UNL     1      51.185  50.029  68.673  1.00  0.00     0.178 C
BRANCH  21  22
HETATM   22  O3  UNL     1      51.107  50.254  67.304  1.00  0.00    -0.390 OA
ATOM     23  H3  UNL     1      50.272  50.004  66.928  1.00  0.00     0.210 HD
ENDBRANCH  21  22
BRANCH  21  24
HETATM   24  C17 UNL     1      50.921  48.629  69.069  1.00  0.00     0.180 C
BRANCH  24  25
HETATM   25  O4  UNL     1      51.300  48.474  70.444  1.00  0.00    -0.390 OA
ATOM     26  H4  UNL     1      51.605  47.582  70.568  1.00  0.00     0.210 HD
ENDBRANCH  24  25
BRANCH  24  27
HETATM   27  C18 UNL     1      51.606  47.539  68.357  1.00  0.00     0.173 C
BRANCH  27  28
HETATM   28  O5  UNL     1      50.847  47.079  67.260  1.00  0.00    -0.391 OA
ATOM     29  H5  UNL     1      50.954  46.144  67.130  1.00  0.00     0.210 HD
ENDBRANCH  27  28
BRANCH  27  30
HETATM   30  C19 UNL     1      52.120  46.378  69.100  1.00  0.00     0.198 C
BRANCH  30  31
HETATM   31  O6  UNL     1      53.491  46.637  69.387  1.00  0.00    -0.398 OA
ATOM     32  H6  UNL     1      54.005  46.202  68.716  1.00  0.00     0.209 HD
ENDBRANCH  30  31
ENDBRANCH  27  30
ENDBRANCH  24  27
ENDBRANCH  21  24
ENDBRANCH   4  21
TORSDOF 17
ENDMDL