MODEL 5
REMARK VINA RESULT: -6.239875308      2.316      9.810
REMARK  14 active torsions:
REMARK  status: ('A' for Active; 'I' for Inactive)
REMARK    1  A    between atoms: C2_2  and  O1_3
REMARK    2  A    between atoms: C2_2  and  C3_5
REMARK    3  A    between atoms: C3_5  and  N1_6
REMARK    4  A    between atoms: C3_5  and  C5_12
REMARK    5  A    between atoms: N1_6  and  C4_8
REMARK    6  A    between atoms: C8_15  and  O2_16
REMARK    7  A    between atoms: O2_16  and  C9_17
REMARK    8  A    between atoms: C9_17  and  C10_18
REMARK    9  A    between atoms: C10_18  and  N3_19
REMARK   10  A    between atoms: C10_18  and  O3_23
REMARK   11  A    between atoms: O3_23  and  C11_24
REMARK   12  A    between atoms: C15_28  and  C16_29
REMARK   13  A    between atoms: C16_29  and  C17_30
REMARK   14  A    between atoms: C17_30  and  O4_31
ROOT
HETATM    1  O2  UNL     1      44.690  47.661  69.122  1.00  0.00    -0.347 OA
ENDROOT
BRANCH   1   2
HETATM    2  C8  UNL     1      46.066  47.628  68.930  1.00  0.00     0.069 A
HETATM    3  C7  UNL     1      46.789  48.788  69.106  1.00  0.00     0.037 A
HETATM    4  C6  UNL     1      48.161  48.787  68.921  1.00  0.00     0.012 A
HETATM    5  C5  UNL     1      48.861  47.653  68.560  1.00  0.00    -0.033 A
HETATM    6  C19 UNL     1      48.114  46.509  68.391  1.00  0.00     0.012 A
HETATM    7  C18 UNL     1      46.738  46.493  68.572  1.00  0.00     0.037 A
BRANCH   5   8
HETATM    8  C3  UNL     1      50.316  47.605  68.322  1.00  0.00     0.143 C
BRANCH   8   9
HETATM    9  C2  UNL     1      50.899  48.929  67.931  1.00  0.00     0.141 C
HETATM   10  C1  UNL     1      51.360  49.652  69.191  1.00  0.00     0.042 C
BRANCH   9  11
HETATM   11  O1  UNL     1      52.023  48.768  67.135  1.00  0.00    -0.394 OA
ATOM     12  H1  UNL     1      52.754  48.631  67.727  1.00  0.00     0.210 HD
ENDBRANCH   9  11
ENDBRANCH   8   9
BRANCH   8  13
HETATM   13  N1  UNL     1      51.025  46.998  69.419  1.00  0.00    -0.375 N
ATOM     14  H1  UNL     1      50.698  47.219  70.360  1.00  0.00     0.161 HD
BRANCH  13  15
HETATM   15  C4  UNL     1      52.133  46.122  69.314  1.00  0.00     0.169 C
HETATM   16  N2  UNL     1      53.356  46.558  69.199  1.00  0.00    -0.396 N
ATOM     17  H22 UNL     1      53.502  47.567  69.185  1.00  0.00     0.156 HD
ATOM     18  H21 UNL     1      54.154  45.927  69.123  1.00  0.00     0.156 HD
ENDBRANCH  13  15
ENDBRANCH   8  13
ENDBRANCH   5   8
ENDBRANCH   1   2
BRANCH   1  19
HETATM   19  C9  UNL     1      44.084  47.224  70.325  1.00  0.00     0.236 C
BRANCH  19  20
HETATM   20  C10 UNL     1      43.786  48.434  71.159  1.00  0.00     0.345 C
BRANCH  20  21
HETATM   21  N3  UNL     1      43.235  48.086  72.455  1.00  0.00    -0.051 N
ATOM     22  H33 UNL     1      43.968  48.017  73.161  1.00  0.00     0.277 HD
ATOM     23  H32 UNL     1      42.702  48.860  72.849  1.00  0.00     0.277 HD
ATOM     24  H31 UNL     1      42.676  47.233  72.420  1.00  0.00     0.277 HD
ENDBRANCH  20  21
BRANCH  20  25
HETATM   25  O3  UNL     1      43.024  49.382  70.584  1.00  0.00    -0.327 OA
BRANCH  25  26
HETATM   26  C11 UNL     1      42.679  50.476  71.336  1.00  0.00     0.263 C
HETATM   27  C12 UNL     1      42.669  51.769  70.592  1.00  0.00     0.061 C
HETATM   28  C13 UNL     1      41.321  52.461  70.655  1.00  0.00     0.007 C
HETATM   29  C14 UNL     1      40.782  52.487  72.090  1.00  0.00     0.032 C
HETATM   30  C15 UNL     1      41.008  51.167  72.771  1.00  0.00     0.126 C
HETATM   31  O5  UNL     1      41.374  50.249  71.786  1.00  0.00    -0.356 OA
BRANCH  30  32
HETATM   32  C16 UNL     1      39.803  50.634  73.477  1.00  0.00     0.058 C
BRANCH  32  33
HETATM   33  C17 UNL     1      40.130  49.761  74.655  1.00  0.00     0.166 C
BRANCH  33  34
HETATM   34  O4  UNL     1      40.774  48.617  74.144  1.00  0.00    -0.401 OA
ATOM     35  H4  UNL     1      41.667  48.641  74.465  1.00  0.00     0.209 HD
ENDBRANCH  33  34
ENDBRANCH  32  33
ENDBRANCH  30  32
ENDBRANCH  25  26
ENDBRANCH  20  25
ENDBRANCH  19  20
ENDBRANCH   1  19
TORSDOF 14
ENDMDL