MODEL 4
REMARK VINA RESULT: -6.210957604      2.793      4.337
REMARK  17 active torsions:
REMARK  status: ('A' for Active; 'I' for Inactive)
REMARK    1  A    between atoms: C2_2  and  C3_3
REMARK    2  A    between atoms: C3_3  and  C4_4
REMARK    3  A    between atoms: C3_3  and  C6_6
REMARK    4  A    between atoms: C6_6  and  C7_7
REMARK    5  A    between atoms: C7_7  and  O1_8
REMARK    6  A    between atoms: C7_7  and  C8_10
REMARK    7  A    between atoms: C10_12  and  O2_13
REMARK    8  A    between atoms: C11_15  and  C12_16
REMARK    9  A    between atoms: C12_16  and  O3_17
REMARK   10  A    between atoms: O3_17  and  C13_18
REMARK   11  A    between atoms: C13_18  and  O4_19
REMARK   12  A    between atoms: C13_18  and  C14_21
REMARK   13  A    between atoms: C14_21  and  C15_22
REMARK   14  A    between atoms: C15_22  and  O5_23
REMARK   15  A    between atoms: C15_22  and  C16_25
REMARK   16  A    between atoms: C16_25  and  O6_28
REMARK   17  A    between atoms: C19_30  and  O7_31
ROOT
HETATM    1  C8  UNL     1      49.669  47.296  69.233  1.00  0.00     0.046 C
HETATM    2  C9  UNL     1      49.788  48.034  70.533  1.00  0.00     0.042 C
HETATM    3  C10 UNL     1      48.386  48.046  71.060  1.00  0.00     0.127 C
HETATM    4  C11 UNL     1      47.490  47.813  69.896  1.00  0.00     0.067 C
HETATM    5  C19 UNL     1      48.381  47.821  68.656  1.00  0.00     0.133 C
ENDROOT
BRANCH   4   6
HETATM    6  C12 UNL     1      46.481  48.894  69.776  1.00  0.00     0.180 C
BRANCH   6   7
HETATM    7  O3  UNL     1      46.490  49.597  68.613  1.00  0.00    -0.361 OA
BRANCH   7   8
HETATM    8  C13 UNL     1      46.344  50.950  68.678  1.00  0.00     0.259 C
BRANCH   8   9
HETATM    9  O4  UNL     1      46.237  51.569  67.430  1.00  0.00    -0.371 OA
ATOM     10  H4  UNL     1      47.046  51.963  67.126  1.00  0.00     0.212 HD
ENDBRANCH   8   9
BRANCH   8  11
HETATM   11  C14 UNL     1      47.283  51.637  69.563  1.00  0.00     0.095 C
BRANCH  11  12
HETATM   12  C15 UNL     1      48.594  52.119  69.055  1.00  0.00     0.156 C
BRANCH  12  13
HETATM   13  O5  UNL     1      49.112  51.003  68.263  1.00  0.00    -0.392 OA
ATOM     14  H5  UNL     1      48.507  50.291  68.433  1.00  0.00     0.210 HD
ENDBRANCH  12  13
BRANCH  12  15
HETATM   15  C16 UNL     1      49.685  52.353  70.043  1.00  0.00     0.076 C
HETATM   16  C17 UNL     1      50.907  51.485  69.576  1.00  0.00     0.048 C
HETATM   17  C18 UNL     1      50.206  53.739  70.108  1.00  0.00     0.048 C
BRANCH  15  18
HETATM   18  O6  UNL     1      49.412  51.861  71.314  1.00  0.00    -0.388 OA
ATOM     19  H6  UNL     1      48.785  51.147  71.327  1.00  0.00     0.210 HD
ENDBRANCH  15  18
ENDBRANCH  12  15
ENDBRANCH  11  12
ENDBRANCH   8  11
ENDBRANCH   7   8
ENDBRANCH   6   7
ENDBRANCH   4   6
BRANCH   3  20
HETATM   20  O2  UNL     1      48.154  49.278  71.682  1.00  0.00    -0.395 OA
ATOM     21  H2  UNL     1      48.991  49.674  71.893  1.00  0.00     0.210 HD
ENDBRANCH   3  20
BRANCH   5  22
HETATM   22  O7  UNL     1      47.794  46.893  67.770  1.00  0.00    -0.395 OA
ATOM     23  H7  UNL     1      47.551  47.302  66.948  1.00  0.00     0.210 HD
ENDBRANCH   5  22
BRANCH   1  24
HETATM   24  C7  UNL     1      50.859  47.593  68.367  1.00  0.00     0.125 C
BRANCH  24  25
HETATM   25  C6  UNL     1      52.071  48.002  69.121  1.00  0.00     0.037 C
BRANCH  25  26
HETATM   26  C3  UNL     1      53.112  46.957  69.374  1.00  0.00    -0.013 C
BRANCH  26  27
HETATM   27  C2  UNL     1      52.622  45.608  69.742  1.00  0.00     0.000 C
HETATM   28  C1  UNL     1      53.067  44.516  68.799  1.00  0.00     0.005 C
ENDBRANCH  26  27
BRANCH  26  29
HETATM   29  C4  UNL     1      54.057  47.537  70.417  1.00  0.00     0.000 C
HETATM   30  C5  UNL     1      53.321  47.912  71.679  1.00  0.00     0.005 C
ENDBRANCH  26  29
ENDBRANCH  25  26
ENDBRANCH  24  25
BRANCH  24  31
HETATM   31  O1  UNL     1      50.469  48.459  67.367  1.00  0.00    -0.395 OA
ATOM     32  H1  UNL     1      49.891  49.161  67.642  1.00  0.00     0.210 HD
ENDBRANCH  24  31
ENDBRANCH   1  24
TORSDOF 17
ENDMDL