MODEL 1
REMARK VINA RESULT: -5.580663694      0.000      0.000
REMARK  16 active torsions:
REMARK  status: ('A' for Active; 'I' for Inactive)
REMARK    1  A    between atoms: O1_1  and  C1_3
REMARK    2  A    between atoms: C1_3  and  C2_4
REMARK    3  A    between atoms: C3_6  and  N1_7
REMARK    4  A    between atoms: N1_7  and  C4_10
REMARK    5  A    between atoms: C4_10  and  C5_11
REMARK    6  A    between atoms: C5_11  and  C6_12
REMARK    7  A    between atoms: C6_12  and  C7_13
REMARK    8  A    between atoms: C7_13  and  C8_14
REMARK    9  A    between atoms: C8_14  and  C9_15
REMARK   10  A    between atoms: C9_15  and  C10_16
REMARK   11  A    between atoms: C10_16  and  C11_17
REMARK   12  A    between atoms: C11_17  and  N2_18
REMARK   13  A    between atoms: N2_18  and  C12_20
REMARK   14  A    between atoms: C17_25  and  O3_26
REMARK   15  A    between atoms: C18_28  and  O4_29
REMARK   16  A    between atoms: C19_31  and  O5_32
ROOT
HETATM    1  N1  UNL     1      50.767  50.262  67.398  1.00  0.00    -0.046 N
ATOM      2  H11 UNL     1      51.025  50.999  66.742  1.00  0.00     0.280 HD
ATOM      3  H12 UNL     1      49.878  49.977  66.987  1.00  0.00     0.280 HD
ENDROOT
BRANCH   1   4
HETATM    4  C3  UNL     1      50.575  50.797  68.732  1.00  0.00     0.353 C
HETATM    5  O2  UNL     1      49.247  50.901  69.000  1.00  0.00    -0.347 OA
HETATM    6  C2  UNL     1      48.605  52.073  68.828  1.00  0.00     0.179 C
HETATM    7  C19 UNL     1      49.376  53.280  69.257  1.00  0.00     0.180 C
HETATM    8  C18 UNL     1      50.692  52.912  69.911  1.00  0.00     0.182 C
HETATM    9  C17 UNL     1      51.414  52.012  68.929  1.00  0.00     0.205 C
BRANCH   6  10
HETATM   10  C1  UNL     1      47.370  52.032  69.756  1.00  0.00     0.198 C
BRANCH  10  11
HETATM   11  O1  UNL     1      47.597  51.159  70.829  1.00  0.00    -0.398 OA
ATOM     12  H1  UNL     1      47.220  51.512  71.626  1.00  0.00     0.209 HD
ENDBRANCH  10  11
ENDBRANCH   6  10
BRANCH   7  13
HETATM   13  O5  UNL     1      49.687  54.068  68.127  1.00  0.00    -0.390 OA
ATOM     14  H5  UNL     1      50.606  53.962  67.908  1.00  0.00     0.210 HD
ENDBRANCH   7  13
BRANCH   8  15
HETATM   15  O4  UNL     1      50.426  52.193  71.071  1.00  0.00    -0.390 OA
ATOM     16  H4  UNL     1      49.497  52.253  71.264  1.00  0.00     0.210 HD
ENDBRANCH   8  15
BRANCH   9  17
HETATM   17  O3  UNL     1      51.685  52.684  67.744  1.00  0.00    -0.388 OA
ATOM     18  H3  UNL     1      51.197  53.494  67.656  1.00  0.00     0.210 HD
ENDBRANCH   9  17
ENDBRANCH   1   4
BRANCH   1  19
HETATM   19  C4  UNL     1      51.731  49.171  67.360  1.00  0.00     0.235 C
BRANCH  19  20
HETATM   20  C5  UNL     1      51.376  48.098  68.351  1.00  0.00     0.027 C
BRANCH  20  21
HETATM   21  C6  UNL     1      52.527  47.368  68.948  1.00  0.00     0.002 C
BRANCH  21  22
HETATM   22  C7  UNL     1      52.232  46.770  70.313  1.00  0.00     0.000 C
BRANCH  22  23
HETATM   23  C8  UNL     1      52.235  47.766  71.393  1.00  0.00     0.000 C
BRANCH  23  24
HETATM   24  C9  UNL     1      51.028  47.841  72.227  1.00  0.00     0.005 C
BRANCH  24  25
HETATM   25  C10 UNL     1      49.836  48.569  71.702  1.00  0.00     0.044 C
BRANCH  25  26
HETATM   26  C11 UNL     1      48.540  47.941  71.859  1.00  0.00     0.056 C
BRANCH  26  27
HETATM   27  N2  UNL     1      47.573  47.929  70.841  1.00  0.00    -0.398 N
ATOM     28  H2  UNL     1      46.595  47.957  71.130  1.00  0.00     0.159 HD
BRANCH  27  29
HETATM   29  C12 UNL     1      47.826  47.882  69.483  1.00  0.00     0.080 C
HETATM   30  C13 UNL     1      48.040  46.552  68.844  1.00  0.00     0.025 C
HETATM   31  C14 UNL     1      46.610  45.986  68.787  1.00  0.00     0.002 C
HETATM   32  C15 UNL     1      45.674  47.123  68.990  1.00  0.00     0.002 C
HETATM   33  C16 UNL     1      46.540  48.337  68.754  1.00  0.00     0.025 C
ENDBRANCH  27  29
ENDBRANCH  26  27
ENDBRANCH  25  26
ENDBRANCH  24  25
ENDBRANCH  23  24
ENDBRANCH  22  23
ENDBRANCH  21  22
ENDBRANCH  20  21
ENDBRANCH  19  20
ENDBRANCH   1  19
TORSDOF 16
ENDMDL