MODEL 1
REMARK VINA RESULT: -6.353283106      0.000      0.000
REMARK  14 active torsions:
REMARK  status: ('A' for Active; 'I' for Inactive)
REMARK    1  A    between atoms: O1_2  and  C2_3
REMARK    2  A    between atoms: C2_3  and  C3_4
REMARK    3  A    between atoms: C3_4  and  C4_5
REMARK    4  A    between atoms: C4_5  and  C5_6
REMARK    5  A    between atoms: C5_6  and  C6_7
REMARK    6  A    between atoms: C6_7  and  N1_8
REMARK    7  A    between atoms: N1_8  and  C7_10
REMARK    8  A    between atoms: C7_10  and  C8_11
REMARK    9  A    between atoms: C10_16  and  C11_17
REMARK   10  A    between atoms: C11_17  and  C12_18
REMARK   11  A    between atoms: C13_19  and  C14_20
REMARK   12  A    between atoms: C14_20  and  C15_21
REMARK   13  A    between atoms: C18_26  and  O2_27
REMARK   14  A    between atoms: C19_29  and  O3_30
ROOT
HETATM    1  C8  UNL     1      51.586  47.777  68.968  1.00  0.00     0.188 C
HETATM    2  C9  UNL     1      51.134  49.160  68.711  1.00  0.00     0.272 C
HETATM    3  N2  UNL     1      49.765  48.970  68.199  1.00  0.00    -0.046 N
ATOM      4  H21 UNL     1      49.502  49.628  67.464  1.00  0.00     0.280 HD
ATOM      5  H22 UNL     1      49.034  49.239  68.859  1.00  0.00     0.280 HD
HETATM    6  C10 UNL     1      49.712  47.613  67.803  1.00  0.00     0.325 C
HETATM    7  O4  UNL     1      50.979  47.043  67.906  1.00  0.00    -0.346 OA
ENDROOT
BRANCH   6   8
HETATM    8  C11 UNL     1      48.720  46.849  68.684  1.00  0.00     0.088 C
BRANCH   8   9
HETATM    9  C12 UNL     1      47.614  47.828  69.003  1.00  0.00    -0.026 C
HETATM   10  C13 UNL     1      46.350  47.495  68.946  1.00  0.00    -0.029 C
BRANCH  10  11
HETATM   11  C14 UNL     1      45.209  48.374  69.242  1.00  0.00     0.052 C
BRANCH  11  12
HETATM   12  C15 UNL     1      44.758  48.278  70.641  1.00  0.00     0.130 C
HETATM   13  N3  UNL     1      43.332  48.087  70.757  1.00  0.00    -0.140 NA
HETATM   14  N4  UNL     1      42.584  49.229  70.561  1.00  0.00    -0.141 NA
HETATM   15  C16 UNL     1      42.979  50.339  71.367  1.00  0.00     0.122 C
HETATM   16  C17 UNL     1      42.220  51.562  70.871  1.00  0.00     0.032 C
HETATM   17  C18 UNL     1      44.446  50.659  71.271  1.00  0.00     0.168 C
HETATM   18  C19 UNL     1      45.242  49.410  71.519  1.00  0.00     0.169 C
BRANCH  17  19
HETATM   19  O2  UNL     1      44.706  51.616  72.253  1.00  0.00    -0.391 OA
ATOM     20  H2  UNL     1      43.987  52.236  72.222  1.00  0.00     0.210 HD
ENDBRANCH  17  19
BRANCH  18  21
HETATM   21  O3  UNL     1      45.023  49.035  72.838  1.00  0.00    -0.391 OA
ATOM     22  H3  UNL     1      45.282  48.126  72.923  1.00  0.00     0.210 HD
ENDBRANCH  18  21
ENDBRANCH  11  12
ENDBRANCH  10  11
ENDBRANCH   8   9
ENDBRANCH   6   8
BRANCH   1  23
HETATM   23  C7  UNL     1      53.047  47.538  68.992  1.00  0.00     0.093 C
BRANCH  23  24
HETATM   24  N1  UNL     1      53.657  47.278  70.200  1.00  0.00    -0.380 N
ATOM     25  H1  UNL     1      54.411  46.592  70.206  1.00  0.00     0.164 HD
BRANCH  24  26
HETATM   26  C6  UNL     1      53.325  47.881  71.423  1.00  0.00     0.060 C
BRANCH  26  27
HETATM   27  C5  UNL     1      54.554  47.863  72.324  1.00  0.00     0.044 C
BRANCH  27  28
HETATM   28  C4  UNL     1      55.684  47.094  71.741  1.00  0.00     0.007 C
BRANCH  28  29
HETATM   29  C3  UNL     1      56.581  46.407  72.711  1.00  0.00     0.027 C
BRANCH  29  30
HETATM   30  C2  UNL     1      58.006  46.377  72.143  1.00  0.00     0.167 C
BRANCH  30  31
HETATM   31  O1  UNL     1      58.255  45.134  71.554  1.00  0.00    -0.396 OA
HETATM   32  C1  UNL     1      58.310  44.135  72.510  1.00  0.00     0.201 C
ENDBRANCH  30  31
ENDBRANCH  29  30
ENDBRANCH  28  29
ENDBRANCH  27  28
ENDBRANCH  26  27
ENDBRANCH  24  26
ENDBRANCH  23  24
ENDBRANCH   1  23
TORSDOF 14
ENDMDL