MODEL 2
REMARK VINA RESULT: -6.377637037      3.372      6.894
REMARK  16 active torsions:
REMARK  status: ('A' for Active; 'I' for Inactive)
REMARK    1  A    between atoms: C2_3  and  C3_4
REMARK    2  A    between atoms: C4_5  and  C5_6
REMARK    3  A    between atoms: C6_7  and  C7_8
REMARK    4  A    between atoms: C7_8  and  C8_9
REMARK    5  A    between atoms: C8_9  and  C9_10
REMARK    6  A    between atoms: C9_10  and  C10_11
REMARK    7  A    between atoms: C10_11  and  C11_12
REMARK    8  A    between atoms: C11_12  and  C12_13
REMARK    9  A    between atoms: C12_13  and  C13_14
REMARK   10  A    between atoms: C13_14  and  C14_15
REMARK   11  A    between atoms: C15_18  and  C16_19
REMARK   12  A    between atoms: C16_19  and  O1_20
REMARK   13  A    between atoms: C17_22  and  O2_23
REMARK   14  A    between atoms: C18_25  and  O3_26
REMARK   15  A    between atoms: C19_28  and  O4_29
REMARK   16  A    between atoms: C20_31  and  O5_32
ROOT
HETATM    1  N1  UNL     1      47.625  43.797  67.817  1.00  0.00    -0.197 NA
HETATM    2  C1  UNL     1      47.420  44.909  68.033  1.00  0.00     0.062 C
HETATM    3  C2  UNL     1      47.143  46.342  68.310  1.00  0.00     0.151 C
ENDROOT
BRANCH   3   4
HETATM    4  C3  UNL     1      45.834  46.438  68.954  1.00  0.00    -0.013 C
HETATM    5  C4  UNL     1      45.175  47.562  69.056  1.00  0.00    -0.003 C
BRANCH   5   6
HETATM    6  C5  UNL     1      45.606  48.835  68.573  1.00  0.00    -0.004 C
HETATM    7  C6  UNL     1      45.205  49.978  69.083  1.00  0.00    -0.027 C
BRANCH   7   8
HETATM    8  C7  UNL     1      44.269  50.122  70.206  1.00  0.00     0.027 C
BRANCH   8   9
HETATM    9  C8  UNL     1      45.014  50.625  71.432  1.00  0.00     0.004 C
BRANCH   9  10
HETATM   10  C9  UNL     1      45.496  49.485  72.299  1.00  0.00     0.000 C
BRANCH  10  11
HETATM   11  C10 UNL     1      47.009  49.535  72.296  1.00  0.00     0.000 C
BRANCH  11  12
HETATM   12  C11 UNL     1      47.589  48.211  71.785  1.00  0.00     0.000 C
BRANCH  12  13
HETATM   13  C12 UNL     1      48.617  48.585  70.739  1.00  0.00     0.002 C
BRANCH  13  14
HETATM   14  C13 UNL     1      49.826  49.252  71.363  1.00  0.00     0.027 C
BRANCH  14  15
HETATM   15  C14 UNL     1      50.785  49.679  70.298  1.00  0.00     0.108 C
HETATM   16  N2  UNL     1      52.098  49.123  70.440  1.00  0.00    -0.406 N
HETATM   17  C15 UNL     1      52.236  47.741  70.258  1.00  0.00     0.132 C
ATOM     18  H2  UNL     1      52.902  49.710  70.664  1.00  0.00     0.154 HD
HETATM   19  C17 UNL     1      51.444  47.094  69.185  1.00  0.00     0.173 C
HETATM   20  C18 UNL     1      51.509  47.766  67.848  1.00  0.00     0.180 C
HETATM   21  C19 UNL     1      51.382  49.244  67.996  1.00  0.00     0.180 C
HETATM   22  C20 UNL     1      50.197  49.499  68.938  1.00  0.00     0.171 C
BRANCH  17  23
HETATM   23  C16 UNL     1      53.719  47.451  69.979  1.00  0.00     0.191 C
BRANCH  23  24
HETATM   24  O1  UNL     1      54.136  46.427  70.861  1.00  0.00    -0.399 OA
ATOM     25  H1  UNL     1      54.884  45.991  70.471  1.00  0.00     0.209 HD
ENDBRANCH  23  24
ENDBRANCH  17  23
BRANCH  19  26
HETATM   26  O2  UNL     1      51.988  45.797  68.997  1.00  0.00    -0.391 OA
ATOM     27  H2  UNL     1      52.413  45.798  68.147  1.00  0.00     0.210 HD
ENDBRANCH  19  26
BRANCH  20  28
HETATM   28  O3  UNL     1      50.381  47.326  67.119  1.00  0.00    -0.390 OA
ATOM     29  H3  UNL     1      50.657  46.560  66.630  1.00  0.00     0.210 HD
ENDBRANCH  20  28
BRANCH  21  30
HETATM   30  O4  UNL     1      51.087  49.793  66.737  1.00  0.00    -0.390 OA
ATOM     31  H4  UNL     1      51.027  50.737  66.828  1.00  0.00     0.210 HD
ENDBRANCH  21  30
BRANCH  22  32
HETATM   32  O5  UNL     1      49.588  50.694  68.488  1.00  0.00    -0.391 OA
ATOM     33  H5  UNL     1      48.640  50.626  68.519  1.00  0.00     0.210 HD
ENDBRANCH  22  32
ENDBRANCH  14  15
ENDBRANCH  13  14
ENDBRANCH  12  13
ENDBRANCH  11  12
ENDBRANCH  10  11
ENDBRANCH   9  10
ENDBRANCH   8   9
ENDBRANCH   7   8
ENDBRANCH   5   6
ENDBRANCH   3   4
TORSDOF 16
ENDMDL