MODEL 4
REMARK VINA RESULT: -5.947607164      2.567      5.947
REMARK  14 active torsions:
REMARK  status: ('A' for Active; 'I' for Inactive)
REMARK    1  A    between atoms: N1_2  and  C2_4
REMARK    2  A    between atoms: C2_4  and  O1_5
REMARK    3  A    between atoms: C2_4  and  C3_7
REMARK    4  A    between atoms: C3_7  and  C4_8
REMARK    5  A    between atoms: C3_7  and  C8_12
REMARK    6  A    between atoms: C4_8  and  C5_9
REMARK    7  A    between atoms: C8_12  and  C9_13
REMARK    8  A    between atoms: C9_13  and  O2_14
REMARK    9  A    between atoms: C9_13  and  N2_16
REMARK   10  A    between atoms: C13_21  and  C14_22
REMARK   11  A    between atoms: C14_22  and  N3_23
REMARK   12  A    between atoms: N3_23  and  C15_26
REMARK   13  A    between atoms: C15_26  and  O4_27
REMARK   14  A    between atoms: C15_26  and  C16_29
ROOT
HETATM    1  N2  UNL     1      49.783  48.798  68.833  1.00  0.00     0.147 N
HETATM    2  C10 UNL     1      49.796  48.877  70.265  1.00  0.00     0.281 C
HETATM    3  C11 UNL     1      50.942  48.209  70.941  1.00  0.00     0.056 C
HETATM    4  C12 UNL     1      52.254  48.329  70.209  1.00  0.00     0.172 C
HETATM    5  O3  UNL     1      52.081  48.368  68.828  1.00  0.00    -0.356 OA
HETATM    6  C13 UNL     1      51.114  49.243  68.403  1.00  0.00     0.388 C
ENDROOT
BRANCH   1   7
HETATM    7  C9  UNL     1      49.698  47.396  68.356  1.00  0.00     0.360 C
BRANCH   7   8
HETATM    8  C8  UNL     1      48.236  47.201  67.966  1.00  0.00     0.077 C
BRANCH   8   9
HETATM    9  C3  UNL     1      47.449  46.429  69.001  1.00  0.00     0.064 C
BRANCH   9  10
HETATM   10  C2  UNL     1      46.776  45.264  68.360  1.00  0.00     0.115 C
BRANCH  10  11
HETATM   11  N1  UNL     1      47.301  43.983  68.519  1.00  0.00    -0.379 N
HETATM   12  C1  UNL     1      47.645  43.126  67.479  1.00  0.00     0.148 C
ATOM     13  H1  UNL     1      47.444  43.648  69.472  1.00  0.00     0.160 HD
ENDBRANCH  10  11
BRANCH  10  14
HETATM   14  O1  UNL     1      45.383  45.309  68.303  1.00  0.00    -0.349 OA
ATOM     15  H1  UNL     1      45.017  46.179  68.404  1.00  0.00     0.219 HD
ENDBRANCH  10  14
ENDBRANCH   9  10
BRANCH   9  16
HETATM   16  C4  UNL     1      46.641  47.336  69.816  1.00  0.00     0.017 C
BRANCH  16  17
HETATM   17  C5  UNL     1      46.263  48.697  69.444  1.00  0.00    -0.014 A
HETATM   18  C6  UNL     1      44.823  49.062  69.968  1.00  0.00     0.005 A
HETATM   19  C7  UNL     1      45.287  49.278  68.559  1.00  0.00     0.005 A
ENDBRANCH  16  17
ENDBRANCH   9  16
ENDBRANCH   8   9
ENDBRANCH   7   8
BRANCH   7  20
HETATM   20  O2  UNL     1      50.485  47.375  67.218  1.00  0.00    -0.368 OA
ATOM     21  H2  UNL     1      50.636  46.475  66.955  1.00  0.00     0.212 HD
ENDBRANCH   7  20
ENDBRANCH   1   7
BRANCH   6  22
HETATM   22  C14 UNL     1      51.419  50.622  68.948  1.00  0.00     0.299 C
BRANCH  22  23
HETATM   23  N3  UNL     1      50.846  51.646  68.132  1.00  0.00    -0.039 N
ATOM     24  H32 UNL     1      51.507  51.937  67.412  1.00  0.00     0.280 HD
ATOM     25  H31 UNL     1      50.107  51.260  67.545  1.00  0.00     0.280 HD
BRANCH  23  26
HETATM   26  C15 UNL     1      50.361  52.792  68.860  1.00  0.00     0.369 C
BRANCH  26  27
HETATM   27  O4  UNL     1      50.029  53.832  67.956  1.00  0.00    -0.365 OA
ATOM     28  H4  UNL     1      50.110  53.521  67.062  1.00  0.00     0.212 HD
ENDBRANCH  26  27
BRANCH  26  29
HETATM   29  C16 UNL     1      49.190  52.530  69.703  1.00  0.00     0.065 A
HETATM   30  C17 UNL     1      47.918  52.206  69.290  1.00  0.00     0.031 A
HETATM   31  C18 UNL     1      47.163  52.048  70.418  1.00  0.00     0.019 A
HETATM   32  C19 UNL     1      47.968  52.275  71.507  1.00  0.00     0.088 A
HETATM   33  N4  UNL     1      49.187  52.565  71.049  1.00  0.00    -0.366 N
ATOM     34  H4  UNL     1      49.997  52.780  71.631  1.00  0.00     0.165 HD
ENDBRANCH  26  29
ENDBRANCH  23  26
ENDBRANCH  22  23
ENDBRANCH   6  22
TORSDOF 14
ENDMDL