MODEL 1
REMARK VINA RESULT: -5.539098609      0.000      0.000
REMARK  17 active torsions:
REMARK  status: ('A' for Active; 'I' for Inactive)
REMARK    1  A    between atoms: C2_2  and  C15_25
REMARK    2  A    between atoms: C3_3  and  C4_4
REMARK    3  A    between atoms: C4_4  and  C5_5
REMARK    4  A    between atoms: C5_5  and  O1_6
REMARK    5  A    between atoms: C5_5  and  C6_8
REMARK    6  A    between atoms: C6_8  and  O2_9
REMARK    7  A    between atoms: C6_8  and  C7_11
REMARK    8  A    between atoms: C7_11  and  O3_12
REMARK    9  A    between atoms: C7_11  and  C8_14
REMARK   10  A    between atoms: C8_14  and  O4_15
REMARK   11  A    between atoms: C8_14  and  C9_17
REMARK   12  A    between atoms: C9_17  and  O5_18
REMARK   13  A    between atoms: C9_17  and  C10_20
REMARK   14  A    between atoms: C10_20  and  C11_21
REMARK   15  A    between atoms: C11_21  and  C12_22
REMARK   16  A    between atoms: C16_27  and  C18_29
REMARK   17  A    between atoms: C18_29  and  O7_31
ROOT
HETATM    1  C6  UNL     1      50.376  51.176  69.458  1.00  0.00     0.178 C
ENDROOT
BRANCH   1   2
HETATM    2  C5  UNL     1      49.257  52.139  69.327  1.00  0.00     0.152 C
BRANCH   2   3
HETATM    3  C4  UNL     1      47.896  51.629  69.033  1.00  0.00     0.061 C
BRANCH   3   4
HETATM    4  C3  UNL     1      47.163  50.868  70.022  1.00  0.00    -0.019 C
HETATM    5  C2  UNL     1      46.160  50.021  69.724  1.00  0.00    -0.056 C
HETATM    6  C1  UNL     1      45.761  49.834  68.314  1.00  0.00     0.046 C
BRANCH   5   7
HETATM    7  C15 UNL     1      45.451  49.272  70.783  1.00  0.00     0.188 A
HETATM    8  O6  UNL     1      45.360  49.794  72.057  1.00  0.00    -0.362 OA
HETATM    9  C16 UNL     1      44.183  49.762  71.347  1.00  0.00     0.113 A
HETATM   10  C17 UNL     1      43.633  51.120  70.971  1.00  0.00     0.052 C
BRANCH   9  11
HETATM   11  C18 UNL     1      43.128  48.746  71.667  1.00  0.00     0.151 C
HETATM   12  C19 UNL     1      42.345  49.117  72.911  1.00  0.00     0.042 C
BRANCH  11  13
HETATM   13  O7  UNL     1      42.213  48.648  70.620  1.00  0.00    -0.393 OA
ATOM     14  H7  UNL     1      41.438  49.166  70.807  1.00  0.00     0.210 HD
ENDBRANCH  11  13
ENDBRANCH   9  11
ENDBRANCH   5   7
ENDBRANCH   3   4
ENDBRANCH   2   3
BRANCH   2  15
HETATM   15  O1  UNL     1      49.621  52.909  68.131  1.00  0.00    -0.393 OA
ATOM     16  H1  UNL     1      50.508  52.628  67.933  1.00  0.00     0.210 HD
ENDBRANCH   2  15
ENDBRANCH   1   2
BRANCH   1  17
HETATM   17  O2  UNL     1      51.569  51.780  69.700  1.00  0.00    -0.390 OA
ATOM     18  H2  UNL     1      51.689  52.012  70.614  1.00  0.00     0.210 HD
ENDBRANCH   1  17
BRANCH   1  19
HETATM   19  C7  UNL     1      50.321  50.046  68.511  1.00  0.00     0.180 C
BRANCH  19  20
HETATM   20  O3  UNL     1      51.044  50.303  67.366  1.00  0.00    -0.390 OA
ATOM     21  H3  UNL     1      50.721  49.803  66.625  1.00  0.00     0.210 HD
ENDBRANCH  19  20
BRANCH  19  22
HETATM   22  C8  UNL     1      50.871  48.754  69.070  1.00  0.00     0.178 C
BRANCH  22  23
HETATM   23  O4  UNL     1      50.793  48.819  70.456  1.00  0.00    -0.390 OA
ATOM     24  H4  UNL     1      51.511  48.310  70.814  1.00  0.00     0.210 HD
ENDBRANCH  22  23
BRANCH  22  25
HETATM   25  C9  UNL     1      50.218  47.515  68.596  1.00  0.00     0.149 C
BRANCH  25  26
HETATM   26  O5  UNL     1      50.907  47.120  67.421  1.00  0.00    -0.393 OA
ATOM     27  H5  UNL     1      50.898  46.170  67.410  1.00  0.00     0.210 HD
ENDBRANCH  25  26
BRANCH  25  28
HETATM   28  C10 UNL     1      48.779  47.682  68.200  1.00  0.00     0.035 C
BRANCH  28  29
HETATM   29  C11 UNL     1      47.955  46.750  69.056  1.00  0.00     0.006 C
BRANCH  29  30
HETATM   30  C12 UNL     1      46.969  45.951  68.242  1.00  0.00    -0.023 C
HETATM   31  C13 UNL     1      45.567  46.068  68.828  1.00  0.00     0.009 C
HETATM   32  C14 UNL     1      47.306  44.504  68.133  1.00  0.00     0.009 C
ENDBRANCH  29  30
ENDBRANCH  28  29
ENDBRANCH  25  28
ENDBRANCH  22  25
ENDBRANCH  19  22
ENDBRANCH   1  19
TORSDOF 17
ENDMDL