MODEL 2
REMARK VINA RESULT: -5.972669060      0.751      1.058
REMARK  16 active torsions:
REMARK  status: ('A' for Active; 'I' for Inactive)
REMARK    1  A    between atoms: O1_1  and  C1_3
REMARK    2  A    between atoms: C2_5  and  C3_6
REMARK    3  A    between atoms: C3_6  and  C4_7
REMARK    4  A    between atoms: C4_7  and  C5_8
REMARK    5  A    between atoms: C5_8  and  C6_9
REMARK    6  A    between atoms: C6_9  and  C7_10
REMARK    7  A    between atoms: C7_10  and  C8_11
REMARK    8  A    between atoms: C8_11  and  C9_12
REMARK    9  A    between atoms: C9_12  and  C10_13
REMARK   10  A    between atoms: C10_13  and  C11_14
REMARK   11  A    between atoms: C11_14  and  C12_15
REMARK   12  A    between atoms: C12_15  and  C13_16
REMARK   13  A    between atoms: C16_22  and  O3_23
REMARK   14  A    between atoms: C17_25  and  O4_26
REMARK   15  A    between atoms: C18_28  and  O5_29
REMARK   16  A    between atoms: C19_31  and  O6_32
ROOT
HETATM    1  C1  UNL     1      47.410  45.646  68.489  1.00  0.00     0.288 C
HETATM    2  O2  UNL     1      48.276  46.492  67.801  1.00  0.00    -0.351 OA
HETATM    3  C2  UNL     1      49.179  47.120  68.651  1.00  0.00     0.156 C
HETATM    4  C16 UNL     1      48.443  48.166  69.422  1.00  0.00     0.178 C
HETATM    5  C17 UNL     1      47.071  48.457  68.817  1.00  0.00     0.180 C
HETATM    6  C18 UNL     1      46.028  47.488  69.280  1.00  0.00     0.183 C
HETATM    7  C19 UNL     1      46.021  46.266  68.371  1.00  0.00     0.204 C
ENDROOT
BRANCH   3   8
HETATM    8  C3  UNL     1      50.291  47.720  67.779  1.00  0.00     0.035 C
BRANCH   8   9
HETATM    9  C4  UNL     1      51.557  47.627  68.597  1.00  0.00     0.002 C
BRANCH   9  10
HETATM   10  C5  UNL     1      51.751  46.304  69.247  1.00  0.00     0.000 C
BRANCH  10  11
HETATM   11  C6  UNL     1      53.095  46.119  69.877  1.00  0.00     0.000 C
BRANCH  11  12
HETATM   12  C7  UNL     1      53.725  47.455  70.226  1.00  0.00     0.000 C
BRANCH  12  13
HETATM   13  C8  UNL     1      54.343  47.466  71.577  1.00  0.00     0.000 C
BRANCH  13  14
HETATM   14  C9  UNL     1      53.824  48.628  72.377  1.00  0.00     0.000 C
BRANCH  14  15
HETATM   15  C10 UNL     1      52.304  48.613  72.533  1.00  0.00     0.000 C
BRANCH  15  16
HETATM   16  C11 UNL     1      51.719  49.966  72.328  1.00  0.00     0.002 C
BRANCH  16  17
HETATM   17  C12 UNL     1      50.899  50.048  71.094  1.00  0.00     0.033 C
BRANCH  17  18
HETATM   18  C13 UNL     1      50.643  51.440  70.632  1.00  0.00     0.187 C
HETATM   19  C14 UNL     1      51.263  51.706  69.251  1.00  0.00     0.060 C
HETATM   20  C15 UNL     1      49.891  51.413  68.688  1.00  0.00     0.235 C
HETATM   21  N1  UNL     1      49.333  51.587  70.003  1.00  0.00    -0.071 N
ATOM     22  H12 UNL     1      48.567  50.983  70.302  1.00  0.00     0.277 HD
ATOM     23  H11 UNL     1      48.777  52.419  70.201  1.00  0.00     0.277 HD
ENDBRANCH  17  18
ENDBRANCH  16  17
ENDBRANCH  15  16
ENDBRANCH  14  15
ENDBRANCH  13  14
ENDBRANCH  12  13
ENDBRANCH  11  12
ENDBRANCH  10  11
ENDBRANCH   9  10
ENDBRANCH   8   9
ENDBRANCH   3   8
BRANCH   4  24
HETATM   24  O3  UNL     1      48.195  47.726  70.733  1.00  0.00    -0.390 OA
ATOM     25  H3  UNL     1      47.288  47.461  70.830  1.00  0.00     0.210 HD
ENDBRANCH   4  24
BRANCH   1  26
HETATM   26  O1  UNL     1      47.419  44.371  67.917  1.00  0.00    -0.369 OA
ATOM     27  H1  UNL     1      47.194  43.716  68.567  1.00  0.00     0.212 HD
ENDBRANCH   1  26
BRANCH   5  28
HETATM   28  O4  UNL     1      46.701  49.725  69.298  1.00  0.00    -0.390 OA
ATOM     29  H4  UNL     1      45.947  49.581  69.858  1.00  0.00     0.210 HD
ENDBRANCH   5  28
BRANCH   7  30
HETATM   30  O6  UNL     1      45.044  45.362  68.754  1.00  0.00    -0.388 OA
ATOM     31  H6  UNL     1      44.315  45.374  68.146  1.00  0.00     0.210 HD
ENDBRANCH   7  30
BRANCH   6  32
HETATM   32  O5  UNL     1      44.780  48.093  69.223  1.00  0.00    -0.390 OA
ATOM     33  H5  UNL     1      44.782  48.870  69.769  1.00  0.00     0.210 HD
ENDBRANCH   6  32
TORSDOF 16
ENDMDL