MODEL 2
REMARK VINA RESULT: -6.707524011      4.727      7.027
REMARK  6 active torsions:
REMARK  status: ('A' for Active; 'I' for Inactive)
REMARK       I    between atoms: C1_4  and  N2_5
REMARK       I    between atoms: C1_4  and  N4_11
REMARK    1  A    between atoms: N2_5  and  C2_7
REMARK    2  A    between atoms: C2_7  and  C3_8
REMARK    3  A    between atoms: N4_11  and  C4_13
REMARK    4  A    between atoms: C4_13  and  C5_14
REMARK       I    between atoms: C5_14  and  N5_16
REMARK    5  A    between atoms: N5_16  and  N6_18
REMARK       I    between atoms: N6_18  and  C6_20
REMARK    6  A    between atoms: C6_20  and  C7_22
ROOT
HETATM    1  C5  UNL     1     -31.079  57.615  74.382  1.00  0.00     0.254 C
HETATM    2  O2  UNL     1     -31.091  56.601  73.665  1.00  0.00    -0.270 OA
HETATM    3  N5  UNL     1     -30.747  58.920  73.871  1.00  0.00    -0.266 N
ATOM      4  H5  UNL     1     -30.737  59.750  74.464  1.00  0.00     0.190 HD
ENDROOT
BRANCH   1   5
HETATM    5  C4  UNL     1     -31.414  57.520  75.828  1.00  0.00     0.242 C
BRANCH   5   6
HETATM    6  N4  UNL     1     -32.378  58.528  76.165  1.00  0.00    -0.218 N
HETATM    7  C1  UNL     1     -33.436  58.290  77.090  1.00  0.00     0.668 C
HETATM    8  N1  UNL     1     -33.668  57.109  77.462  1.00  0.00    -0.235 N
HETATM    9  N2  UNL     1     -34.179  59.426  77.551  1.00  0.00    -0.218 N
ATOM     10  H12 UNL     1     -34.425  56.939  78.124  1.00  0.00     0.174 HD
ATOM     11  H11 UNL     1     -33.139  56.301  77.134  1.00  0.00     0.174 HD
ATOM     12  H2  UNL     1     -33.709  60.315  77.721  1.00  0.00     0.178 HD
ATOM     13  H4  UNL     1     -32.304  59.446  75.727  1.00  0.00     0.178 HD
BRANCH   9  14
HETATM   14  C2  UNL     1     -35.603  59.298  77.773  1.00  0.00     0.237 C
BRANCH  14  15
HETATM   15  C3  UNL     1     -35.888  58.895  79.163  1.00  0.00     0.249 C
HETATM   16  N3  UNL     1     -36.261  57.557  79.422  1.00  0.00    -0.061 NA
HETATM   17  O1  UNL     1     -35.804  59.715  80.102  1.00  0.00    -0.275 OA
ENDBRANCH  14  15
ENDBRANCH   9  14
ENDBRANCH   5   6
ENDBRANCH   1   5
BRANCH   3  18
HETATM   18  N6  UNL     1     -30.440  58.974  72.519  1.00  0.00    -0.261 N
HETATM   19  C6  UNL     1     -31.378  59.520  71.618  1.00  0.00     0.306 C
HETATM   20  O3  UNL     1     -32.475  59.939  72.069  1.00  0.00    -0.262 OA
ATOM     21  H6  UNL     1     -29.545  58.622  72.180  1.00  0.00     0.190 HD
BRANCH  19  22
HETATM   22  C7  UNL     1     -31.144  59.625  70.186  1.00  0.00     0.208 A
HETATM   23  N7  UNL     1     -29.976  59.709  69.525  1.00  0.00    -0.264 N
HETATM   24  N8  UNL     1     -30.242  59.795  68.236  1.00  0.00    -0.226 N
ATOM     25  H7  UNL     1     -29.048  59.707  69.946  1.00  0.00     0.190 HD
HETATM   26  N9  UNL     1     -31.536  59.768  68.056  1.00  0.00    -0.226 N
ATOM     27  H8  UNL     1     -29.546  59.872  67.495  1.00  0.00     0.210 HD
HETATM   28  N10 UNL     1     -32.093  59.663  69.256  1.00  0.00    -0.264 N
ATOM     29  H9  UNL     1     -32.025  59.817  67.162  1.00  0.00     0.210 HD
ATOM     30  H10 UNL     1     -33.096  59.619  69.437  1.00  0.00     0.190 HD
ENDBRANCH  19  22
ENDBRANCH   3  18
TORSDOF 6
ENDMDL