MODEL 4
REMARK VINA RESULT: -6.069778736      1.156      1.761
REMARK  9 active torsions:
REMARK  status: ('A' for Active; 'I' for Inactive)
REMARK    1  A    between atoms: C1_4  and  C2_6
REMARK    2  A    between atoms: C2_6  and  C3_7
REMARK    3  A    between atoms: C3_7  and  N3_8
REMARK    4  A    between atoms: N3_8  and  C4_10
REMARK    5  A    between atoms: C5_13  and  N5_14
REMARK    6  A    between atoms: N6_17  and  C6_18
REMARK    7  A    between atoms: C6_18  and  C7_19
REMARK    8  A    between atoms: C7_19  and  S1_20
REMARK    9  A    between atoms: S1_20  and  N7_21
ROOT
HETATM    1  C4  UNL     1     -33.723  58.601  76.027  1.00  0.00     0.696 A
HETATM    2  N4  UNL     1     -33.389  58.261  74.769  1.00  0.00    -0.022 N
ATOM      3  H4  UNL     1     -33.795  58.773  73.987  1.00  0.00     0.203 HD
HETATM    4  C5  UNL     1     -32.525  57.252  74.524  1.00  0.00     0.696 A
HETATM    5  N6  UNL     1     -31.960  56.543  75.523  1.00  0.00    -0.131 N
HETATM    6  C8  UNL     1     -32.306  56.898  76.773  1.00  0.00     0.355 A
HETATM    7  O3  UNL     1     -31.805  56.265  77.766  1.00  0.00    -0.245 OA
HETATM    8  N8  UNL     1     -33.162  57.897  77.021  1.00  0.00    -0.140 N
ATOM      9  H8  UNL     1     -33.393  58.128  77.987  1.00  0.00     0.189 HD
ENDROOT
BRANCH   1  10
HETATM   10  N3  UNL     1     -34.558  59.576  76.257  1.00  0.00    -0.225 N
ATOM     11  H3  UNL     1     -35.291  59.812  75.587  1.00  0.00     0.177 HD
BRANCH  10  12
HETATM   12  C3  UNL     1     -34.413  60.305  77.479  1.00  0.00     0.145 C
BRANCH  12  13
HETATM   13  C2  UNL     1     -35.661  60.326  78.316  1.00  0.00     0.092 C
BRANCH  13  14
HETATM   14  C1  UNL     1     -35.808  59.134  79.166  1.00  0.00     0.088 C
HETATM   15  N1  UNL     1     -35.881  59.287  80.437  1.00  0.00    -0.391 N
ATOM     16  H12 UNL     1     -35.984  58.461  81.026  1.00  0.00     0.157 HD
ATOM     17  H11 UNL     1     -35.832  60.234  80.814  1.00  0.00     0.157 HD
HETATM   18  N2  UNL     1     -35.875  57.821  78.642  1.00  0.00    -0.088 NA
ENDBRANCH  13  14
ENDBRANCH  12  13
ENDBRANCH  10  12
ENDBRANCH   1  10
BRANCH   4  19
HETATM   19  N5  UNL     1     -32.234  56.960  73.328  1.00  0.00    -0.234 N
ATOM     20  H52 UNL     1     -31.307  56.587  73.124  1.00  0.00     0.174 HD
ATOM     21  H51 UNL     1     -32.928  57.105  72.594  1.00  0.00     0.174 HD
ENDBRANCH   4  19
BRANCH   5  22
HETATM   22  C6  UNL     1     -31.042  55.467  75.347  1.00  0.00     0.169 C
BRANCH  22  23
HETATM   23  C7  UNL     1     -31.659  54.101  75.441  1.00  0.00     0.183 C
BRANCH  23  24
HETATM   24  S1  UNL     1     -31.721  53.429  73.792  1.00  0.00     0.226 S
HETATM   25  O1  UNL     1     -30.729  54.078  72.895  1.00  0.00    -0.206 OA
HETATM   26  O2  UNL     1     -31.416  51.957  73.905  1.00  0.00    -0.206 OA
BRANCH  24  27
HETATM   27  N7  UNL     1     -33.331  53.558  73.161  1.00  0.00    -0.328 N
ATOM     28  H72 UNL     1     -34.176  53.496  73.729  1.00  0.00     0.168 HD
ATOM     29  H71 UNL     1     -33.299  53.703  72.152  1.00  0.00     0.168 HD
ENDBRANCH  24  27
ENDBRANCH  23  24
ENDBRANCH  22  23
ENDBRANCH   5  22
TORSDOF 9
ENDMDL