MODEL 2
REMARK VINA RESULT: -6.802229776      2.313      4.373
REMARK  7 active torsions:
REMARK  status: ('A' for Active; 'I' for Inactive)
REMARK    1  A    between atoms: N1_1  and  C1_4
REMARK       I    between atoms: N4_12  and  C4_13
REMARK    2  A    between atoms: C4_13  and  C5_15
REMARK    3  A    between atoms: C5_15  and  N5_16
REMARK    4  A    between atoms: N5_16  and  C6_18
REMARK    5  A    between atoms: C6_18  and  C7_19
REMARK    6  A    between atoms: C7_19  and  O3_20
REMARK    7  A    between atoms: O3_20  and  N6_21
ROOT
HETATM    1  C1  UNL     1     -33.343  56.886  77.411  1.00  0.00     0.680 A
HETATM    2  N2  UNL     1     -34.439  57.663  77.621  1.00  0.00    -0.154 N
ATOM      3  H2  UNL     1     -35.083  57.415  78.371  1.00  0.00     0.187 HD
HETATM    4  C2  UNL     1     -34.697  58.742  76.873  1.00  0.00     0.291 A
HETATM    5  O1  UNL     1     -35.725  59.432  77.103  1.00  0.00    -0.265 OA
HETATM    6  C3  UNL     1     -33.847  59.102  75.854  1.00  0.00     0.164 A
HETATM    7  N3  UNL     1     -33.437  59.861  74.843  1.00  0.00    -0.281 N
ATOM      8  H3  UNL     1     -33.822  60.701  74.412  1.00  0.00     0.188 HD
HETATM    9  N4  UNL     1     -32.361  59.148  74.594  1.00  0.00    -0.202 N
HETATM   10  C4  UNL     1     -31.244  59.139  73.687  1.00  0.00     0.261 C
HETATM   11  O2  UNL     1     -30.372  58.242  73.773  1.00  0.00    -0.269 OA
HETATM   12  C9  UNL     1     -32.718  58.330  75.614  1.00  0.00     0.179 A
HETATM   13  N9  UNL     1     -32.529  57.262  76.408  1.00  0.00    -0.172 N
ATOM     14  H9  UNL     1     -31.702  56.690  76.236  1.00  0.00     0.186 HD
ENDROOT
BRANCH  10  15
HETATM   15  C5  UNL     1     -31.212  60.218  72.700  1.00  0.00     0.219 C
BRANCH  15  16
HETATM   16  N5  UNL     1     -31.167  59.728  71.370  1.00  0.00    -0.411 N
ATOM     17  H5  UNL     1     -30.326  59.802  70.797  1.00  0.00     0.153 HD
BRANCH  16  18
HETATM   18  C6  UNL     1     -32.361  59.126  70.880  1.00  0.00     0.143 C
BRANCH  18  19
HETATM   19  C7  UNL     1     -33.537  60.106  70.892  1.00  0.00     0.220 C
BRANCH  19  20
HETATM   20  O3  UNL     1     -34.496  59.679  71.791  1.00  0.00    -0.277 OA
BRANCH  20  21
HETATM   21  N6  UNL     1     -35.728  60.114  72.046  1.00  0.00    -0.241 N
HETATM   22  C8  UNL     1     -36.538  59.570  72.845  1.00  0.00     0.221 C
HETATM   23  N7  UNL     1     -37.862  60.095  73.076  1.00  0.00    -0.065 NA
HETATM   24  N8  UNL     1     -36.238  58.398  73.585  1.00  0.00    -0.065 NA
ATOM     25  H6  UNL     1     -36.040  60.952  71.558  1.00  0.00     0.196 HD
ENDBRANCH  20  21
ENDBRANCH  19  20
ENDBRANCH  18  19
ENDBRANCH  16  18
ENDBRANCH  15  16
ENDBRANCH  10  15
BRANCH   1  26
HETATM   26  N1  UNL     1     -33.099  55.850  78.141  1.00  0.00    -0.234 N
ATOM     27  H12 UNL     1     -33.823  55.172  78.378  1.00  0.00     0.174 HD
ATOM     28  H11 UNL     1     -32.166  55.664  78.509  1.00  0.00     0.174 HD
ENDBRANCH   1  26
TORSDOF 7
ENDMDL