MODEL 3
REMARK VINA RESULT: -6.657344441      3.462      4.892
REMARK  10 active torsions:
REMARK  status: ('A' for Active; 'I' for Inactive)
REMARK    1  A    between atoms: N2_4  and  N3_6
REMARK       I    between atoms: N3_6  and  C1_8
REMARK    2  A    between atoms: N5_10  and  C2_12
REMARK    3  A    between atoms: C2_12  and  C3_13
REMARK    4  A    between atoms: C4_16  and  N7_17
REMARK    5  A    between atoms: N9_23  and  C6_25
REMARK    6  A    between atoms: C6_25  and  O1_26
REMARK    7  A    between atoms: C6_25  and  C7_28
REMARK    8  A    between atoms: C7_28  and  C8_29
REMARK    9  A    between atoms: C8_29  and  C9_30
REMARK   10  A    between atoms: C9_30  and  N10_31
ROOT
HETATM    1  C3  UNL     1     -34.125  58.137  76.336  1.00  0.00     0.131 A
HETATM    2  N6  UNL     1     -34.608  59.060  77.185  1.00  0.00    -0.176 N
ATOM      3  H6  UNL     1     -34.120  59.239  78.063  1.00  0.00     0.185 HD
HETATM    4  C4  UNL     1     -35.718  59.747  76.897  1.00  0.00     0.722 A
HETATM    5  N8  UNL     1     -36.348  59.489  75.720  1.00  0.00    -0.020 N
ATOM      6  H8  UNL     1     -37.195  60.013  75.499  1.00  0.00     0.203 HD
HETATM    7  C5  UNL     1     -35.919  58.594  74.847  1.00  0.00     0.696 A
HETATM    8  N9  UNL     1     -36.512  58.350  73.737  1.00  0.00    -0.199 N
ATOM      9  H9  UNL     1     -36.138  57.648  73.099  1.00  0.00     0.180 HD
HETATM   10  N11 UNL     1     -34.781  57.915  75.185  1.00  0.00    -0.178 N
ATOM     11  H11 UNL     1     -34.416  57.215  74.539  1.00  0.00     0.185 HD
ENDROOT
BRANCH   1  12
HETATM   12  C2  UNL     1     -32.888  57.399  76.699  1.00  0.00     0.199 C
BRANCH  12  13
HETATM   13  N5  UNL     1     -32.478  56.543  75.592  1.00  0.00    -0.356 N
HETATM   14  C1  UNL     1     -31.376  56.733  74.971  1.00  0.00     0.204 C
HETATM   15  N3  UNL     1     -30.529  57.799  75.361  1.00  0.00    -0.260 N
HETATM   16  N4  UNL     1     -31.027  55.870  73.901  1.00  0.00    -0.062 NA
ATOM     17  H3  UNL     1     -30.129  57.795  76.299  1.00  0.00     0.191 HD
ATOM     18  H5  UNL     1     -33.085  55.774  75.307  1.00  0.00     0.162 HD
BRANCH  15  19
HETATM   19  N2  UNL     1     -30.227  58.852  74.504  1.00  0.00    -0.247 N
HETATM   20  N1  UNL     1     -30.633  58.885  73.303  1.00  0.00    -0.331 N
ATOM     21  H12 UNL     1     -31.200  58.105  72.971  1.00  0.00     0.178 HD
ATOM     22  H11 UNL     1     -30.412  59.657  72.674  1.00  0.00     0.178 HD
ATOM     23  H2  UNL     1     -29.659  59.624  74.853  1.00  0.00     0.207 HD
ENDBRANCH  15  19
ENDBRANCH  12  13
ENDBRANCH   1  12
BRANCH   4  24
HETATM   24  N7  UNL     1     -36.159  60.619  77.720  1.00  0.00    -0.053 N
HETATM   25  F1  UNL     1     -35.322  61.576  78.161  1.00  0.00    -0.086 F
ATOM     26  H7  UNL     1     -37.127  60.591  78.038  1.00  0.00     0.218 HD
ENDBRANCH   4  24
BRANCH   8  27
HETATM   27  C6  UNL     1     -37.709  59.072  73.397  1.00  0.00     0.235 C
BRANCH  27  28
HETATM   28  O1  UNL     1     -37.343  60.300  72.807  1.00  0.00    -0.376 OA
ATOM     29  H1  UNL     1     -36.757  60.125  72.080  1.00  0.00     0.212 HD
ENDBRANCH  27  28
BRANCH  27  30
HETATM   30  C7  UNL     1     -38.575  58.304  72.416  1.00  0.00     0.056 C
BRANCH  30  31
HETATM   31  C8  UNL     1     -38.566  56.825  72.702  1.00  0.00     0.031 C
BRANCH  31  32
HETATM   32  C9  UNL     1     -39.959  56.299  72.963  1.00  0.00     0.230 C
BRANCH  32  33
HETATM   33  N10 UNL     1     -40.067  55.783  74.305  1.00  0.00    -0.079 N
ATOM     34 3H10 UNL     1     -39.677  54.843  74.381  1.00  0.00     0.274 HD
ATOM     35 2H10 UNL     1     -39.435  56.263  74.945  1.00  0.00     0.274 HD
ATOM     36 1H10 UNL     1     -41.033  55.818  74.628  1.00  0.00     0.274 HD
ENDBRANCH  32  33
ENDBRANCH  31  32
ENDBRANCH  30  31
ENDBRANCH  27  30
ENDBRANCH   8  27
TORSDOF 10
ENDMDL