MODEL 2
REMARK VINA RESULT: -6.056167243      1.983      3.352
REMARK  7 active torsions:
REMARK  status: ('A' for Active; 'I' for Inactive)
REMARK       I    between atoms: C1_4  and  N3_6
REMARK    1  A    between atoms: N3_6  and  C2_8
REMARK    2  A    between atoms: C2_8  and  C3_9
REMARK    3  A    between atoms: C3_9  and  C4_10
REMARK    4  A    between atoms: C4_10  and  N4_11
REMARK    5  A    between atoms: C4_10  and  C5_15
REMARK       I    between atoms: C5_15  and  N5_17
REMARK    6  A    between atoms: N5_17  and  C6_19
REMARK    7  A    between atoms: C6_19  and  C7_20
ROOT
HETATM    1  C5  UNL     1     -34.426  58.289  74.325  1.00  0.00     0.249 C
HETATM    2  O1  UNL     1     -34.009  59.039  75.289  1.00  0.00    -0.271 OA
HETATM    3  N5  UNL     1     -33.682  57.196  73.956  1.00  0.00    -0.335 N
ATOM      4  H5  UNL     1     -34.062  56.655  73.179  1.00  0.00     0.164 HD
ENDROOT
BRANCH   1   5
HETATM    5  C4  UNL     1     -35.692  58.635  73.650  1.00  0.00     0.276 C
BRANCH   5   6
HETATM    6  C3  UNL     1     -36.263  57.417  72.914  1.00  0.00     0.062 C
BRANCH   6   7
HETATM    7  C2  UNL     1     -37.718  57.237  73.250  1.00  0.00     0.125 C
BRANCH   7   8
HETATM    8  N3  UNL     1     -38.217  55.957  72.843  1.00  0.00    -0.365 N
HETATM    9  C1  UNL     1     -39.002  55.146  73.719  1.00  0.00     0.181 C
HETATM   10  N1  UNL     1     -40.007  55.670  74.347  1.00  0.00    -0.374 N
HETATM   11  N2  UNL     1     -38.677  53.793  73.883  1.00  0.00    -0.064 NA
ATOM     12  H12 UNL     1     -40.567  55.090  74.973  1.00  0.00     0.158 HD
ATOM     13  H11 UNL     1     -40.244  56.654  74.229  1.00  0.00     0.158 HD
ATOM     14  H3  UNL     1     -38.007  55.616  71.904  1.00  0.00     0.162 HD
ENDBRANCH   7   8
ENDBRANCH   6   7
ENDBRANCH   5   6
BRANCH   5  15
HETATM   15  N4  UNL     1     -35.402  59.664  72.644  1.00  0.00    -0.066 N
ATOM     16  H43 UNL     1     -34.720  59.360  71.949  1.00  0.00     0.275 HD
ATOM     17  H42 UNL     1     -36.181  59.825  72.005  1.00  0.00     0.275 HD
ATOM     18  H41 UNL     1     -35.115  60.507  73.141  1.00  0.00     0.275 HD
ENDBRANCH   5  15
ENDBRANCH   1   5
BRANCH   3  19
HETATM   19  C6  UNL     1     -32.439  56.694  74.502  1.00  0.00     0.176 C
HETATM   20  C8  UNL     1     -32.189  55.403  73.545  1.00  0.00     0.151 C
HETATM   21  C9  UNL     1     -31.188  54.728  74.382  1.00  0.00     0.226 C
HETATM   22  O3  UNL     1     -30.176  54.066  74.027  1.00  0.00    -0.273 OA
HETATM   23  N7  UNL     1     -31.596  54.974  75.707  1.00  0.00    -0.316 N
HETATM   24  C10 UNL     1     -32.311  56.102  75.764  1.00  0.00     0.134 C
ATOM     25  H7  UNL     1     -31.379  54.378  76.507  1.00  0.00     0.169 HD
HETATM   26  N8  UNL     1     -32.754  56.433  77.115  1.00  0.00    -0.084 NA
BRANCH  19  27
HETATM   27  C7  UNL     1     -31.354  57.578  74.042  1.00  0.00     0.267 C
HETATM   28  N6  UNL     1     -30.442  58.106  75.027  1.00  0.00    -0.059 NA
HETATM   29  O2  UNL     1     -31.207  57.890  72.852  1.00  0.00    -0.274 OA
ENDBRANCH  19  27
ENDBRANCH   3  19
TORSDOF 7
ENDMDL