MODEL 2
REMARK VINA RESULT: -6.460160717      2.888      7.131
REMARK  9 active torsions:
REMARK  status: ('A' for Active; 'I' for Inactive)
REMARK       I    between atoms: C1_4  and  N3_6
REMARK    1  A    between atoms: C5_10  and  N4_11
REMARK       I    between atoms: N4_11  and  C6_13
REMARK    2  A    between atoms: C6_13  and  C7_15
REMARK    3  A    between atoms: C7_15  and  C8_17
REMARK    4  A    between atoms: C8_17  and  C9_18
REMARK    5  A    between atoms: C9_18  and  C10_19
REMARK    6  A    between atoms: C10_19  and  N5_20
REMARK    7  A    between atoms: C10_19  and  C11_24
REMARK    8  A    between atoms: C11_24  and  N6_25
REMARK    9  A    between atoms: N6_25  and  N7_26
ROOT
HETATM    1  N4  UNL     1     -34.476  57.970  74.778  1.00  0.00    -0.332 N
ATOM      2  H4  UNL     1     -34.801  57.573  75.660  1.00  0.00     0.165 HD
HETATM    3  C6  UNL     1     -35.302  58.909  74.119  1.00  0.00     0.288 C
HETATM    4  O1  UNL     1     -34.876  59.376  73.042  1.00  0.00    -0.264 OA
ENDROOT
BRANCH   3   5
HETATM    5  C7  UNL     1     -36.587  59.346  74.619  1.00  0.00     0.216 C
HETATM    6  O2  UNL     1     -37.399  59.758  73.707  1.00  0.00    -0.287 OA
BRANCH   5   7
HETATM    7  C8  UNL     1     -37.026  59.360  76.017  1.00  0.00     0.091 C
BRANCH   7   8
HETATM    8  C9  UNL     1     -36.259  60.223  76.945  1.00  0.00     0.042 C
BRANCH   8   9
HETATM    9  C10 UNL     1     -35.438  59.389  77.907  1.00  0.00     0.200 C
BRANCH   9  10
HETATM   10  N5  UNL     1     -34.021  59.696  77.707  1.00  0.00    -0.074 N
ATOM     11  H53 UNL     1     -33.691  60.436  78.327  1.00  0.00     0.274 HD
ATOM     12  H52 UNL     1     -33.410  58.949  78.040  1.00  0.00     0.274 HD
ATOM     13  H51 UNL     1     -33.866  59.915  76.723  1.00  0.00     0.274 HD
ENDBRANCH   9  10
BRANCH   9  14
HETATM   14  C11 UNL     1     -35.773  59.782  79.313  1.00  0.00     0.167 C
BRANCH  14  15
HETATM   15  N6  UNL     1     -36.323  58.651  80.055  1.00  0.00    -0.146 NA
BRANCH  15  16
HETATM   16  N7  UNL     1     -35.926  57.499  79.358  1.00  0.00    -0.348 N
ATOM     17  H72 UNL     1     -34.995  57.083  79.363  1.00  0.00     0.172 HD
ATOM     18  H71 UNL     1     -36.752  57.175  78.856  1.00  0.00     0.172 HD
ENDBRANCH  15  16
ENDBRANCH  14  15
ENDBRANCH   9  14
ENDBRANCH   8   9
ENDBRANCH   7   8
ENDBRANCH   5   7
ENDBRANCH   3   5
BRANCH   1  19
HETATM   19  C5  UNL     1     -33.190  57.545  74.262  1.00  0.00     0.200 C
HETATM   20  C4  UNL     1     -32.127  58.308  74.957  1.00  0.00     0.050 C
HETATM   21  C3  UNL     1     -30.743  57.682  74.859  1.00  0.00     0.026 C
HETATM   22  C2  UNL     1     -30.917  56.305  75.521  1.00  0.00     0.152 C
HETATM   23  N3  UNL     1     -31.867  55.615  74.671  1.00  0.00    -0.268 N
HETATM   24  C1  UNL     1     -31.498  54.342  74.174  1.00  0.00     0.202 C
HETATM   25  N8  UNL     1     -33.085  56.125  74.329  1.00  0.00    -0.309 N
HETATM   26  N1  UNL     1     -32.061  53.240  74.524  1.00  0.00    -0.372 N
HETATM   27  N2  UNL     1     -30.441  54.288  73.232  1.00  0.00    -0.062 NA
ATOM     28  H12 UNL     1     -31.795  52.322  74.166  1.00  0.00     0.158 HD
ATOM     29  H11 UNL     1     -32.822  53.279  75.202  1.00  0.00     0.158 HD
ATOM     30  H8  UNL     1     -33.882  55.520  74.131  1.00  0.00     0.182 HD
ENDBRANCH   1  19
TORSDOF 9
ENDMDL