MODEL 2
REMARK VINA RESULT: -6.916445914      2.361      4.653
REMARK  13 active torsions:
REMARK  status: ('A' for Active; 'I' for Inactive)
REMARK       I    between atoms: C1_4  and  N2_5
REMARK       I    between atoms: C1_4  and  N9_30
REMARK    1  A    between atoms: N2_5  and  C2_7
REMARK    2  A    between atoms: C3_10  and  N4_11
REMARK    3  A    between atoms: N4_11  and  C4_13
REMARK    4  A    between atoms: C4_13  and  C5_14
REMARK    5  A    between atoms: C5_14  and  C6_15
REMARK    6  A    between atoms: C6_15  and  C7_16
REMARK    7  A    between atoms: C7_16  and  C8_17
REMARK    8  A    between atoms: C8_17  and  O1_18
REMARK    9  A    between atoms: C9_22  and  N6_23
REMARK   10  A    between atoms: N6_23  and  N7_25
REMARK   11  A    between atoms: N9_30  and  N10_32
REMARK   12  A    between atoms: N10_32  and  N11_33
REMARK   13  A    between atoms: N10_32  and  O2_36
ROOT
HETATM    1  C2  UNL     1     -33.918  57.504  77.069  1.00  0.00     0.726 A
HETATM    2  N3  UNL     1     -33.948  57.391  75.729  1.00  0.00    -0.021 N
ATOM      3  H3  UNL     1     -33.697  56.508  75.285  1.00  0.00     0.203 HD
HETATM    4  C3  UNL     1     -34.312  58.451  74.972  1.00  0.00     0.707 A
HETATM    5  N5  UNL     1     -34.630  59.583  75.622  1.00  0.00    -0.020 N
ATOM      6  H5  UNL     1     -34.908  60.395  75.070  1.00  0.00     0.203 HD
HETATM    7  C9  UNL     1     -34.601  59.705  76.969  1.00  0.00     0.725 A
HETATM    8  N8  UNL     1     -34.238  58.644  77.711  1.00  0.00    -0.019 N
ATOM      9  H8  UNL     1     -34.206  58.701  78.729  1.00  0.00     0.203 HD
ENDROOT
BRANCH   1  10
HETATM   10  N2  UNL     1     -33.569  56.492  77.826  1.00  0.00    -0.020 N
HETATM   11  C1  UNL     1     -32.345  55.823  77.582  1.00  0.00     0.704 C
HETATM   12  N1  UNL     1     -31.278  56.286  78.102  1.00  0.00    -0.233 N
HETATM   13  N9  UNL     1     -32.294  54.667  76.784  1.00  0.00    -0.110 N
ATOM     14  H12 UNL     1     -31.315  57.124  78.681  1.00  0.00     0.174 HD
ATOM     15  H11 UNL     1     -30.397  55.804  77.926  1.00  0.00     0.174 HD
ATOM     16  H9  UNL     1     -32.842  53.864  77.092  1.00  0.00     0.203 HD
ATOM     17  H2  UNL     1     -34.178  56.188  78.586  1.00  0.00     0.203 HD
BRANCH  13  18
HETATM   18  N10 UNL     1     -31.565  54.523  75.618  1.00  0.00     0.004 NA
BRANCH  18  19
HETATM   19  N11 UNL     1     -32.325  54.823  74.485  1.00  0.00    -0.322 NA
ATOM     20 2H11 UNL     1     -31.844  55.429  73.821  1.00  0.00     0.175 HD
ATOM     21 1H11 UNL     1     -32.674  53.982  74.025  1.00  0.00     0.175 HD
ENDBRANCH  18  19
BRANCH  18  22
HETATM   22  O2  UNL     1     -30.984  53.327  75.566  1.00  0.00    -0.276 OA
ATOM     23  H2  UNL     1     -31.447  52.751  74.967  1.00  0.00     0.241 HD
ENDBRANCH  18  22
ENDBRANCH  13  18
ENDBRANCH   1  10
BRANCH   4  24
HETATM   24  N4  UNL     1     -34.349  58.362  73.670  1.00  0.00    -0.225 N
ATOM     25  H4  UNL     1     -34.558  57.479  73.205  1.00  0.00     0.177 HD
BRANCH  24  26
HETATM   26  C4  UNL     1     -34.082  59.555  72.918  1.00  0.00     0.138 C
BRANCH  26  27
HETATM   27  C5  UNL     1     -32.779  59.481  72.167  1.00  0.00     0.020 C
BRANCH  27  28
HETATM   28  C6  UNL     1     -31.634  59.917  73.055  1.00  0.00     0.004 C
BRANCH  28  29
HETATM   29  C7  UNL     1     -30.731  58.750  73.359  1.00  0.00     0.026 C
BRANCH  29  30
HETATM   30  C8  UNL     1     -30.663  58.478  74.847  1.00  0.00     0.164 C
BRANCH  30  31
HETATM   31  O1  UNL     1     -30.677  57.143  75.163  1.00  0.00    -0.401 OA
ATOM     32  H1  UNL     1     -30.539  56.969  76.086  1.00  0.00     0.209 HD
ENDBRANCH  30  31
ENDBRANCH  29  30
ENDBRANCH  28  29
ENDBRANCH  27  28
ENDBRANCH  26  27
ENDBRANCH  24  26
ENDBRANCH   4  24
BRANCH   7  33
HETATM   33  N6  UNL     1     -34.928  60.850  77.508  1.00  0.00    -0.138 N
ATOM     34  H6  UNL     1     -34.536  61.730  77.174  1.00  0.00     0.205 HD
BRANCH  33  35
HETATM   35  N7  UNL     1     -35.836  60.810  78.556  1.00  0.00    -0.331 N
ATOM     36  H72 UNL     1     -35.577  61.150  79.483  1.00  0.00     0.177 HD
ATOM     37  H71 UNL     1     -36.759  60.427  78.350  1.00  0.00     0.177 HD
ENDBRANCH  33  35
ENDBRANCH   7  33
TORSDOF 13
ENDMDL