MODEL 2
REMARK VINA RESULT: -6.883407007      2.748      4.638
REMARK  9 active torsions:
REMARK  status: ('A' for Active; 'I' for Inactive)
REMARK       I    between atoms: C1_4  and  N3_6
REMARK    1  A    between atoms: N3_6  and  C2_8
REMARK    2  A    between atoms: C5_17  and  N6_18
REMARK    3  A    between atoms: N6_18  and  C6_20
REMARK    4  A    between atoms: C6_20  and  C7_21
REMARK    5  A    between atoms: C7_21  and  O3_22
REMARK    6  A    between atoms: O3_22  and  N7_23
REMARK    7  A    between atoms: N7_23  and  C8_24
REMARK    8  A    between atoms: C8_24  and  C9_25
REMARK    9  A    between atoms: C9_25  and  O4_26
ROOT
HETATM    1  C2  UNL     1     -33.522  58.512  76.577  1.00  0.00     0.690 C
HETATM    2  N4  UNL     1     -33.450  57.397  77.309  1.00  0.00    -0.141 N
ATOM      3  H4  UNL     1     -34.067  57.333  78.118  1.00  0.00     0.189 HD
HETATM    4  C3  UNL     1     -32.636  56.349  77.076  1.00  0.00     0.341 C
HETATM    5  O1  UNL     1     -32.720  55.454  77.935  1.00  0.00    -0.246 OA
HETATM    6  N5  UNL     1     -31.756  56.101  76.090  1.00  0.00    -0.272 N
ATOM      7  H5  UNL     1     -31.187  55.260  76.178  1.00  0.00     0.174 HD
HETATM    8  C4  UNL     1     -31.554  56.870  74.987  1.00  0.00     0.293 C
HETATM    9  O2  UNL     1     -31.076  56.267  73.995  1.00  0.00    -0.264 OA
HETATM   10  C5  UNL     1     -31.818  58.223  74.848  1.00  0.00     0.185 C
HETATM   11  N8  UNL     1     -32.829  58.874  75.479  1.00  0.00    -0.171 N
ATOM     12  H8  UNL     1     -33.103  59.764  75.063  1.00  0.00     0.186 HD
ENDROOT
BRANCH  10  13
HETATM   13  N6  UNL     1     -31.072  58.893  74.090  1.00  0.00    -0.369 N
ATOM     14  H6  UNL     1     -30.094  58.600  74.086  1.00  0.00     0.161 HD
BRANCH  13  15
HETATM   15  C6  UNL     1     -31.369  59.993  73.238  1.00  0.00     0.149 C
BRANCH  15  16
HETATM   16  C7  UNL     1     -31.508  59.440  71.807  1.00  0.00     0.215 C
BRANCH  16  17
HETATM   17  O3  UNL     1     -30.547  58.488  71.601  1.00  0.00    -0.285 OA
BRANCH  17  18
HETATM   18  N7  UNL     1     -30.718  57.842  70.464  1.00  0.00    -0.099 NA
BRANCH  18  19
HETATM   19  C8  UNL     1     -30.481  58.680  69.339  1.00  0.00     0.168 C
BRANCH  19  20
HETATM   20  C9  UNL     1     -29.030  58.453  68.912  1.00  0.00     0.182 C
BRANCH  20  21
HETATM   21  O4  UNL     1     -28.214  58.516  70.032  1.00  0.00    -0.400 OA
ATOM     22  H4  UNL     1     -27.721  57.707  70.102  1.00  0.00     0.209 HD
ENDBRANCH  20  21
ENDBRANCH  19  20
ENDBRANCH  18  19
ENDBRANCH  17  18
ENDBRANCH  16  17
ENDBRANCH  15  16
ENDBRANCH  13  15
ENDBRANCH  10  13
BRANCH   1  23
HETATM   23  N3  UNL     1     -34.373  59.370  76.968  1.00  0.00    -0.163 N
HETATM   24  C1  UNL     1     -35.727  59.134  77.234  1.00  0.00     0.200 C
HETATM   25  N1  UNL     1     -36.664  59.176  76.348  1.00  0.00    -0.373 N
HETATM   26  N2  UNL     1     -36.114  58.826  78.564  1.00  0.00    -0.063 NA
ATOM     27  H12 UNL     1     -37.650  59.004  76.542  1.00  0.00     0.158 HD
ATOM     28  H11 UNL     1     -36.386  59.398  75.392  1.00  0.00     0.158 HD
ATOM     29  H3  UNL     1     -34.037  60.324  77.101  1.00  0.00     0.187 HD
ENDBRANCH   1  23
TORSDOF 9
ENDMDL