MODEL 1
REMARK VINA RESULT: -6.609570079      0.000      0.000
REMARK  8 active torsions:
REMARK  status: ('A' for Active; 'I' for Inactive)
REMARK    1  A    between atoms: N1_1  and  N2_4
REMARK    2  A    between atoms: C1_6  and  C2_7
REMARK    3  A    between atoms: C1_6  and  N7_17
REMARK    4  A    between atoms: C2_7  and  N3_8
REMARK       I    between atoms: C3_10  and  N5_12
REMARK    5  A    between atoms: N5_12  and  N6_14
REMARK    6  A    between atoms: N7_17  and  C4_19
REMARK    7  A    between atoms: C4_19  and  C5_20
REMARK    8  A    between atoms: C5_20  and  N8_21
ROOT
HETATM    1  N2  UNL     1     -32.142  59.650  72.647  1.00  0.00    -0.294 N
ATOM      2  H2  UNL     1     -32.184  59.412  71.656  1.00  0.00     0.187 HD
HETATM    3  C1  UNL     1     -33.137  59.313  73.385  1.00  0.00     0.109 C
ENDROOT
BRANCH   3   4
HETATM    4  C2  UNL     1     -34.278  58.598  72.739  1.00  0.00     0.199 C
BRANCH   4   5
HETATM    5  N3  UNL     1     -35.434  59.441  72.741  1.00  0.00    -0.356 N
HETATM    6  C3  UNL     1     -36.548  59.055  73.259  1.00  0.00     0.202 C
HETATM    7  N4  UNL     1     -37.629  59.959  73.212  1.00  0.00    -0.062 NA
HETATM    8  N5  UNL     1     -36.631  57.768  73.839  1.00  0.00    -0.280 N
ATOM      9  H5  UNL     1     -36.084  57.546  74.671  1.00  0.00     0.189 HD
ATOM     10  H3  UNL     1     -35.375  60.369  72.322  1.00  0.00     0.162 HD
BRANCH   8  11
HETATM   11  N6  UNL     1     -37.470  56.793  73.267  1.00  0.00    -0.343 N
ATOM     12  H62 UNL     1     -38.385  57.072  72.914  1.00  0.00     0.176 HD
ATOM     13  H61 UNL     1     -37.158  55.823  73.211  1.00  0.00     0.176 HD
ENDBRANCH   8  11
ENDBRANCH   4   5
ENDBRANCH   3   4
BRANCH   3  14
HETATM   14  N7  UNL     1     -33.243  59.567  74.768  1.00  0.00    -0.376 N
ATOM     15  H7  UNL     1     -33.139  60.518  75.122  1.00  0.00     0.160 HD
BRANCH  14  16
HETATM   16  C4  UNL     1     -33.499  58.487  75.678  1.00  0.00     0.141 C
BRANCH  16  17
HETATM   17  C5  UNL     1     -32.285  58.098  76.498  1.00  0.00     0.157 C
BRANCH  17  18
HETATM   18  N8  UNL     1     -31.891  56.748  76.072  1.00  0.00    -0.265 N
HETATM   19  C6  UNL     1     -32.336  55.734  76.838  1.00  0.00     0.254 A
HETATM   20  O1  UNL     1     -33.052  55.946  77.859  1.00  0.00    -0.268 OA
HETATM   21  C7  UNL     1     -31.992  54.456  76.479  1.00  0.00     0.119 A
HETATM   22  C8  UNL     1     -31.214  54.254  75.367  1.00  0.00     0.125 A
HETATM   23  N9  UNL     1     -30.838  52.914  74.971  1.00  0.00    -0.082 NA
HETATM   24  N10 UNL     1     -30.800  55.307  74.640  1.00  0.00    -0.296 N
HETATM   25  C9  UNL     1     -31.131  56.561  74.981  1.00  0.00     0.330 A
ATOM     26  H10 UNL     1     -30.222  55.149  73.814  1.00  0.00     0.171 HD
HETATM   27  O2  UNL     1     -30.729  57.520  74.283  1.00  0.00    -0.246 OA
ENDBRANCH  17  18
ENDBRANCH  16  17
ENDBRANCH  14  16
ENDBRANCH   3  14
BRANCH   1  28
HETATM   28  N1  UNL     1     -31.019  60.314  73.104  1.00  0.00    -0.344 N
ATOM     29  H12 UNL     1     -31.039  60.635  74.071  1.00  0.00     0.176 HD
ATOM     30  H11 UNL     1     -30.188  60.498  72.542  1.00  0.00     0.176 HD
ENDBRANCH   1  28
TORSDOF 8
ENDMDL