MODEL 1
REMARK VINA RESULT: -6.645013408      0.000      0.000
REMARK  9 active torsions:
REMARK  status: ('A' for Active; 'I' for Inactive)
REMARK    1  A    between atoms: N1_1  and  C1_4
REMARK    2  A    between atoms: N4_10  and  C3_11
REMARK    3  A    between atoms: C3_11  and  C4_12
REMARK    4  A    between atoms: C4_12  and  O1_13
REMARK    5  A    between atoms: O1_13  and  C5_14
REMARK    6  A    between atoms: C5_14  and  N5_15
REMARK    7  A    between atoms: C6_22  and  C7_23
REMARK    8  A    between atoms: C7_23  and  N9_24
REMARK    9  A    between atoms: C8_28  and  N10_29
ROOT
HETATM    1  C1  UNL     1     -35.353  59.447  78.436  1.00  0.00     0.679 A
HETATM    2  N2  UNL     1     -34.166  59.604  77.834  1.00  0.00    -0.172 N
ATOM      3  H2  UNL     1     -33.290  59.822  78.310  1.00  0.00     0.186 HD
HETATM    4  C2  UNL     1     -34.304  59.431  76.506  1.00  0.00     0.181 A
HETATM    5  N3  UNL     1     -33.434  59.478  75.456  1.00  0.00    -0.265 N
ATOM      6  H3  UNL     1     -32.449  59.682  75.625  1.00  0.00     0.189 HD
HETATM    7  N4  UNL     1     -33.857  59.261  74.222  1.00  0.00    -0.120 N
HETATM    8  C8  UNL     1     -35.151  58.996  74.025  1.00  0.00     0.694 A
HETATM    9  N11 UNL     1     -36.050  58.939  75.032  1.00  0.00    -0.171 N
ATOM     10  H11 UNL     1     -37.030  58.733  74.838  1.00  0.00     0.186 HD
HETATM   11  C9  UNL     1     -35.639  59.156  76.291  1.00  0.00     0.182 A
HETATM   12  N12 UNL     1     -36.270  59.170  77.492  1.00  0.00    -0.172 N
ATOM     13  H12 UNL     1     -37.264  59.000  77.650  1.00  0.00     0.186 HD
ENDROOT
BRANCH   7  14
HETATM   14  C3  UNL     1     -32.957  59.305  73.087  1.00  0.00     0.195 C
BRANCH  14  15
HETATM   15  C4  UNL     1     -31.578  59.059  73.630  1.00  0.00     0.198 C
BRANCH  15  16
HETATM   16  O1  UNL     1     -31.241  57.911  74.133  1.00  0.00    -0.343 OA
BRANCH  16  17
HETATM   17  C5  UNL     1     -30.705  57.484  75.223  1.00  0.00     0.254 C
BRANCH  17  18
HETATM   18  N5  UNL     1     -31.434  56.724  76.208  1.00  0.00    -0.215 N
HETATM   19  N6  UNL     1     -31.683  57.072  77.449  1.00  0.00    -0.219 N
HETATM   20  N7  UNL     1     -32.339  56.105  78.024  1.00  0.00    -0.226 N
ATOM     21  H6  UNL     1     -31.408  57.951  77.889  1.00  0.00     0.210 HD
HETATM   22  N8  UNL     1     -32.523  55.125  77.172  1.00  0.00    -0.270 N
ATOM     23  H7  UNL     1     -32.661  56.109  78.992  1.00  0.00     0.210 HD
HETATM   24  C6  UNL     1     -31.947  55.517  76.009  1.00  0.00     0.147 A
ATOM     25  H8  UNL     1     -33.005  54.243  77.349  1.00  0.00     0.190 HD
BRANCH  24  26
HETATM   26  C7  UNL     1     -31.991  54.656  74.793  1.00  0.00     0.309 C
BRANCH  26  27
HETATM   27  N9  UNL     1     -32.865  55.272  73.781  1.00  0.00    -0.073 N
ATOM     28  H93 UNL     1     -33.158  56.212  74.048  1.00  0.00     0.274 HD
ATOM     29  H92 UNL     1     -32.357  55.513  72.930  1.00  0.00     0.274 HD
ATOM     30  H91 UNL     1     -33.659  54.659  73.594  1.00  0.00     0.274 HD
ENDBRANCH  26  27
ENDBRANCH  24  26
ENDBRANCH  17  18
ENDBRANCH  16  17
ENDBRANCH  15  16
ENDBRANCH  14  15
ENDBRANCH   7  14
BRANCH   8  31
HETATM   31  N10 UNL     1     -35.631  58.775  72.853  1.00  0.00    -0.233 N
ATOM     32 2H10 UNL     1     -36.640  58.897  72.768  1.00  0.00     0.174 HD
ATOM     33 1H10 UNL     1     -35.040  58.499  72.069  1.00  0.00     0.174 HD
ENDBRANCH   8  31
BRANCH   1  34
HETATM   34  N1  UNL     1     -35.587  59.545  79.704  1.00  0.00    -0.234 N
ATOM     35  H12 UNL     1     -34.884  59.497  80.441  1.00  0.00     0.174 HD
ATOM     36  H11 UNL     1     -36.499  59.681  80.141  1.00  0.00     0.174 HD
ENDBRANCH   1  34
TORSDOF 9
ENDMDL