MODEL 2
REMARK VINA RESULT: -4.236307230      6.787      7.591
REMARK  2 active torsions:
REMARK  status: ('A' for Active; 'I' for Inactive)
REMARK    1  A    between atoms: O1_1  and  C1_3
REMARK    2  A    between atoms: C6_9  and  O3_10
ROOT
HETATM    1  C1  UNL     1      17.380   1.060  19.304  1.00  0.00     0.173 C
HETATM    2  C2  UNL     1      15.965   1.332  18.859  1.00  0.00     0.036 C
HETATM    3  C3  UNL     1      15.228   2.265  19.756  1.00  0.00     0.005 C
HETATM    4  C4  UNL     1      16.107   3.209  20.520  1.00  0.00     0.026 C
HETATM    5  C5  UNL     1      17.020   4.026  19.674  1.00  0.00     0.171 C
HETATM    6  O2  UNL     1      17.587   3.354  18.617  1.00  0.00    -0.359 OA
HETATM    7  C6  UNL     1      18.271   2.216  18.957  1.00  0.00     0.285 C
ENDROOT
BRANCH   1   8
HETATM    8  O1  UNL     1      17.780  -0.123  18.663  1.00  0.00    -0.391 OA
ATOM      9  H1  UNL     1      18.555   0.093  18.156  1.00  0.00     0.210 HD
ENDBRANCH   1   8
BRANCH   7  10
HETATM   10  O3  UNL     1      19.200   2.395  19.973  1.00  0.00    -0.369 OA
ATOM     11  H3  UNL     1      18.747   2.425  20.808  1.00  0.00     0.212 HD
ENDBRANCH   7  10
TORSDOF 2
ENDMDL