MODEL 2
REMARK VINA RESULT: -4.299013239      0.626      1.203
REMARK  4 active torsions:
REMARK  status: ('A' for Active; 'I' for Inactive)
REMARK    1  A    between atoms: O1_2  and  C2_3
REMARK    2  A    between atoms: C2_3  and  N2_8
REMARK    3  A    between atoms: N1_4  and  O2_6
REMARK    4  A    between atoms: N2_8  and  N3_10
ROOT
HETATM    1  C2  UNL     1      11.387   0.080  13.248  1.00  0.00     0.254 C
HETATM    2  N1  UNL     1      11.447  -0.623  14.343  1.00  0.00    -0.232 N
ATOM      3  H1  UNL     1      12.274  -1.173  14.576  1.00  0.00     0.198 HD
ENDROOT
BRANCH   1   4
HETATM    4  O1  UNL     1      12.507   0.030  12.436  1.00  0.00    -0.325 OA
HETATM    5  C1  UNL     1      13.825  -0.047  12.938  1.00  0.00     0.213 C
ENDBRANCH   1   4
BRANCH   1   6
HETATM    6  N2  UNL     1      10.240   0.855  12.904  1.00  0.00    -0.284 N
ATOM      7  H2  UNL     1       9.481   0.390  12.406  1.00  0.00     0.184 HD
BRANCH   6   8
HETATM    8  N3  UNL     1      10.093   2.199  13.204  1.00  0.00    -0.237 NA
HETATM    9  C3  UNL     1       9.018   2.470  14.120  1.00  0.00     0.135 C
HETATM   10  C4  UNL     1       9.770   2.885  11.950  1.00  0.00     0.135 C
ENDBRANCH   6   8
ENDBRANCH   1   6
BRANCH   2  11
HETATM   11  O2  UNL     1      10.355  -0.594  15.166  1.00  0.00    -0.287 OA
ATOM     12  H2  UNL     1      10.320   0.098  15.816  1.00  0.00     0.244 HD
ENDBRANCH   2  11
TORSDOF 4
ENDMDL