MODEL 3
REMARK VINA RESULT: -3.540573259      8.575      9.253
REMARK  1 active torsions:
REMARK  status: ('A' for Active; 'I' for Inactive)
REMARK    1  A    between atoms: C4_6  and  O2_7
ROOT
HETATM    1  C1  UNL     1      15.850   1.407  19.213  1.00  0.00     0.043 C
HETATM    2  C2  UNL     1      17.252   0.944  18.884  1.00  0.00     0.157 C
HETATM    3  O1  UNL     1      17.450  -0.384  18.946  1.00  0.00    -0.373 OA
HETATM    4  C3  UNL     1      17.460  -0.867  20.217  1.00  0.00     0.244 C
HETATM    5  S1  UNL     1      18.464   0.417  21.070  1.00  0.00    -0.109 SA
HETATM    6  C4  UNL     1      18.261   1.674  19.740  1.00  0.00     0.210 C
ENDROOT
BRANCH   6   7
HETATM    7  O2  UNL     1      19.448   1.840  19.060  1.00  0.00    -0.383 OA
ATOM      8  H2  UNL     1      19.949   1.032  19.056  1.00  0.00     0.211 HD
ENDBRANCH   6   7
TORSDOF 1
ENDMDL