MODEL 2
REMARK VINA RESULT: -3.751617087      2.352      2.689
REMARK  1 active torsions:
REMARK  status: ('A' for Active; 'I' for Inactive)
REMARK    1  A    between atoms: N3_9  and  O1_10
ROOT
HETATM    1  C1  UNL     1       8.514   3.699  14.929  1.00  0.00     0.180 C
HETATM    2  N1  UNL     1       9.690   2.978  14.992  1.00  0.00    -0.273 N
HETATM    3  C2  UNL     1      10.770   3.421  15.768  1.00  0.00     0.165 C
HETATM    4  S1  UNL     1      11.334   1.813  16.483  1.00  0.00    -0.043 SA
HETATM    5  C3  UNL     1      10.415   0.795  15.291  1.00  0.00     0.189 C
HETATM    6  N2  UNL     1      10.360  -0.471  15.287  1.00  0.00    -0.377 N
ATOM      7  H21 UNL     1       9.844  -1.042  14.618  1.00  0.00     0.158 HD
ATOM      8  H22 UNL     1      10.781  -1.169  15.901  1.00  0.00     0.158 HD
HETATM    9  N3  UNL     1       9.822   1.776  14.428  1.00  0.00    -0.138 N
ENDROOT
BRANCH   9  10
HETATM   10  O1  UNL     1       9.436   1.471  13.141  1.00  0.00    -0.266 OA
ATOM     11  H1  UNL     1       9.045   2.091  12.536  1.00  0.00     0.247 HD
ENDBRANCH   9  10
TORSDOF 1
ENDMDL