MODEL 1
REMARK VINA RESULT: -4.342693500      0.000      0.000
REMARK  2 active torsions:
REMARK  status: ('A' for Active; 'I' for Inactive)
REMARK    1  A    between atoms: C2_2  and  O1_3
REMARK    2  A    between atoms: C4_8  and  O4_10
ROOT
HETATM    1  C1  UNL     1      12.654   1.953  16.083  1.00  0.00     0.085 C
HETATM    2  C2  UNL     1      11.368   1.341  15.659  1.00  0.00     0.217 C
HETATM    3  O2  UNL     1      10.399   2.336  15.391  1.00  0.00    -0.326 OA
HETATM    4  C3  UNL     1       9.571   1.627  14.501  1.00  0.00     0.345 C
HETATM    5  O3  UNL     1      10.534   1.177  13.577  1.00  0.00    -0.326 OA
HETATM    6  C4  UNL     1      11.406   0.493  14.458  1.00  0.00     0.217 C
HETATM    7  C5  UNL     1      12.710   0.351  13.767  1.00  0.00     0.085 C
ENDROOT
BRANCH   2   8
HETATM    8  O1  UNL     1      10.843   0.644  16.768  1.00  0.00    -0.361 OA
ATOM      9  H1  UNL     1      10.362   1.269  17.297  1.00  0.00     0.213 HD
ENDBRANCH   2   8
BRANCH   6  10
HETATM   10  O4  UNL     1      10.773  -0.748  14.691  1.00  0.00    -0.361 OA
ATOM     11  H4  UNL     1      11.020  -1.105  15.535  1.00  0.00     0.213 HD
ENDBRANCH   6  10
TORSDOF 2
ENDMDL