MODEL 5
REMARK VINA RESULT: -3.608568638      3.955      4.562
REMARK  2 active torsions:
REMARK  status: ('A' for Active; 'I' for Inactive)
REMARK    1  A    between atoms: O1_1  and  C1_3
REMARK    2  A    between atoms: C3_6  and  O2_7
ROOT
HETATM    1  C1  UNL     1      16.757   3.269  19.284  1.00  0.00     0.266 C
HETATM    2  C2  UNL     1      17.076   3.919  20.625  1.00  0.00     0.137 C
HETATM    3  S1  UNL     1      16.023   5.410  20.831  1.00  0.00    -0.131 SA
HETATM    4  C3  UNL     1      14.324   4.789  20.533  1.00  0.00     0.203 C
HETATM    5  C4  UNL     1      14.489   3.668  19.505  1.00  0.00     0.213 C
HETATM    6  O3  UNL     1      15.629   3.853  18.729  1.00  0.00    -0.357 OA
ENDROOT
BRANCH   1   7
HETATM    7  O1  UNL     1      17.808   3.461  18.387  1.00  0.00    -0.370 OA
ATOM      8  H1  UNL     1      18.602   3.695  18.852  1.00  0.00     0.212 HD
ENDBRANCH   1   7
BRANCH   4   9
HETATM    9  O2  UNL     1      13.783   4.248  21.696  1.00  0.00    -0.383 OA
ATOM     10  H2  UNL     1      13.356   3.420  21.516  1.00  0.00     0.211 HD
ENDBRANCH   4   9
TORSDOF 2
ENDMDL