MODEL 3
REMARK VINA RESULT: -3.541071867      9.104      9.752
REMARK  1 active torsions:
REMARK  status: ('A' for Active; 'I' for Inactive)
REMARK    1  A    between atoms: C4_5  and  O2_6
ROOT
HETATM    1  C1  UNL     1       8.526   2.682  13.992  1.00  0.00     0.024 C
HETATM    2  C2  UNL     1      10.004   2.527  13.884  1.00  0.00     0.072 C
HETATM    3  C3  UNL     1      10.444   1.761  12.664  1.00  0.00     0.186 C
HETATM    4  O1  UNL     1      10.482   0.424  12.963  1.00  0.00    -0.351 OA
HETATM    5  C4  UNL     1      11.330   0.188  14.006  1.00  0.00     0.322 C
HETATM    6  S1  UNL     1      10.668   1.423  15.200  1.00  0.00    -0.103 SA
ENDROOT
BRANCH   5   7
HETATM    7  O2  UNL     1      11.136  -1.097  14.470  1.00  0.00    -0.362 OA
ATOM      8  H2  UNL     1      10.504  -1.538  13.914  1.00  0.00     0.213 HD
ENDBRANCH   5   7
TORSDOF 1
ENDMDL