MODEL 4
REMARK VINA RESULT: -3.708905871      2.009      2.973
REMARK  2 active torsions:
REMARK  status: ('A' for Active; 'I' for Inactive)
REMARK    1  A    between atoms: C3_4  and  O2_5
REMARK    2  A    between atoms: C4_7  and  O3_8
ROOT
HETATM    1  C1  UNL     1      13.030   0.360  13.885  1.00  0.00     0.051 C
HETATM    2  C2  UNL     1      11.581   0.076  13.456  1.00  0.00     0.184 C
HETATM    3  O1  UNL     1      11.245   0.969  12.516  1.00  0.00    -0.343 OA
HETATM    4  C3  UNL     1      10.236   1.779  12.789  1.00  0.00     0.297 C
HETATM    5  C4  UNL     1      10.141   2.144  14.229  1.00  0.00     0.236 C
HETATM    6  S1  UNL     1      10.597   0.514  14.945  1.00  0.00    -0.101 SA
ENDROOT
BRANCH   4   7
HETATM    7  O2  UNL     1       8.977   1.304  12.351  1.00  0.00    -0.368 OA
ATOM      8  H2  UNL     1       8.616   1.784  11.615  1.00  0.00     0.212 HD
ENDBRANCH   4   7
BRANCH   5   9
HETATM    9  O3  UNL     1       8.885   2.506  14.639  1.00  0.00    -0.380 OA
ATOM     10  H3  UNL     1       8.850   3.324  15.120  1.00  0.00     0.211 HD
ENDBRANCH   5   9
TORSDOF 2
ENDMDL