MODEL 1
REMARK VINA RESULT: -4.076681892      0.000      0.000
REMARK  3 active torsions:
REMARK  status: ('A' for Active; 'I' for Inactive)
REMARK    1  A    between atoms: N1_2  and  O1_3
REMARK    2  A    between atoms: O1_3  and  C2_4
REMARK    3  A    between atoms: C2_4  and  N2_6
ROOT
HETATM    1  N2  UNL     1      11.085  -0.397  14.412  1.00  0.00    -0.263 N
ATOM      2  H2  UNL     1      10.772  -1.317  14.724  1.00  0.00     0.181 HD
HETATM    3  C3  UNL     1      12.057  -0.323  13.391  1.00  0.00     0.184 C
HETATM    4  N3  UNL     1      12.842  -0.266  12.538  1.00  0.00    -0.172 NA
ENDROOT
BRANCH   1   5
HETATM    5  C2  UNL     1      10.530   0.749  15.016  1.00  0.00     0.243 C
HETATM    6  S1  UNL     1      11.466   1.694  15.943  1.00  0.00    -0.031 SA
BRANCH   5   7
HETATM    7  O1  UNL     1       9.203   1.050  14.811  1.00  0.00    -0.214 OA
BRANCH   7   8
HETATM    8  N1  UNL     1       8.740   1.729  13.712  1.00  0.00    -0.096 NA
HETATM    9  C1  UNL     1       8.509   3.110  14.091  1.00  0.00     0.168 C
ENDBRANCH   7   8
ENDBRANCH   5   7
ENDBRANCH   1   5
TORSDOF 3
ENDMDL