MODEL 4
REMARK VINA RESULT: -3.771938956      1.697      2.596
REMARK  2 active torsions:
REMARK  status: ('A' for Active; 'I' for Inactive)
REMARK    1  A    between atoms: C4_5  and  O1_6
REMARK    2  A    between atoms: N1_8  and  O2_9
ROOT
HETATM    1  C1  UNL     1      19.162   0.612  20.905  1.00  0.00     0.029 C
HETATM    2  C2  UNL     1      17.783   0.121  21.178  1.00  0.00     0.095 C
HETATM    3  C3  UNL     1      16.783   1.191  20.845  1.00  0.00     0.099 C
HETATM    4  S1  UNL     1      16.368   0.742  19.112  1.00  0.00    -0.119 SA
HETATM    5  C4  UNL     1      17.321  -0.830  19.096  1.00  0.00     0.282 C
HETATM    6  N1  UNL     1      17.422  -1.080  20.495  1.00  0.00    -0.156 NA
ENDROOT
BRANCH   5   7
HETATM    7  O1  UNL     1      16.545  -1.854  18.533  1.00  0.00    -0.370 OA
ATOM      8  H1  UNL     1      15.863  -1.480  17.987  1.00  0.00     0.212 HD
ENDBRANCH   5   7
BRANCH   6   9
HETATM    9  O2  UNL     1      18.408  -1.982  20.695  1.00  0.00    -0.309 OA
ATOM     10  H2  UNL     1      19.214  -1.612  20.354  1.00  0.00     0.237 HD
ENDBRANCH   6   9
TORSDOF 2
ENDMDL