MODEL 3
REMARK VINA RESULT: -6.756234118      1.254      1.655
REMARK  5 active torsions:
REMARK  status: ('A' for Active; 'I' for Inactive)
REMARK    1  A    between atoms: N1_2  and  C2_5
REMARK    2  A    between atoms: C2_5  and  C3_6
REMARK    3  A    between atoms: C3_6  and  C4_7
REMARK    4  A    between atoms: C4_7  and  C5_8
REMARK    5  A    between atoms: C5_8  and  C6_9
ROOT
HETATM    1  C6  UNL     1      63.960  35.925  70.218  1.00  0.00    -0.006 C
HETATM    2  C7  UNL     1      62.600  35.957  70.882  1.00  0.00     0.038 C
HETATM    3  C8  UNL     1      62.608  34.862  71.942  1.00  0.00     0.191 C
HETATM    4  N2  UNL     1      63.260  33.731  71.273  1.00  0.00    -0.066 N
ATOM      5  H21 UNL     1      63.046  33.609  70.283  1.00  0.00     0.278 HD
ATOM      6  H22 UNL     1      62.932  32.802  71.535  1.00  0.00     0.278 HD
HETATM    7  C9  UNL     1      64.657  34.043  71.602  1.00  0.00     0.191 C
HETATM    8  C10 UNL     1      64.483  34.052  73.132  1.00  0.00     0.040 C
HETATM    9  C11 UNL     1      63.491  35.228  73.105  1.00  0.00     0.018 C
HETATM   10  C12 UNL     1      64.473  36.273  72.560  1.00  0.00     0.013 C
HETATM   11  C13 UNL     1      64.936  35.504  71.324  1.00  0.00     0.021 C
ENDROOT
BRANCH   1  12
HETATM   12  C5  UNL     1      64.400  37.274  69.733  1.00  0.00     0.005 C
BRANCH  12  13
HETATM   13  C4  UNL     1      63.596  37.758  68.550  1.00  0.00     0.002 C
BRANCH  13  14
HETATM   14  C3  UNL     1      63.224  39.209  68.649  1.00  0.00     0.027 C
BRANCH  14  15
HETATM   15  C2  UNL     1      64.058  39.956  67.634  1.00  0.00     0.231 C
BRANCH  15  16
HETATM   16  N1  UNL     1      64.758  41.060  68.187  1.00  0.00    -0.079 N
HETATM   17  C1  UNL     1      66.032  40.652  68.710  1.00  0.00     0.266 C
ATOM     18  H12 UNL     1      64.200  41.546  68.890  1.00  0.00     0.276 HD
ATOM     19  H11 UNL     1      64.854  41.820  67.514  1.00  0.00     0.276 HD
ENDBRANCH  15  16
ENDBRANCH  14  15
ENDBRANCH  13  14
ENDBRANCH  12  13
ENDBRANCH   1  12
TORSDOF 5
ENDMDL