MODEL 5
REMARK VINA RESULT: -5.768339691      4.925      8.575
REMARK  5 active torsions:
REMARK  status: ('A' for Active; 'I' for Inactive)
REMARK    1  A    between atoms: N1_2  and  C3_4
REMARK    2  A    between atoms: C3_4  and  C4_5
REMARK    3  A    between atoms: C4_5  and  N2_6
REMARK    4  A    between atoms: N2_6  and  C5_8
REMARK    5  A    between atoms: C5_8  and  C6_9
ROOT
HETATM    1  C6  UNL     1      66.356  34.358  71.523  1.00  0.00     0.119 C
HETATM    2  C7  UNL     1      65.315  33.414  72.017  1.00  0.00     0.031 C
HETATM    3  C8  UNL     1      63.990  33.807  71.324  1.00  0.00     0.016 C
HETATM    4  C9  UNL     1      63.583  35.128  71.922  1.00  0.00    -0.016 C
HETATM    5  C10 UNL     1      63.124  34.904  73.341  1.00  0.00     0.020 C
HETATM    6  C11 UNL     1      62.395  35.633  71.128  1.00  0.00     0.020 C
HETATM    7  C12 UNL     1      64.720  36.119  71.903  1.00  0.00     0.065 C
HETATM    8  N3  UNL     1      65.868  35.681  71.232  1.00  0.00    -0.392 N
ATOM      9  H3  UNL     1      66.344  36.281  70.558  1.00  0.00     0.159 HD
ENDROOT
BRANCH   1  10
HETATM   10  C5  UNL     1      67.569  34.388  72.390  1.00  0.00     0.080 C
BRANCH  10  11
HETATM   11  N2  UNL     1      68.739  33.741  72.059  1.00  0.00    -0.399 N
ATOM     12  H2  UNL     1      69.538  33.904  72.673  1.00  0.00     0.158 HD
BRANCH  11  13
HETATM   13  C4  UNL     1      68.953  32.891  70.983  1.00  0.00     0.138 C
BRANCH  13  14
HETATM   14  C3  UNL     1      70.076  31.866  71.335  1.00  0.00     0.135 C
BRANCH  14  15
HETATM   15  N1  UNL     1      69.701  30.633  70.750  1.00  0.00    -0.419 N
HETATM   16  C1  UNL     1      69.317  29.618  71.694  1.00  0.00     0.142 C
HETATM   17  C2  UNL     1      70.498  30.137  69.685  1.00  0.00     0.142 C
ENDBRANCH  14  15
ENDBRANCH  13  14
ENDBRANCH  11  13
ENDBRANCH  10  11
ENDBRANCH   1  10
TORSDOF 5
ENDMDL