MODEL 2
REMARK VINA RESULT: -6.728546547      1.875      3.239
REMARK  5 active torsions:
REMARK  status: ('A' for Active; 'I' for Inactive)
REMARK    1  A    between atoms: C2_5  and  C3_6
REMARK    2  A    between atoms: C3_6  and  C4_7
REMARK    3  A    between atoms: C4_7  and  C5_8
REMARK    4  A    between atoms: N2_11  and  C8_12
REMARK    5  A    between atoms: C8_12  and  C9_13
ROOT
HETATM    1  C4  UNL     1      64.380  36.932  69.929  1.00  0.00     0.010 C
ENDROOT
BRANCH   1   2
HETATM    2  C3  UNL     1      63.543  37.230  68.746  1.00  0.00     0.063 C
BRANCH   2   3
HETATM    3  C2  UNL     1      63.530  38.677  68.396  1.00  0.00     0.386 C
HETATM    4  N1  UNL     1      62.308  39.381  68.827  1.00  0.00    -0.022 N
HETATM    5  C1  UNL     1      62.486  40.205  67.629  1.00  0.00     0.467 C
ATOM      6  H12 UNL     1      62.226  39.795  69.756  1.00  0.00     0.281 HD
ATOM      7  H11 UNL     1      61.438  38.883  69.012  1.00  0.00     0.281 HD
HETATM    8  N3  UNL     1      63.075  38.997  67.028  1.00  0.00    -0.022 N
ATOM      9  H32 UNL     1      62.520  38.343  66.477  1.00  0.00     0.281 HD
ATOM     10  H31 UNL     1      63.723  39.047  66.241  1.00  0.00     0.281 HD
ENDBRANCH   2   3
ENDBRANCH   1   2
BRANCH   1  11
HETATM   11  C5  UNL     1      63.608  36.759  71.211  1.00  0.00     0.005 C
HETATM   12  C6  UNL     1      62.636  35.599  71.053  1.00  0.00     0.026 C
HETATM   13  C7  UNL     1      62.812  34.753  72.320  1.00  0.00     0.122 C
HETATM   14  N2  UNL     1      64.053  35.122  72.872  1.00  0.00    -0.393 N
HETATM   15  C12 UNL     1      64.471  36.375  72.378  1.00  0.00     0.126 C
BRANCH  14  16
HETATM   16  C8  UNL     1      65.013  34.135  73.141  1.00  0.00     0.062 C
BRANCH  16  17
HETATM   17  C9  UNL     1      65.440  33.300  71.983  1.00  0.00     0.024 A
HETATM   18  C10 UNL     1      66.421  33.861  70.978  1.00  0.00     0.010 A
HETATM   19  C11 UNL     1      66.956  32.936  71.997  1.00  0.00     0.010 A
ENDBRANCH  16  17
ENDBRANCH  14  16
ENDBRANCH   1  11
TORSDOF 5
ENDMDL