MODEL 3
REMARK VINA RESULT: -6.036022848      1.519      2.136
REMARK  5 active torsions:
REMARK  status: ('A' for Active; 'I' for Inactive)
REMARK    1  A    between atoms: N1_2  and  C3_4
REMARK    2  A    between atoms: C3_4  and  C4_5
REMARK    3  A    between atoms: C4_5  and  N2_6
REMARK    4  A    between atoms: N2_6  and  C5_9
REMARK    5  A    between atoms: C5_9  and  C6_10
ROOT
HETATM    1  C6  UNL     1      64.253  36.433  71.701  1.00  0.00     0.023 C
HETATM    2  C7  UNL     1      64.982  35.154  71.370  1.00  0.00     0.024 C
HETATM    3  C8  UNL     1      65.310  34.345  72.640  1.00  0.00     0.040 C
HETATM    4  C9  UNL     1      63.985  33.731  72.952  1.00  0.00     0.187 C
HETATM    5  C10 UNL     1      63.012  34.859  73.243  1.00  0.00     0.040 C
HETATM    6  C11 UNL     1      63.000  35.555  71.873  1.00  0.00     0.024 C
HETATM    7  C12 UNL     1      63.654  34.583  70.933  1.00  0.00     0.195 C
HETATM    8  N3  UNL     1      63.525  33.331  71.633  1.00  0.00    -0.066 N
ATOM      9  H31 UNL     1      62.604  32.894  71.597  1.00  0.00     0.278 HD
ATOM     10  H32 UNL     1      64.009  32.536  71.216  1.00  0.00     0.278 HD
ENDROOT
BRANCH   1  11
HETATM   11  C5  UNL     1      64.054  37.359  70.559  1.00  0.00     0.237 C
BRANCH  11  12
HETATM   12  N2  UNL     1      64.676  38.657  70.696  1.00  0.00    -0.073 N
ATOM     13  H22 UNL     1      65.508  38.632  71.286  1.00  0.00     0.277 HD
ATOM     14  H21 UNL     1      64.123  39.300  71.262  1.00  0.00     0.277 HD
BRANCH  12  15
HETATM   15  C4  UNL     1      64.947  39.170  69.384  1.00  0.00     0.262 C
BRANCH  15  16
HETATM   16  C3  UNL     1      63.924  38.839  68.336  1.00  0.00     0.298 C
BRANCH  16  17
HETATM   17  N1  UNL     1      63.780  40.020  67.472  1.00  0.00     0.081 N
HETATM   18  C1  UNL     1      64.961  40.821  67.546  1.00  0.00     0.309 C
HETATM   19  C2  UNL     1      63.385  39.677  66.136  1.00  0.00     0.309 C
ENDBRANCH  16  17
ENDBRANCH  15  16
ENDBRANCH  12  15
ENDBRANCH  11  12
ENDBRANCH   1  11
TORSDOF 5
ENDMDL