MODEL 1
REMARK VINA RESULT: -6.558360258      0.000      0.000
REMARK  5 active torsions:
REMARK  status: ('A' for Active; 'I' for Inactive)
REMARK    1  A    between atoms: C2_2  and  C3_3
REMARK    2  A    between atoms: C3_3  and  N1_4
REMARK    3  A    between atoms: N1_4  and  C4_7
REMARK    4  A    between atoms: C4_7  and  N2_8
REMARK    5  A    between atoms: N2_8  and  C5_11
ROOT
HETATM    1  C5  UNL     1      65.961  33.941  71.980  1.00  0.00     0.196 C
HETATM    2  C6  UNL     1      64.593  33.411  72.399  1.00  0.00     0.065 C
HETATM    3  C7  UNL     1      63.740  34.636  72.537  1.00  0.00     0.046 C
HETATM    4  C8  UNL     1      62.714  34.590  73.585  1.00  0.00     0.040 C
HETATM    5  C9  UNL     1      64.783  35.763  72.715  1.00  0.00     0.040 C
HETATM    6  C10 UNL     1      65.614  35.316  71.502  1.00  0.00     0.038 C
HETATM    7  C11 UNL     1      64.500  35.182  70.469  1.00  0.00     0.149 C
HETATM    8  N3  UNL     1      63.283  35.013  71.224  1.00  0.00    -0.324 N
HETATM    9  N4  UNL     1      62.117  35.194  70.915  1.00  0.00    -0.346 N
ATOM     10  H41 UNL     1      61.794  35.460  69.986  1.00  0.00     0.176 HD
ATOM     11  H42 UNL     1      61.256  35.075  71.449  1.00  0.00     0.176 HD
ENDROOT
BRANCH   1  12
HETATM   12  N2  UNL     1      66.620  33.129  71.035  1.00  0.00    -0.047 N
ATOM     13  H22 UNL     1      66.602  33.508  70.088  1.00  0.00     0.279 HD
ATOM     14  H21 UNL     1      66.128  32.261  70.829  1.00  0.00     0.279 HD
BRANCH  12  15
HETATM   15  C4  UNL     1      67.981  32.925  71.563  1.00  0.00     0.463 C
BRANCH  15  16
HETATM   16  N1  UNL     1      68.122  31.626  72.115  1.00  0.00    -0.051 N
ATOM     17  H12 UNL     1      67.254  31.091  72.076  1.00  0.00     0.279 HD
ATOM     18  H11 UNL     1      68.232  31.646  73.129  1.00  0.00     0.279 HD
BRANCH  16  19
HETATM   19  C3  UNL     1      69.210  30.953  71.460  1.00  0.00     0.234 C
BRANCH  19  20
HETATM   20  C2  UNL     1      69.510  29.552  71.852  1.00  0.00     0.023 C
HETATM   21  C1  UNL     1      71.016  29.471  72.156  1.00  0.00     0.007 C
ENDBRANCH  19  20
ENDBRANCH  16  19
ENDBRANCH  15  16
ENDBRANCH  12  15
ENDBRANCH   1  12
TORSDOF 5
ENDMDL