MODEL 2
REMARK VINA RESULT: -6.434708039      0.654      1.182
REMARK  5 active torsions:
REMARK  status: ('A' for Active; 'I' for Inactive)
REMARK    1  A    between atoms: C4_4  and  N1_5
REMARK    2  A    between atoms: N1_5  and  C5_7
REMARK    3  A    between atoms: C5_7  and  C6_8
REMARK    4  A    between atoms: C6_8  and  C7_9
REMARK    5  A    between atoms: C7_9  and  N2_10
ROOT
HETATM    1  N1  UNL     1      62.724  39.224  67.770  1.00  0.00    -0.395 N
ATOM      2  H1  UNL     1      61.783  39.455  68.087  1.00  0.00     0.155 HD
ENDROOT
BRANCH   1   3
HETATM    3  C4  UNL     1      63.093  39.330  66.389  1.00  0.00     0.279 C
HETATM    4  C3  UNL     1      64.137  40.353  66.141  1.00  0.00     0.054 C
HETATM    5  C2  UNL     1      63.675  41.619  65.515  1.00  0.00     0.005 C
HETATM    6  C1  UNL     1      62.240  41.762  65.211  1.00  0.00     0.028 C
HETATM    7  C12 UNL     1      61.379  40.833  66.025  1.00  0.00     0.235 C
HETATM    8  N3  UNL     1      61.860  39.494  65.646  1.00  0.00    -0.055 N
ATOM      9  H32 UNL     1      61.958  39.356  64.640  1.00  0.00     0.279 HD
ATOM     10  H31 UNL     1      61.180  38.748  65.797  1.00  0.00     0.279 HD
ENDBRANCH   1   3
BRANCH   1  11
HETATM   11  C5  UNL     1      63.723  38.786  68.680  1.00  0.00     0.117 C
BRANCH  11  12
HETATM   12  C6  UNL     1      63.642  37.293  68.960  1.00  0.00     0.049 C
BRANCH  12  13
HETATM   13  C7  UNL     1      64.488  36.954  70.181  1.00  0.00     0.274 C
BRANCH  13  14
HETATM   14  N2  UNL     1      63.705  36.593  71.315  1.00  0.00     0.088 N
HETATM   15  C8  UNL     1      62.652  35.675  71.107  1.00  0.00     0.272 C
HETATM   16  C9  UNL     1      63.011  34.444  71.922  1.00  0.00     0.032 C
HETATM   17  C10 UNL     1      63.757  35.032  73.090  1.00  0.00     0.032 C
HETATM   18  C11 UNL     1      64.418  36.250  72.495  1.00  0.00     0.272 C
ENDBRANCH  13  14
ENDBRANCH  12  13
ENDBRANCH  11  12
ENDBRANCH   1  11
TORSDOF 5
ENDMDL