MODEL 4
REMARK VINA RESULT: -6.023338520      3.125      5.907
REMARK  5 active torsions:
REMARK  status: ('A' for Active; 'I' for Inactive)
REMARK    1  A    between atoms: N1_2  and  C2_5
REMARK    2  A    between atoms: C2_5  and  C3_6
REMARK    3  A    between atoms: C3_6  and  C4_7
REMARK    4  A    between atoms: C4_7  and  N2_8
REMARK    5  A    between atoms: N2_8  and  C5_11
ROOT
HETATM    1  N2  UNL     1      63.007  36.388  70.336  1.00  0.00    -0.070 N
ATOM      2  H21 UNL     1      61.988  36.365  70.363  1.00  0.00     0.277 HD
ATOM      3  H22 UNL     1      63.185  37.058  71.085  1.00  0.00     0.277 HD
ENDROOT
BRANCH   1   4
HETATM    4  C4  UNL     1      63.468  36.914  69.065  1.00  0.00     0.234 C
BRANCH   4   5
HETATM    5  C3  UNL     1      64.127  38.273  69.295  1.00  0.00     0.055 C
BRANCH   5   6
HETATM    6  C2  UNL     1      63.422  39.267  68.322  1.00  0.00     0.233 C
BRANCH   6   7
HETATM    7  N1  UNL     1      63.084  38.574  67.115  1.00  0.00    -0.079 N
HETATM    8  C1  UNL     1      63.108  39.551  66.052  1.00  0.00     0.266 C
ATOM      9  H12 UNL     1      62.201  38.068  67.176  1.00  0.00     0.276 HD
ATOM     10  H11 UNL     1      63.683  37.768  66.934  1.00  0.00     0.276 HD
ENDBRANCH   6   7
ENDBRANCH   5   6
ENDBRANCH   4   5
ENDBRANCH   1   4
BRANCH   1  11
HETATM   11  C5  UNL     1      63.549  35.098  70.676  1.00  0.00     0.194 C
HETATM   12  C6  UNL     1      65.048  35.250  70.846  1.00  0.00     0.017 C
HETATM   13  C7  UNL     1      65.322  35.962  72.188  1.00  0.00     0.011 C
HETATM   14  C13 UNL     1      65.738  33.946  71.139  1.00  0.00     0.011 C
HETATM   15  C8  UNL     1      64.799  34.887  73.116  1.00  0.00    -0.010 C
HETATM   16  C9  UNL     1      63.286  35.056  73.157  1.00  0.00     0.011 C
HETATM   17  C12 UNL     1      65.007  33.556  72.446  1.00  0.00    -0.010 C
HETATM   18  C10 UNL     1      62.932  34.389  71.822  1.00  0.00     0.017 C
HETATM   19  C11 UNL     1      63.645  33.059  71.976  1.00  0.00     0.011 C
ENDBRANCH   1  11
TORSDOF 5
ENDMDL