MODEL 4
REMARK VINA RESULT: -5.579844728      2.819      4.485
REMARK  6 active torsions:
REMARK  status: ('A' for Active; 'I' for Inactive)
REMARK    1  A    between atoms: S1_2  and  C2_4
REMARK    2  A    between atoms: C2_4  and  C3_5
REMARK    3  A    between atoms: C3_5  and  C4_6
REMARK    4  A    between atoms: C4_6  and  C5_7
REMARK    5  A    between atoms: C8_10  and  C9_11
REMARK    6  A    between atoms: C9_11  and  N1_12
ROOT
HETATM    1  C5  UNL     1      63.211  39.412  67.129  1.00  0.00     0.186 C
HETATM    2  C6  UNL     1      63.809  40.243  66.025  1.00  0.00     0.035 C
HETATM    3  C7  UNL     1      62.769  41.323  65.805  1.00  0.00     0.037 C
HETATM    4  C8  UNL     1      61.518  40.568  66.177  1.00  0.00     0.211 C
HETATM    5  N2  UNL     1      61.931  40.005  67.454  1.00  0.00    -0.065 N
ATOM      6  H21 UNL     1      61.947  40.666  68.231  1.00  0.00     0.278 HD
ATOM      7  H22 UNL     1      61.258  39.369  67.882  1.00  0.00     0.278 HD
ENDROOT
BRANCH   1   8
HETATM    8  C4  UNL     1      64.162  39.350  68.276  1.00  0.00     0.034 C
BRANCH   8   9
HETATM    9  C3  UNL     1      63.581  38.520  69.390  1.00  0.00     0.014 C
BRANCH   9  10
HETATM   10  C2  UNL     1      63.593  37.041  69.124  1.00  0.00     0.108 C
BRANCH  10  11
HETATM   11  S1  UNL     1      63.762  36.078  70.583  1.00  0.00     0.010 S
HETATM   12  C1  UNL     1      64.758  36.814  71.823  1.00  0.00     0.127 C
HETATM   13  O1  UNL     1      62.335  35.536  71.227  1.00  0.00    -0.258 OA
ENDBRANCH  10  11
ENDBRANCH   9  10
ENDBRANCH   8   9
ENDBRANCH   1   8
BRANCH   4  14
HETATM   14  C9  UNL     1      60.306  41.448  66.314  1.00  0.00     0.262 C
BRANCH  14  15
HETATM   15  N1  UNL     1      60.600  42.375  67.412  1.00  0.00    -0.077 N
ATOM     16  H13 UNL     1      61.595  42.454  67.622  1.00  0.00     0.274 HD
ATOM     17  H12 UNL     1      60.447  43.354  67.169  1.00  0.00     0.274 HD
ATOM     18  H11 UNL     1      60.039  42.061  68.204  1.00  0.00     0.274 HD
ENDBRANCH  14  15
ENDBRANCH   4  14
TORSDOF 6
ENDMDL