MODEL 5
REMARK VINA RESULT: -7.337286104      2.736      3.530
REMARK  2 active torsions:
REMARK  status: ('A' for Active; 'I' for Inactive)
REMARK    1  A    between atoms: N2_5  and  C4_6
REMARK    2  A    between atoms: C4_6  and  C5_7
ROOT
HETATM    1  N1  UNL     1      27.173   7.727 -10.364  1.00  0.00    -0.191 NA
HETATM    2  C1  UNL     1      26.830   6.731  -9.902  1.00  0.00     0.106 C
HETATM    3  C2  UNL     1      26.420   5.488  -9.316  1.00  0.00     0.128 A
HETATM    4  C3  UNL     1      27.279   4.413  -9.255  1.00  0.00     0.124 A
HETATM    5  N2  UNL     1      26.886   3.230  -8.696  1.00  0.00    -0.304 N
HETATM    6  C11 UNL     1      25.638   3.179  -8.220  1.00  0.00     0.329 A
HETATM    7  O1  UNL     1      25.255   2.095  -7.698  1.00  0.00    -0.246 OA
HETATM    8  N3  UNL     1      24.776   4.227  -8.269  1.00  0.00    -0.274 N
ATOM      9  H3  UNL     1      23.835   4.126  -7.888  1.00  0.00     0.173 HD
HETATM   10  C12 UNL     1      25.147   5.388  -8.812  1.00  0.00     0.271 A
HETATM   11  O2  UNL     1      24.386   6.392  -8.883  1.00  0.00    -0.266 OA
ENDROOT
BRANCH   5  12
HETATM   12  C4  UNL     1      27.814   2.119  -8.652  1.00  0.00     0.171 C
BRANCH  12  13
HETATM   13  C5  UNL     1      28.415   1.888  -7.325  1.00  0.00    -0.040 A
HETATM   14  C6  UNL     1      29.157   2.899  -6.719  1.00  0.00     0.009 A
HETATM   15  C7  UNL     1      29.743   2.765  -5.493  1.00  0.00     0.001 A
HETATM   16  C8  UNL     1      29.603   1.573  -4.801  1.00  0.00     0.000 A
HETATM   17  C9  UNL     1      28.878   0.551  -5.363  1.00  0.00     0.001 A
HETATM   18  C10 UNL     1      28.290   0.713  -6.617  1.00  0.00     0.009 A
ENDBRANCH  12  13
ENDBRANCH   5  12
TORSDOF 2
ENDMDL