MODEL 2
REMARK VINA RESULT: -6.929720803      2.962      4.905
REMARK  2 active torsions:
REMARK  status: ('A' for Active; 'I' for Inactive)
REMARK    1  A    between atoms: C1_2  and  C2_3
REMARK    2  A    between atoms: C2_3  and  N1_4
ROOT
HETATM    1  N1  UNL     1      27.208   2.708  -9.365  1.00  0.00    -0.369 N
ATOM      2  H1  UNL     1      27.718   3.559  -9.604  1.00  0.00     0.161 HD
HETATM    3  C3  UNL     1      25.950   2.827  -9.253  1.00  0.00     0.115 A
HETATM    4  N2  UNL     1      25.073   1.754  -8.926  1.00  0.00    -0.306 N
ATOM      5  H2  UNL     1      25.472   0.828  -8.770  1.00  0.00     0.170 HD
HETATM    6  C4  UNL     1      23.676   1.918  -8.807  1.00  0.00     0.298 A
HETATM    7  O2  UNL     1      22.930   0.953  -8.518  1.00  0.00    -0.264 OA
HETATM    8  C5  UNL     1      23.111   3.255  -9.032  1.00  0.00     0.250 A
HETATM    9  O3  UNL     1      21.858   3.428  -8.931  1.00  0.00    -0.281 OA
HETATM   10  C6  UNL     1      23.984   4.364  -9.366  1.00  0.00     0.034 A
HETATM   11  C7  UNL     1      23.419   5.602  -9.569  1.00  0.00     0.017 A
HETATM   12  C8  UNL     1      24.245   6.656  -9.887  1.00  0.00     0.001 A
HETATM   13  C9  UNL     1      25.627   6.493 -10.004  1.00  0.00     0.001 A
HETATM   14  C10 UNL     1      26.130   5.227  -9.788  1.00  0.00     0.016 A
HETATM   15  C11 UNL     1      25.345   4.141  -9.468  1.00  0.00     0.022 A
ENDROOT
BRANCH   1  16
HETATM   16  C2  UNL     1      27.992   1.540  -9.201  1.00  0.00     0.190 C
BRANCH  16  17
HETATM   17  C1  UNL     1      28.322   1.339  -7.773  1.00  0.00     0.250 C
HETATM   18  O1  UNL     1      27.491   0.830  -7.046  1.00  0.00    -0.305 OA
ENDBRANCH  16  17
ENDBRANCH   1  16
TORSDOF 2
ENDMDL