MODEL 3
REMARK VINA RESULT: -6.406255136      3.134      4.911
REMARK  4 active torsions:
REMARK  status: ('A' for Active; 'I' for Inactive)
REMARK    1  A    between atoms: C2_2  and  O1_3
REMARK    2  A    between atoms: O1_3  and  C3_4
REMARK    3  A    between atoms: C9_12  and  N2_13
REMARK    4  A    between atoms: N4_19  and  O2_20
ROOT
HETATM    1  C3  UNL     1      25.377   6.219  -9.748  1.00  0.00     0.097 A
HETATM    2  C4  UNL     1      26.730   6.225  -9.863  1.00  0.00     0.039 A
HETATM    3  C5  UNL     1      27.429   5.013  -9.745  1.00  0.00     0.005 A
HETATM    4  C6  UNL     1      26.768   3.829  -9.517  1.00  0.00     0.034 A
HETATM    5  C7  UNL     1      25.385   3.832  -9.402  1.00  0.00     0.093 A
HETATM    6  C8  UNL     1      24.721   5.017  -9.520  1.00  0.00     0.097 A
HETATM    7  N1  UNL     1      23.368   4.985  -9.401  1.00  0.00    -0.336 N
ATOM      8  H1  UNL     1      22.851   5.861  -9.485  1.00  0.00     0.168 HD
HETATM    9  C9  UNL     1      22.682   3.855  -9.179  1.00  0.00     0.140 A
HETATM   10  C10 UNL     1      23.397   2.685  -9.069  1.00  0.00     0.186 A
HETATM   11  C11 UNL     1      22.688   1.468  -8.833  1.00  0.00     0.124 C
HETATM   12  N3  UNL     1      22.112   0.485  -8.627  1.00  0.00    -0.190 NA
HETATM   13  N4  UNL     1      24.727   2.654  -9.176  1.00  0.00    -0.208 N
ENDROOT
BRANCH   9  14
HETATM   14  N2  UNL     1      21.410   3.929  -9.084  1.00  0.00    -0.383 N
ATOM     15  H22 UNL     1      20.865   3.493  -8.340  1.00  0.00     0.157 HD
ATOM     16  H21 UNL     1      20.902   4.456  -9.794  1.00  0.00     0.157 HD
ENDBRANCH   9  14
BRANCH  13  17
HETATM   17  O2  UNL     1      25.470   1.490  -9.069  1.00  0.00    -0.281 OA
ATOM     18  H2  UNL     1      25.713   1.033  -9.866  1.00  0.00     0.245 HD
ENDBRANCH  13  17
BRANCH   1  19
HETATM   19  O1  UNL     1      24.642   7.367  -9.853  1.00  0.00    -0.349 OA
BRANCH  19  20
HETATM   20  C2  UNL     1      24.544   8.139 -10.983  1.00  0.00     0.171 C
HETATM   21  C1  UNL     1      24.496   9.623 -10.683  1.00  0.00     0.034 C
ENDBRANCH  19  20
ENDBRANCH   1  19
TORSDOF 4
ENDMDL