MODEL 1
REMARK VINA RESULT: -7.461474588      0.000      0.000
REMARK  2 active torsions:
REMARK  status: ('A' for Active; 'I' for Inactive)
REMARK    1  A    between atoms: C3_3  and  O1_4
REMARK    2  A    between atoms: O1_4  and  C4_5
ROOT
HETATM    1  C1  UNL     1      29.466   6.056 -11.630  1.00  0.00     0.014 C
HETATM    2  C2  UNL     1      29.015   4.984 -11.961  1.00  0.00    -0.091 C
HETATM    3  C3  UNL     1      28.478   3.667 -12.342  1.00  0.00     0.268 C
ENDROOT
BRANCH   3   4
HETATM    4  O1  UNL     1      28.498   2.776 -11.244  1.00  0.00    -0.340 OA
BRANCH   4   5
HETATM    5  C4  UNL     1      27.374   2.762 -10.430  1.00  0.00     0.070 A
HETATM    6  C5  UNL     1      27.357   3.253  -9.145  1.00  0.00     0.038 A
HETATM    7  C6  UNL     1      26.205   3.211  -8.388  1.00  0.00     0.019 A
HETATM    8  C7  UNL     1      25.039   2.672  -8.899  1.00  0.00     0.036 A
HETATM    9  C8  UNL     1      25.053   2.179 -10.187  1.00  0.00     0.049 A
HETATM   10  C12 UNL     1      23.805   2.613  -8.122  1.00  0.00     0.250 A
HETATM   11  C9  UNL     1      26.214   2.228 -10.938  1.00  0.00     0.054 A
HETATM   12  C10 UNL     1      23.847   1.600 -10.775  1.00  0.00     0.259 A
HETATM   13  O2  UNL     1      23.867   1.153 -11.947  1.00  0.00    -0.267 OA
HETATM   14  N1  UNL     1      22.650   1.545 -10.013  1.00  0.00    -0.286 N
HETATM   15  C11 UNL     1      22.586   2.041  -8.682  1.00  0.00     0.299 A
ATOM     16  H1  UNL     1      21.815   1.138 -10.431  1.00  0.00     0.172 HD
HETATM   17  O3  UNL     1      21.534   1.999  -7.993  1.00  0.00    -0.264 OA
HETATM   18  O4  UNL     1      23.814   3.073  -6.937  1.00  0.00    -0.281 OA
ENDBRANCH   4   5
ENDBRANCH   3   4
TORSDOF 2
ENDMDL