MODEL 4
REMARK VINA RESULT: -6.669243142      3.138      4.080
REMARK  2 active torsions:
REMARK  status: ('A' for Active; 'I' for Inactive)
REMARK    1  A    between atoms: C2_2  and  C3_3
REMARK    2  A    between atoms: C3_3  and  N1_4
ROOT
HETATM    1  N1  UNL     1      25.652   4.740 -11.786  1.00  0.00    -0.277 N
HETATM    2  C4  UNL     1      25.421   4.070 -12.921  1.00  0.00     0.250 A
HETATM    3  O1  UNL     1      26.036   4.506 -13.913  1.00  0.00    -0.268 OA
HETATM    4  C5  UNL     1      24.617   2.972 -13.195  1.00  0.00     0.077 A
HETATM    5  C6  UNL     1      23.890   2.207 -12.309  1.00  0.00     0.036 A
HETATM    6  C7  UNL     1      23.761   2.433 -10.949  1.00  0.00     0.051 A
HETATM    7  N2  UNL     1      22.920   1.520 -10.403  1.00  0.00    -0.323 N
ATOM      8  H2  UNL     1      22.493   0.807 -10.995  1.00  0.00     0.169 HD
HETATM    9  C8  UNL     1      22.646   1.546  -9.098  1.00  0.00     0.245 A
HETATM   10  O2  UNL     1      21.859   0.674  -8.644  1.00  0.00    -0.268 OA
HETATM   11  C9  UNL     1      23.222   2.511  -8.288  1.00  0.00     0.075 A
HETATM   12  C10 UNL     1      24.079   3.455  -8.796  1.00  0.00     0.025 A
HETATM   13  C11 UNL     1      24.342   3.403 -10.150  1.00  0.00     0.059 A
HETATM   14  C12 UNL     1      25.220   4.402 -10.558  1.00  0.00     0.263 A
HETATM   15  O3  UNL     1      25.697   5.117  -9.639  1.00  0.00    -0.267 OA
ENDROOT
BRANCH   1  16
HETATM   16  C3  UNL     1      26.436   5.927 -11.912  1.00  0.00     0.162 C
BRANCH  16  17
HETATM   17  C2  UNL     1      25.655   7.157 -12.080  1.00  0.00    -0.017 C
HETATM   18  C1  UNL     1      26.034   8.068 -12.970  1.00  0.00     0.008 C
ENDBRANCH  16  17
ENDBRANCH   1  16
TORSDOF 2
ENDMDL