MODEL 5
REMARK VINA RESULT: -6.260679552      2.964      3.348
REMARK  3 active torsions:
REMARK  status: ('A' for Active; 'I' for Inactive)
REMARK    1  A    between atoms: C5_5  and  S1_6
REMARK    2  A    between atoms: S1_6  and  N1_7
REMARK    3  A    between atoms: C8_14  and  N2_15
ROOT
HETATM    1  C1  UNL     1      25.607   4.204 -14.091  1.00  0.00     0.103 C
HETATM    2  C2  UNL     1      25.722   3.958 -12.898  1.00  0.00    -0.146 C
HETATM    3  C3  UNL     1      25.831   3.656 -11.487  1.00  0.00     0.039 A
HETATM    4  C4  UNL     1      24.691   3.294 -10.765  1.00  0.00     0.047 A
HETATM    5  C5  UNL     1      24.769   3.001  -9.428  1.00  0.00     0.080 A
HETATM    6  C6  UNL     1      26.007   3.079  -8.838  1.00  0.00     0.028 A
HETATM    7  C7  UNL     1      27.126   3.432  -9.540  1.00  0.00     0.039 A
HETATM    8  C8  UNL     1      27.075   3.738 -10.908  1.00  0.00     0.120 A
ENDROOT
BRANCH   8   9
HETATM    9  N2  UNL     1      28.267   4.096 -11.581  1.00  0.00    -0.114 N
HETATM   10  O3  UNL     1      28.616   5.284 -11.545  1.00  0.00    -0.532 OA
HETATM   11  O4  UNL     1      29.007   3.170 -12.245  1.00  0.00    -0.532 OA
ENDBRANCH   8   9
BRANCH   5  12
HETATM   12  S1  UNL     1      23.338   2.547  -8.523  1.00  0.00     0.256 S
HETATM   13  O1  UNL     1      23.537   2.963  -7.076  1.00  0.00    -0.201 OA
HETATM   14  O2  UNL     1      23.104   1.068  -8.536  1.00  0.00    -0.201 OA
BRANCH  12  15
HETATM   15  N1  UNL     1      21.943   3.398  -9.140  1.00  0.00    -0.324 N
ATOM     16  H12 UNL     1      21.252   2.986  -9.766  1.00  0.00     0.169 HD
ATOM     17  H11 UNL     1      21.931   4.353  -8.783  1.00  0.00     0.169 HD
ENDBRANCH  12  15
ENDBRANCH   5  12
TORSDOF 3
ENDMDL