MODEL 4
REMARK VINA RESULT: -6.541467143      3.529      5.279
REMARK  2 active torsions:
REMARK  status: ('A' for Active; 'I' for Inactive)
REMARK    1  A    between atoms: C5_7  and  C6_8
REMARK    2  A    between atoms: C6_8  and  N2_9
ROOT
HETATM    1  N1  UNL     1      25.894   5.330  -7.004  1.00  0.00    -0.191 NA
HETATM    2  C1  UNL     1      25.220   4.553  -7.570  1.00  0.00     0.100 C
HETATM    3  C2  UNL     1      24.385   3.561  -8.258  1.00  0.00     0.059 A
HETATM    4  C3  UNL     1      23.051   3.692  -8.332  1.00  0.00     0.031 A
HETATM    5  C4  UNL     1      22.357   2.705  -8.977  1.00  0.00     0.052 A
HETATM    6  S1  UNL     1      23.576   1.626  -9.460  1.00  0.00    -0.103 SA
HETATM    7  C5  UNL     1      24.955   2.468  -8.823  1.00  0.00     0.021 A
ENDROOT
BRANCH   7   8
HETATM    8  C6  UNL     1      26.377   2.018  -8.963  1.00  0.00     0.180 C
BRANCH   8   9
HETATM    9  N2  UNL     1      26.985   2.461 -10.196  1.00  0.00    -0.305 N
HETATM   10  C7  UNL     1      27.441   3.691 -10.428  1.00  0.00     0.101 A
HETATM   11  C8  UNL     1      28.027   4.073 -11.624  1.00  0.00     0.092 A
HETATM   12  C9  UNL     1      28.149   3.144 -12.634  1.00  0.00     0.250 A
HETATM   13  O1  UNL     1      28.683   3.464 -13.744  1.00  0.00    -0.268 OA
HETATM   14  N3  UNL     1      27.687   1.905 -12.392  1.00  0.00    -0.275 N
HETATM   15  C10 UNL     1      27.125   1.569 -11.221  1.00  0.00     0.329 A
ATOM     16  H3  UNL     1      27.766   1.197 -13.123  1.00  0.00     0.173 HD
HETATM   17  O2  UNL     1      26.690   0.387 -11.007  1.00  0.00    -0.246 OA
ENDBRANCH   8   9
ENDBRANCH   7   8
TORSDOF 2
ENDMDL