MODEL 3
REMARK VINA RESULT: -7.630001764      1.976      2.646
REMARK  2 active torsions:
REMARK  status: ('A' for Active; 'I' for Inactive)
REMARK    1  A    between atoms: N2_5  and  C4_6
REMARK    2  A    between atoms: C4_6  and  C5_7
ROOT
HETATM    1  N1  UNL     1      23.539   4.918  -7.122  1.00  0.00    -0.190 NA
HETATM    2  C1  UNL     1      24.071   4.139  -7.791  1.00  0.00     0.119 C
HETATM    3  C2  UNL     1      24.753   3.163  -8.611  1.00  0.00     0.132 A
HETATM    4  C3  UNL     1      26.090   2.882  -8.450  1.00  0.00     0.136 A
HETATM    5  N2  UNL     1      26.741   1.961  -9.219  1.00  0.00    -0.313 N
HETATM    6  C11 UNL     1      25.997   1.343 -10.148  1.00  0.00     0.316 A
HETATM    7  O1  UNL     1      26.571   0.488 -10.873  1.00  0.00    -0.262 OA
HETATM    8  C12 UNL     1      24.643   1.617 -10.321  1.00  0.00     0.315 A
HETATM    9  O2  UNL     1      24.007   1.001 -11.209  1.00  0.00    -0.262 OA
HETATM   10  N3  UNL     1      24.025   2.529  -9.549  1.00  0.00    -0.309 N
ATOM     11  H3  UNL     1      23.033   2.734  -9.671  1.00  0.00     0.170 HD
ENDROOT
BRANCH   5  12
HETATM   12  C4  UNL     1      28.140   1.722  -8.998  1.00  0.00     0.170 C
BRANCH  12  13
HETATM   13  C5  UNL     1      28.562   1.686  -7.599  1.00  0.00    -0.040 A
HETATM   14  C6  UNL     1      29.209   2.773  -7.016  1.00  0.00     0.009 A
HETATM   15  C7  UNL     1      29.618   2.790  -5.718  1.00  0.00     0.001 A
HETATM   16  C8  UNL     1      29.398   1.700  -4.915  1.00  0.00     0.000 A
HETATM   17  C9  UNL     1      28.762   0.603  -5.445  1.00  0.00     0.001 A
HETATM   18  C10 UNL     1      28.345   0.597  -6.784  1.00  0.00     0.009 A
ENDBRANCH  12  13
ENDBRANCH   5  12
TORSDOF 2
ENDMDL