MODEL 2
REMARK VINA RESULT: -7.110923601      2.065      3.213
REMARK  2 active torsions:
REMARK  status: ('A' for Active; 'I' for Inactive)
REMARK    1  A    between atoms: C2_2  and  C3_3
REMARK    2  A    between atoms: C3_3  and  N1_4
ROOT
HETATM    1  N1  UNL     1      27.410   2.427  -8.539  1.00  0.00    -0.272 N
HETATM    2  C4  UNL     1      27.346   1.626  -9.625  1.00  0.00     0.319 C
HETATM    3  O1  UNL     1      28.415   0.996  -9.810  1.00  0.00    -0.262 OA
HETATM    4  C5  UNL     1      26.289   1.470 -10.462  1.00  0.00     0.314 C
HETATM    5  O2  UNL     1      26.412   0.511 -11.273  1.00  0.00    -0.262 OA
HETATM    6  N2  UNL     1      25.135   2.166 -10.571  1.00  0.00    -0.318 N
ATOM      7  H2  UNL     1      24.423   1.751 -11.171  1.00  0.00     0.169 HD
HETATM    8  C6  UNL     1      24.802   3.336  -9.989  1.00  0.00     0.051 A
HETATM    9  C7  UNL     1      23.713   3.951 -10.521  1.00  0.00     0.030 A
HETATM   10  C8  UNL     1      23.248   5.160 -10.031  1.00  0.00     0.002 A
HETATM   11  C9  UNL     1      23.908   5.763  -8.970  1.00  0.00     0.001 A
HETATM   12  C10 UNL     1      25.009   5.119  -8.448  1.00  0.00     0.019 A
HETATM   13  C11 UNL     1      25.475   3.917  -8.933  1.00  0.00     0.059 A
HETATM   14  C12 UNL     1      26.603   3.461  -8.244  1.00  0.00     0.263 C
HETATM   15  O3  UNL     1      26.884   4.111  -7.221  1.00  0.00    -0.267 OA
ENDROOT
BRANCH   1  16
HETATM   16  C3  UNL     1      28.432   2.186  -7.568  1.00  0.00     0.162 C
BRANCH  16  17
HETATM   17  C2  UNL     1      28.292   0.918  -6.843  1.00  0.00    -0.017 C
HETATM   18  C1  UNL     1      28.822   0.790  -5.649  1.00  0.00     0.008 C
ENDBRANCH  16  17
ENDBRANCH   1  16
TORSDOF 2
ENDMDL