MODEL 2
REMARK VINA RESULT: -7.681198801      1.473      2.111
REMARK  2 active torsions:
REMARK  status: ('A' for Active; 'I' for Inactive)
REMARK    1  A    between atoms: N3_9  and  C5_10
REMARK    2  A    between atoms: C5_10  and  C6_11
ROOT
HETATM    1  N1  UNL     1      22.052   2.385  -8.246  1.00  0.00    -0.191 NA
HETATM    2  C1  UNL     1      23.122   2.775  -8.491  1.00  0.00     0.106 C
HETATM    3  C2  UNL     1      24.431   3.261  -8.797  1.00  0.00     0.128 A
HETATM    4  C3  UNL     1      24.583   4.550  -9.231  1.00  0.00     0.121 A
HETATM    5  N2  UNL     1      25.835   4.954  -9.505  1.00  0.00    -0.317 N
ATOM      6  H2  UNL     1      25.984   5.909  -9.830  1.00  0.00     0.170 HD
HETATM    7  C4  UNL     1      26.905   4.138  -9.364  1.00  0.00     0.329 A
HETATM    8  O1  UNL     1      28.023   4.630  -9.653  1.00  0.00    -0.246 OA
HETATM    9  N3  UNL     1      26.774   2.859  -8.936  1.00  0.00    -0.261 N
HETATM   10  C12 UNL     1      25.528   2.425  -8.654  1.00  0.00     0.274 A
HETATM   11  O2  UNL     1      25.287   1.236  -8.246  1.00  0.00    -0.266 OA
ENDROOT
BRANCH   9  12
HETATM   12  C5  UNL     1      27.880   1.971  -8.783  1.00  0.00     0.175 C
BRANCH  12  13
HETATM   13  C6  UNL     1      28.466   1.879  -7.433  1.00  0.00    -0.040 A
HETATM   14  C7  UNL     1      28.317   0.708  -6.724  1.00  0.00     0.009 A
HETATM   15  C8  UNL     1      28.827   0.515  -5.449  1.00  0.00     0.001 A
HETATM   16  C9  UNL     1      29.516   1.542  -4.859  1.00  0.00     0.000 A
HETATM   17  C10 UNL     1      29.682   2.733  -5.547  1.00  0.00     0.001 A
HETATM   18  C11 UNL     1      29.160   2.905  -6.831  1.00  0.00     0.009 A
ENDBRANCH  12  13
ENDBRANCH   9  12
TORSDOF 2
ENDMDL