MODEL 1
REMARK VINA RESULT: -8.938930254      0.000      0.000
REMARK  10 active torsions:
REMARK  status: ('A' for Active; 'I' for Inactive)
REMARK    1  A    between atoms: C2_2  and  C3_3
REMARK    2  A    between atoms: C4_4  and  C5_5
REMARK    3  A    between atoms: C5_5  and  N1_6
REMARK    4  A    between atoms: C5_5  and  C9_16
REMARK       I    between atoms: N1_6  and  C6_7
REMARK    5  A    between atoms: C6_7  and  C7_9
REMARK       I    between atoms: C7_9  and  N2_11
REMARK       I    between atoms: C9_16  and  N5_18
REMARK    6  A    between atoms: N5_18  and  C10_20
REMARK    7  A    between atoms: C10_20  and  N6_21
REMARK    8  A    between atoms: C10_20  and  C12_26
REMARK       I    between atoms: C12_26  and  N9_28
REMARK    9  A    between atoms: N9_28  and  C13_30
REMARK   10  A    between atoms: C13_30  and  C14_31
REMARK       I    between atoms: C14_31  and  N10_33
ROOT
HETATM    1  C9  UNL     1      44.794  21.742  37.527  1.00  0.00     0.267 C
HETATM    2  O3  UNL     1      45.790  21.908  38.250  1.00  0.00    -0.269 OA
HETATM    3  N5  UNL     1      44.290  20.394  37.336  1.00  0.00    -0.328 N
ATOM      4  H5  UNL     1      43.466  20.240  36.754  1.00  0.00     0.165 HD
ENDROOT
BRANCH   3   5
HETATM    5  C10 UNL     1      44.943  19.273  37.963  1.00  0.00     0.280 C
BRANCH   5   6
HETATM    6  N6  UNL     1      46.255  19.110  37.494  1.00  0.00    -0.338 N
HETATM    7  C11 UNL     1      46.831  19.090  36.396  1.00  0.00     0.198 C
HETATM    8  N7  UNL     1      48.266  18.875  36.440  1.00  0.00    -0.067 NA
HETATM    9  N8  UNL     1      46.267  19.259  35.109  1.00  0.00    -0.067 NA
ATOM     10  H6  UNL     1      46.911  18.969  38.262  1.00  0.00     0.164 HD
ENDBRANCH   5   6
BRANCH   5  11
HETATM   11  C12 UNL     1      44.141  17.998  37.825  1.00  0.00     0.260 C
HETATM   12  O4  UNL     1      43.284  17.892  36.928  1.00  0.00    -0.269 OA
HETATM   13  N9  UNL     1      44.382  16.970  38.724  1.00  0.00    -0.349 N
ATOM     14  H9  UNL     1      45.090  17.107  39.446  1.00  0.00     0.163 HD
BRANCH  13  15
HETATM   15  C13 UNL     1      43.675  15.721  38.680  1.00  0.00     0.225 C
BRANCH  15  16
HETATM   16  C14 UNL     1      44.385  14.589  39.296  1.00  0.00     0.241 C
HETATM   17  O5  UNL     1      44.678  14.578  40.533  1.00  0.00    -0.271 OA
HETATM   18  N10 UNL     1      44.759  13.469  38.499  1.00  0.00    -0.302 N
HETATM   19  C15 UNL     1      44.457  12.241  38.814  1.00  0.00     0.203 C
ATOM     20  H10 UNL     1      45.287  13.637  37.642  1.00  0.00     0.171 HD
HETATM   21  N11 UNL     1      44.855  11.162  37.986  1.00  0.00    -0.066 NA
HETATM   22  N12 UNL     1      43.734  11.955  40.010  1.00  0.00    -0.066 NA
ENDBRANCH  15  16
ENDBRANCH  13  15
ENDBRANCH   5  11
ENDBRANCH   3   5
BRANCH   1  23
HETATM   23  C5  UNL     1      44.083  22.847  36.846  1.00  0.00     0.337 C
BRANCH  23  24
HETATM   24  C4  UNL     1      44.985  23.085  35.615  1.00  0.00    -0.057 C
HETATM   25  C3  UNL     1      45.687  23.262  34.654  1.00  0.00    -0.103 C
BRANCH  25  26
HETATM   26  C2  UNL     1      46.509  23.481  33.467  1.00  0.00     0.089 C
HETATM   27  C1  UNL     1      45.819  22.812  32.309  1.00  0.00     0.018 C
ENDBRANCH  25  26
ENDBRANCH  23  24
BRANCH  23  28
HETATM   28  N1  UNL     1      43.975  24.062  37.470  1.00  0.00    -0.379 NA
HETATM   29  C6  UNL     1      43.865  25.278  38.095  1.00  0.00     0.381 C
HETATM   30  O1  UNL     1      42.835  26.001  38.099  1.00  0.00    -0.246 OA
BRANCH  29  31
HETATM   31  C7  UNL     1      45.030  25.827  38.851  1.00  0.00     0.330 C
HETATM   32  O2  UNL     1      46.044  25.188  39.122  1.00  0.00    -0.261 OA
HETATM   33  N2  UNL     1      44.956  27.198  39.296  1.00  0.00    -0.294 N
HETATM   34  C8  UNL     1      45.027  27.465  40.561  1.00  0.00     0.203 C
ATOM     35  H2  UNL     1      44.848  27.953  38.617  1.00  0.00     0.171 HD
HETATM   36  N3  UNL     1      44.953  28.818  40.966  1.00  0.00    -0.066 NA
HETATM   37  N4  UNL     1      45.161  26.474  41.559  1.00  0.00    -0.066 NA
ENDBRANCH  29  31
ENDBRANCH  23  28
ENDBRANCH   1  23
TORSDOF 10
ENDMDL