MODEL 1
REMARK VINA RESULT: -8.084566803      0.000      0.000
REMARK  8 active torsions:
REMARK  status: ('A' for Active; 'I' for Inactive)
REMARK    1  A    between atoms: N2_8  and  C8_10
REMARK    2  A    between atoms: C8_10  and  C9_11
REMARK    3  A    between atoms: C9_11  and  N3_12
REMARK       I    between atoms: N3_12  and  C10_14
REMARK       I    between atoms: C10_14  and  N5_16
REMARK       I    between atoms: N5_16  and  C11_18
REMARK       I    between atoms: C11_18  and  N7_20
REMARK       I    between atoms: N7_20  and  C12_21
REMARK    4  A    between atoms: N9_23  and  C13_25
REMARK    5  A    between atoms: C13_25  and  C14_26
REMARK    6  A    between atoms: C14_26  and  N10_27
REMARK       I    between atoms: N10_27  and  C15_29
REMARK    7  A    between atoms: N12_31  and  S1_33
REMARK    8  A    between atoms: S1_33  and  N13_34
ROOT
HETATM    1  N3  UNL     1      44.820  28.662  41.423  1.00  0.00    -0.363 N
ATOM      2  H3  UNL     1      44.605  29.477  40.848  1.00  0.00     0.162 HD
HETATM    3  C10 UNL     1      44.817  27.352  40.801  1.00  0.00     0.191 C
HETATM    4  N4  UNL     1      45.427  26.300  41.526  1.00  0.00    -0.063 NA
HETATM    5  N5  UNL     1      44.309  27.188  39.694  1.00  0.00    -0.293 N
ATOM      6  H5  UNL     1      43.939  28.085  39.381  1.00  0.00     0.172 HD
HETATM    7  C11 UNL     1      44.055  26.275  38.737  1.00  0.00     0.272 C
HETATM    8  N6  UNL     1      42.846  26.577  37.923  1.00  0.00    -0.049 NA
HETATM    9  N7  UNL     1      44.642  25.274  38.450  1.00  0.00    -0.341 NA
HETATM   10  C12 UNL     1      45.090  24.170  37.947  1.00  0.00     0.266 C
HETATM   11  N8  UNL     1      45.920  23.260  38.722  1.00  0.00    -0.049 NA
HETATM   12  N9  UNL     1      44.826  23.793  36.711  1.00  0.00    -0.351 N
ATOM     13  H9  UNL     1      44.249  24.370  36.099  1.00  0.00     0.163 HD
ENDROOT
BRANCH   1  14
HETATM   14  C9  UNL     1      45.106  28.857  42.795  1.00  0.00     0.150 C
BRANCH  14  15
HETATM   15  C8  UNL     1      44.313  29.893  43.527  1.00  0.00     0.257 C
BRANCH  15  16
HETATM   16  N2  UNL     1      44.992  30.982  44.111  1.00  0.00    -0.062 N
HETATM   17  C2  UNL     1      44.265  32.235  44.004  1.00  0.00     0.214 C
HETATM   18  C1  UNL     1      43.133  32.214  43.007  1.00  0.00     0.042 C
HETATM   19  C3  UNL     1      43.637  32.673  45.315  1.00  0.00     0.304 C
HETATM   20  N1  UNL     1      43.119  31.532  46.012  1.00  0.00     0.087 N
HETATM   21  C4  UNL     1      42.449  32.004  47.218  1.00  0.00     0.310 C
HETATM   22  C5  UNL     1      44.252  30.746  46.459  1.00  0.00     0.300 C
HETATM   23  C6  UNL     1      45.391  30.881  45.487  1.00  0.00     0.267 C
HETATM   24  C7  UNL     1      46.266  31.210  43.384  1.00  0.00     0.273 C
ENDBRANCH  15  16
ENDBRANCH  14  15
ENDBRANCH   1  14
BRANCH  12  25
HETATM   25  C13 UNL     1      45.373  22.548  36.249  1.00  0.00     0.143 C
BRANCH  25  26
HETATM   26  C14 UNL     1      44.303  21.510  35.961  1.00  0.00     0.142 C
BRANCH  26  27
HETATM   27  N10 UNL     1      44.909  20.215  36.180  1.00  0.00    -0.362 N
HETATM   28  C15 UNL     1      44.429  19.418  37.280  1.00  0.00     0.199 C
HETATM   29  N11 UNL     1      44.819  19.848  38.566  1.00  0.00    -0.063 NA
HETATM   30  N12 UNL     1      43.703  18.386  37.076  1.00  0.00    -0.241 N
ATOM     31  H12 UNL     1      43.463  18.122  36.120  1.00  0.00     0.183 HD
ATOM     32  H10 UNL     1      45.656  19.877  35.572  1.00  0.00     0.162 HD
BRANCH  30  33
HETATM   33  S1  UNL     1      43.120  17.431  38.395  1.00  0.00     0.319 S
HETATM   34  O1  UNL     1      42.135  18.280  39.137  1.00  0.00    -0.183 OA
HETATM   35  O2  UNL     1      42.516  16.180  37.839  1.00  0.00    -0.183 OA
BRANCH  33  36
HETATM   36  N13 UNL     1      44.450  17.096  39.441  1.00  0.00    -0.311 N
ATOM     37 2H13 UNL     1      44.895  17.773  40.061  1.00  0.00     0.170 HD
ATOM     38 1H13 UNL     1      44.703  16.114  39.327  1.00  0.00     0.170 HD
ENDBRANCH  33  36
ENDBRANCH  30  33
ENDBRANCH  26  27
ENDBRANCH  25  26
ENDBRANCH  12  25
TORSDOF 8
ENDMDL