MODEL 2
REMARK VINA RESULT: -8.447863748      3.712      5.017
REMARK  9 active torsions:
REMARK  status: ('A' for Active; 'I' for Inactive)
REMARK       I    between atoms: N2_8  and  C6_9
REMARK       I    between atoms: C6_9  and  N12_36
REMARK       I    between atoms: N3_10  and  C7_12
REMARK       I    between atoms: N5_14  and  C8_16
REMARK       I    between atoms: N7_18  and  C9_20
REMARK    1  A    between atoms: N9_22  and  C10_24
REMARK    2  A    between atoms: C10_24  and  C11_25
REMARK    3  A    between atoms: C11_25  and  C12_26
REMARK    4  A    between atoms: C12_26  and  C13_27
REMARK    5  A    between atoms: C13_27  and  N10_28
REMARK    6  A    between atoms: N10_28  and  S2_30
REMARK    7  A    between atoms: S2_30  and  N11_31
REMARK    8  A    between atoms: N12_36  and  N13_38
REMARK    9  A    between atoms: N13_38  and  N14_39
ROOT
HETATM    1  N1  UNL     1      48.817  25.526  39.729  1.00  0.00    -0.195 NA
HETATM    2  C1  UNL     1      48.089  26.270  39.214  1.00  0.00     0.086 C
HETATM    3  C2  UNL     1      47.167  27.200  38.551  1.00  0.00     0.218 C
HETATM    4  C3  UNL     1      46.530  28.043  39.624  1.00  0.00     0.115 C
HETATM    5  S1  UNL     1      45.013  27.192  40.191  1.00  0.00    -0.164 SA
HETATM    6  C4  UNL     1      43.969  26.969  38.718  1.00  0.00     0.094 C
HETATM    7  C5  UNL     1      44.897  27.144  37.515  1.00  0.00     0.153 C
HETATM    8  N2  UNL     1      46.131  26.471  37.849  1.00  0.00    -0.198 N
HETATM    9  C6  UNL     1      46.291  25.119  37.481  1.00  0.00     0.697 C
HETATM   10  N3  UNL     1      46.013  24.200  38.322  1.00  0.00    -0.162 N
ATOM     11  H3  UNL     1      45.680  24.479  39.245  1.00  0.00     0.187 HD
HETATM   12  C7  UNL     1      46.140  22.811  38.048  1.00  0.00     0.209 C
HETATM   13  N4  UNL     1      47.303  22.066  38.282  1.00  0.00    -0.063 NA
HETATM   14  N5  UNL     1      45.100  22.240  37.557  1.00  0.00    -0.304 N
ATOM     15  H5  UNL     1      44.246  22.770  37.382  1.00  0.00     0.171 HD
HETATM   16  C8  UNL     1      45.168  20.832  37.259  1.00  0.00     0.197 C
HETATM   17  N6  UNL     1      46.045  20.403  36.240  1.00  0.00    -0.063 NA
HETATM   18  N7  UNL     1      44.422  20.051  37.942  1.00  0.00    -0.305 N
ATOM     19  H7  UNL     1      43.822  20.460  38.658  1.00  0.00     0.171 HD
HETATM   20  C9  UNL     1      44.385  18.621  37.753  1.00  0.00     0.190 C
HETATM   21  N8  UNL     1      44.749  18.178  36.457  1.00  0.00    -0.063 NA
HETATM   22  N9  UNL     1      44.042  17.892  38.717  1.00  0.00    -0.364 N
ATOM     23  H9  UNL     1      43.821  18.421  39.560  1.00  0.00     0.162 HD
HETATM   24  N12 UNL     1      46.756  24.800  36.189  1.00  0.00    -0.116 N
ATOM     25  H12 UNL     1      47.756  24.647  36.062  1.00  0.00     0.203 HD
ENDROOT
BRANCH  24  26
HETATM   26  N13 UNL     1      45.925  24.680  35.070  1.00  0.00    -0.015 NA
BRANCH  26  27
HETATM   27  N14 UNL     1      46.041  23.407  34.516  1.00  0.00    -0.328 N
ATOM     28 2H14 UNL     1      45.815  22.545  35.012  1.00  0.00     0.174 HD
ATOM     29 1H14 UNL     1      46.382  23.469  33.556  1.00  0.00     0.174 HD
ENDBRANCH  26  27
ENDBRANCH  24  26
BRANCH  22  30
HETATM   30  C10 UNL     1      43.898  16.498  38.885  1.00  0.00     0.122 C
BRANCH  30  31
HETATM   31  C11 UNL     1      42.470  16.048  39.023  1.00  0.00     0.021 C
BRANCH  31  32
HETATM   32  C12 UNL     1      42.141  14.997  37.955  1.00  0.00     0.022 C
BRANCH  32  33
HETATM   33  C13 UNL     1      43.227  13.978  37.952  1.00  0.00     0.133 C
BRANCH  33  34
HETATM   34  N10 UNL     1      42.852  12.664  38.368  1.00  0.00    -0.303 N
ATOM     35  H10 UNL     1      41.979  12.189  38.141  1.00  0.00     0.173 HD
BRANCH  34  36
HETATM   36  S2  UNL     1      44.142  12.018  39.327  1.00  0.00     0.312 S
HETATM   37  O1  UNL     1      43.589  11.394  40.555  1.00  0.00    -0.183 OA
HETATM   38  O2  UNL     1      45.052  13.144  39.716  1.00  0.00    -0.183 OA
BRANCH  36  39
HETATM   39  N11 UNL     1      45.046  10.848  38.461  1.00  0.00    -0.312 N
ATOM     40 2H11 UNL     1      44.701  10.380  37.624  1.00  0.00     0.170 HD
ATOM     41 1H11 UNL     1      45.958  10.687  38.889  1.00  0.00     0.170 HD
ENDBRANCH  36  39
ENDBRANCH  34  36
ENDBRANCH  33  34
ENDBRANCH  32  33
ENDBRANCH  31  32
ENDBRANCH  30  31
ENDBRANCH  22  30
TORSDOF 9
ENDMDL