MODEL 1
REMARK VINA RESULT: -7.450424190      0.000      0.000
REMARK  13 active torsions:
REMARK  status: ('A' for Active; 'I' for Inactive)
REMARK       I    between atoms: N1_3  and  C3_5
REMARK       I    between atoms: N3_7  and  C4_9
REMARK       I    between atoms: N5_11  and  C5_13
REMARK    1  A    between atoms: N7_15  and  C6_17
REMARK    2  A    between atoms: C6_17  and  C7_18
REMARK    3  A    between atoms: C6_17  and  C21_39
REMARK    4  A    between atoms: C8_19  and  C9_20
REMARK    5  A    between atoms: C10_21  and  C11_22
REMARK    6  A    between atoms: C12_23  and  C13_24
REMARK    7  A    between atoms: C14_25  and  C15_26
REMARK    8  A    between atoms: C15_26  and  C16_27
REMARK    9  A    between atoms: C16_27  and  C17_28
REMARK   10  A    between atoms: C17_28  and  N8_29
REMARK       I    between atoms: N8_29  and  C18_31
REMARK   11  A    between atoms: C18_31  and  C19_33
REMARK   12  A    between atoms: C19_33  and  N9_34
REMARK       I    between atoms: N9_34  and  C20_36
REMARK   13  A    between atoms: C21_39  and  O3_40
ROOT
HETATM    1  C1  UNL     1      36.021  25.894  30.033  1.00  0.00     0.037 C
HETATM    2  C2  UNL     1      37.084  26.458  30.117  1.00  0.00     0.001 C
HETATM    3  N1  UNL     1      38.326  27.140  30.206  1.00  0.00    -0.290 N
ATOM      4  H1  UNL     1      38.782  27.449  29.349  1.00  0.00     0.179 HD
HETATM    5  C3  UNL     1      38.953  27.403  31.451  1.00  0.00     0.202 C
HETATM    6  N2  UNL     1      39.771  26.393  32.053  1.00  0.00    -0.062 NA
HETATM    7  N3  UNL     1      38.831  28.510  32.082  1.00  0.00    -0.304 N
ATOM      8  H3  UNL     1      39.326  28.595  32.970  1.00  0.00     0.171 HD
HETATM    9  C4  UNL     1      38.074  29.620  31.662  1.00  0.00     0.197 C
HETATM   10  N4  UNL     1      37.522  29.644  30.329  1.00  0.00    -0.063 NA
HETATM   11  N5  UNL     1      37.826  30.644  32.374  1.00  0.00    -0.305 N
ATOM     12  H5  UNL     1      37.268  31.401  31.980  1.00  0.00     0.171 HD
HETATM   13  C5  UNL     1      38.308  30.759  33.715  1.00  0.00     0.191 C
HETATM   14  N6  UNL     1      38.836  31.986  34.225  1.00  0.00    -0.063 NA
HETATM   15  N7  UNL     1      38.287  29.758  34.515  1.00  0.00    -0.347 N
ATOM     16  H7  UNL     1      37.911  28.885  34.146  1.00  0.00     0.163 HD
ENDROOT
BRANCH  15  17
HETATM   17  C6  UNL     1      38.733  29.736  35.865  1.00  0.00     0.188 C
BRANCH  17  18
HETATM   18  C7  UNL     1      39.784  28.758  36.120  1.00  0.00    -0.065 C
HETATM   19  C8  UNL     1      40.636  27.932  36.345  1.00  0.00    -0.012 C
BRANCH  19  20
HETATM   20  C9  UNL     1      41.613  26.948  36.626  1.00  0.00    -0.001 C
HETATM   21  C10 UNL     1      42.434  26.093  36.847  1.00  0.00    -0.000 C
BRANCH  21  22
HETATM   22  C11 UNL     1      43.384  25.073  37.083  1.00  0.00    -0.000 C
HETATM   23  C12 UNL     1      44.191  24.189  37.261  1.00  0.00    -0.001 C
BRANCH  23  24
HETATM   24  C13 UNL     1      45.127  23.140  37.445  1.00  0.00    -0.014 C
HETATM   25  C14 UNL     1      45.942  22.262  37.590  1.00  0.00    -0.092 C
BRANCH  25  26
HETATM   26  C15 UNL     1      46.964  21.203  37.755  1.00  0.00     0.096 C
BRANCH  26  27
HETATM   27  C16 UNL     1      46.900  20.270  36.540  1.00  0.00     0.032 C
BRANCH  27  28
HETATM   28  C17 UNL     1      45.523  19.677  36.531  1.00  0.00     0.123 C
BRANCH  28  29
HETATM   29  N8  UNL     1      45.310  18.652  37.502  1.00  0.00    -0.360 N
HETATM   30  C18 UNL     1      44.064  17.965  37.607  1.00  0.00     0.235 C
HETATM   31  O1  UNL     1      43.103  18.243  36.839  1.00  0.00    -0.272 OA
ATOM     32  H8  UNL     1      46.070  18.404  38.137  1.00  0.00     0.162 HD
BRANCH  30  33
HETATM   33  C19 UNL     1      43.858  16.906  38.618  1.00  0.00     0.226 C
BRANCH  33  34
HETATM   34  N9  UNL     1      42.711  16.099  38.304  1.00  0.00    -0.337 N
HETATM   35  C20 UNL     1      42.808  14.713  38.003  1.00  0.00     0.329 C
HETATM   36  N10 UNL     1      41.660  13.947  37.700  1.00  0.00    -0.040 NA
HETATM   37  O2  UNL     1      43.939  14.178  38.013  1.00  0.00    -0.251 OA
ATOM     38  H9  UNL     1      41.791  16.538  38.297  1.00  0.00     0.164 HD
ENDBRANCH  33  34
ENDBRANCH  30  33
ENDBRANCH  28  29
ENDBRANCH  27  28
ENDBRANCH  26  27
ENDBRANCH  25  26
ENDBRANCH  23  24
ENDBRANCH  21  22
ENDBRANCH  19  20
ENDBRANCH  17  18
BRANCH  17  39
HETATM   39  C21 UNL     1      37.579  29.465  36.838  1.00  0.00     0.202 C
BRANCH  39  40
HETATM   40  O3  UNL     1      37.048  28.211  36.669  1.00  0.00    -0.398 OA
ATOM     41  H3  UNL     1      36.529  27.941  37.418  1.00  0.00     0.209 HD
ENDBRANCH  39  40
ENDBRANCH  17  39
ENDBRANCH  15  17
TORSDOF 13
ENDMDL