MODEL 5
REMARK VINA RESULT: -7.903188449      1.167      2.120
REMARK  12 active torsions:
REMARK  status: ('A' for Active; 'I' for Inactive)
REMARK    1  A    between atoms: C3_3  and  C4_4
REMARK    2  A    between atoms: C4_4  and  C5_5
REMARK    3  A    between atoms: C5_5  and  N1_6
REMARK       I    between atoms: C6_8  and  N3_10
REMARK    4  A    between atoms: N3_10  and  C7_12
REMARK    5  A    between atoms: C9_17  and  C10_18
REMARK    6  A    between atoms: C10_18  and  C11_19
REMARK    7  A    between atoms: C11_19  and  C12_20
REMARK    8  A    between atoms: C14_24  and  N6_25
REMARK       I    between atoms: N6_25  and  C15_27
REMARK    9  A    between atoms: N10_34  and  O2_35
REMARK   10  A    between atoms: C16_39  and  C17_40
REMARK   11  A    between atoms: C17_40  and  C18_41
REMARK   12  A    between atoms: C18_41  and  C19_42
ROOT
HETATM    1  C1  UNL     1      45.653  24.103  29.737  1.00  0.00     0.012 C
HETATM    2  C2  UNL     1      46.540  24.274  30.536  1.00  0.00    -0.117 C
HETATM    3  C3  UNL     1      47.620  24.458  31.516  1.00  0.00     0.098 C
ENDROOT
BRANCH   3   4
HETATM    4  C4  UNL     1      48.347  23.133  31.705  1.00  0.00     0.056 C
BRANCH   4   5
HETATM    5  C5  UNL     1      48.515  22.855  33.177  1.00  0.00     0.064 C
BRANCH   5   6
HETATM    6  N1  UNL     1      47.295  22.520  33.778  1.00  0.00    -0.344 N
HETATM    7  C6  UNL     1      46.304  21.839  33.464  1.00  0.00     0.193 C
HETATM    8  N2  UNL     1      46.083  21.105  32.250  1.00  0.00    -0.063 NA
HETATM    9  N3  UNL     1      45.224  21.746  34.401  1.00  0.00    -0.315 N
ATOM     10  H3  UNL     1      44.393  22.310  34.225  1.00  0.00     0.170 HD
ATOM     11  H1  UNL     1      47.195  22.939  34.703  1.00  0.00     0.167 HD
BRANCH   9  12
HETATM   12  C7  UNL     1      45.231  21.004  35.442  1.00  0.00     0.137 A
HETATM   13  N4  UNL     1      45.693  19.737  35.338  1.00  0.00    -0.306 N
HETATM   14  C8  UNL     1      45.701  18.948  36.445  1.00  0.00     0.273 A
ATOM     15  H4  UNL     1      46.030  19.381  34.444  1.00  0.00     0.170 HD
HETATM   16  O1  UNL     1      46.136  17.783  36.314  1.00  0.00    -0.266 OA
HETATM   17  C9  UNL     1      45.262  19.374  37.657  1.00  0.00     0.098 A
HETATM   18  N11 UNL     1      44.806  20.651  37.713  1.00  0.00    -0.349 N
HETATM   19  C16 UNL     1      44.779  21.481  36.635  1.00  0.00     0.074 A
ATOM     20  H11 UNL     1      44.467  21.007  38.607  1.00  0.00     0.166 HD
BRANCH  17  21
HETATM   21  C10 UNL     1      45.230  18.675  38.766  1.00  0.00     0.015 C
BRANCH  21  22
HETATM   22  C11 UNL     1      43.958  18.228  39.356  1.00  0.00     0.092 C
BRANCH  22  23
HETATM   23  C12 UNL     1      43.766  16.768  39.069  1.00  0.00     0.079 A
HETATM   24  C13 UNL     1      44.276  15.851  39.952  1.00  0.00     0.135 A
HETATM   25  N5  UNL     1      44.110  14.549  39.699  1.00  0.00    -0.198 N
HETATM   26  C14 UNL     1      43.453  14.121  38.596  1.00  0.00     0.701 A
ATOM     27  H5  UNL     1      44.488  13.863  40.352  1.00  0.00     0.183 HD
HETATM   28  N9  UNL     1      42.976  15.066  37.770  1.00  0.00    -0.105 N
HETATM   29  N10 UNL     1      43.113  16.365  37.972  1.00  0.00    -0.152 N
ATOM     30  H9  UNL     1      42.477  14.763  36.934  1.00  0.00     0.208 HD
BRANCH  26  31
HETATM   31  N6  UNL     1      43.317  12.858  38.383  1.00  0.00    -0.162 N
HETATM   32  C15 UNL     1      44.169  11.939  39.034  1.00  0.00     0.200 C
HETATM   33  N7  UNL     1      45.235  11.432  38.521  1.00  0.00    -0.373 N
HETATM   34  N8  UNL     1      43.845  11.524  40.362  1.00  0.00    -0.063 NA
ATOM     35  H72 UNL     1      45.466  11.728  37.573  1.00  0.00     0.158 HD
ATOM     36  H71 UNL     1      45.850  10.768  38.991  1.00  0.00     0.158 HD
ATOM     37  H6  UNL     1      42.594  12.523  37.745  1.00  0.00     0.187 HD
ENDBRANCH  26  31
BRANCH  29  38
HETATM   38  O2  UNL     1      42.664  17.224  37.195  1.00  0.00    -0.267 OA
ATOM     39  H2  UNL     1      41.723  17.300  37.093  1.00  0.00     0.247 HD
ENDBRANCH  29  38
ENDBRANCH  22  23
ENDBRANCH  21  22
ENDBRANCH  17  21
BRANCH  19  40
HETATM   40  C17 UNL     1      44.313  22.681  36.817  1.00  0.00     0.015 C
BRANCH  40  41
HETATM   41  C18 UNL     1      44.889  23.672  37.702  1.00  0.00     0.129 C
BRANCH  41  42
HETATM   42  C19 UNL     1      46.299  23.967  37.208  1.00  0.00     0.234 C
HETATM   43  N12 UNL     1      47.347  23.784  38.116  1.00  0.00    -0.062 NA
HETATM   44  O3  UNL     1      46.419  24.351  36.025  1.00  0.00    -0.277 OA
ENDBRANCH  41  42
ENDBRANCH  40  41
ENDBRANCH  19  40
ENDBRANCH   9  12
ENDBRANCH   5   6
ENDBRANCH   4   5
ENDBRANCH   3   4
TORSDOF 12
ENDMDL