MODEL 1
REMARK VINA RESULT: -7.939876206      0.000      0.000
REMARK  13 active torsions:
REMARK  status: ('A' for Active; 'I' for Inactive)
REMARK    1  A    between atoms: C3_5  and  C4_6
REMARK    2  A    between atoms: C4_6  and  C5_7
REMARK    3  A    between atoms: C6_10  and  N3_11
REMARK    4  A    between atoms: N5_16  and  C7_17
REMARK    5  A    between atoms: C7_17  and  C8_18
REMARK    6  A    between atoms: C9_19  and  C10_20
REMARK    7  A    between atoms: C10_20  and  C11_21
REMARK    8  A    between atoms: C13_25  and  C14_26
REMARK    9  A    between atoms: C14_26  and  C15_27
REMARK   10  A    between atoms: C15_27  and  C16_28
REMARK   11  A    between atoms: C16_28  and  C17_29
REMARK   12  A    between atoms: C20_38  and  N10_39
REMARK   13  A    between atoms: N10_39  and  O3_41
ROOT
HETATM    1  C5  UNL     1      48.663  21.525  36.190  1.00  0.00     0.142 A
HETATM    2  N2  UNL     1      49.455  20.435  36.133  1.00  0.00    -0.174 N
ATOM      3  H2  UNL     1      50.273  20.348  35.529  1.00  0.00     0.186 HD
HETATM    4  C6  UNL     1      49.028  19.481  36.973  1.00  0.00     0.692 A
HETATM    5  N4  UNL     1      47.930  20.003  37.574  1.00  0.00    -0.128 N
ATOM      6  H4  UNL     1      47.364  19.526  38.276  1.00  0.00     0.206 HD
HETATM    7  N5  UNL     1      47.700  21.231  37.111  1.00  0.00    -0.258 N
ENDROOT
BRANCH   7   8
HETATM    8  C7  UNL     1      46.618  22.055  37.539  1.00  0.00     0.178 C
BRANCH   8   9
HETATM    9  C8  UNL     1      45.354  21.313  37.780  1.00  0.00    -0.009 C
HETATM   10  C9  UNL     1      44.541  20.922  36.824  1.00  0.00    -0.022 C
BRANCH  10  11
HETATM   11  C10 UNL     1      43.305  20.189  37.157  1.00  0.00     0.103 C
BRANCH  11  12
HETATM   12  C11 UNL     1      43.653  18.790  37.490  1.00  0.00     0.086 A
HETATM   13  N6  UNL     1      44.465  18.050  36.681  1.00  0.00    -0.353 N
HETATM   14  C12 UNL     1      44.590  16.834  37.249  1.00  0.00     0.114 A
ATOM     15  H6  UNL     1      44.897  18.359  35.810  1.00  0.00     0.166 HD
HETATM   16  C13 UNL     1      43.860  16.803  38.413  1.00  0.00     0.028 A
HETATM   17  N8  UNL     1      43.295  18.024  38.533  1.00  0.00    -0.343 N
HETATM   18  C18 UNL     1      42.438  18.443  39.611  1.00  0.00     0.157 C
BRANCH  16  19
HETATM   19  C14 UNL     1      43.691  15.670  39.389  1.00  0.00     0.059 C
BRANCH  19  20
HETATM   20  C15 UNL     1      44.387  14.439  38.923  1.00  0.00     0.015 C
BRANCH  20  21
HETATM   21  C16 UNL     1      44.762  13.499  40.031  1.00  0.00     0.100 C
BRANCH  21  22
HETATM   22  C17 UNL     1      44.281  12.141  39.768  1.00  0.00     0.231 C
HETATM   23  N7  UNL     1      44.646  11.500  38.539  1.00  0.00    -0.062 NA
HETATM   24  O1  UNL     1      43.564  11.512  40.568  1.00  0.00    -0.277 OA
ENDBRANCH  21  22
ENDBRANCH  20  21
ENDBRANCH  19  20
ENDBRANCH  16  19
ENDBRANCH  11  12
ENDBRANCH  10  11
ENDBRANCH   8   9
ENDBRANCH   7   8
BRANCH   1  25
HETATM   25  C4  UNL     1      48.771  22.775  35.451  1.00  0.00     0.099 C
BRANCH  25  26
HETATM   26  C3  UNL     1      48.143  22.926  34.281  1.00  0.00     0.112 A
HETATM   27  N1  UNL     1      48.156  24.055  33.601  1.00  0.00    -0.341 N
HETATM   28  C2  UNL     1      47.500  24.185  32.400  1.00  0.00     0.058 A
ATOM     29  H1  UNL     1      48.666  24.855  33.977  1.00  0.00     0.167 HD
HETATM   30  C1  UNL     1      47.592  25.357  31.828  1.00  0.00     0.045 C
HETATM   31  C20 UNL     1      46.804  23.167  31.841  1.00  0.00     0.148 A
HETATM   32  C19 UNL     1      46.807  21.965  32.592  1.00  0.00     0.277 A
HETATM   33  N9  UNL     1      47.460  21.899  33.748  1.00  0.00    -0.307 N
HETATM   34  O2  UNL     1      46.167  20.968  32.115  1.00  0.00    -0.265 OA
ATOM     35  H9  UNL     1      47.440  21.017  34.260  1.00  0.00     0.170 HD
BRANCH  31  36
HETATM   36  N10 UNL     1      46.155  23.159  30.735  1.00  0.00    -0.262 N
ATOM     37  H10 UNL     1      46.655  23.457  29.898  1.00  0.00     0.194 HD
BRANCH  36  38
HETATM   38  O3  UNL     1      44.874  22.790  30.588  1.00  0.00    -0.289 OA
ATOM     39  H3  UNL     1      44.557  22.128  29.985  1.00  0.00     0.244 HD
ENDBRANCH  36  38
ENDBRANCH  31  36
ENDBRANCH  25  26
ENDBRANCH   1  25
BRANCH   4  40
HETATM   40  N3  UNL     1      49.555  18.320  37.164  1.00  0.00    -0.233 N
ATOM     41  H32 UNL     1      49.093  17.472  37.491  1.00  0.00     0.174 HD
ATOM     42  H31 UNL     1      50.529  18.055  37.019  1.00  0.00     0.174 HD
ENDBRANCH   4  40
TORSDOF 13
ENDMDL