MODEL 1
REMARK VINA RESULT: -7.637181664      0.000      0.000
REMARK  11 active torsions:
REMARK  status: ('A' for Active; 'I' for Inactive)
REMARK    1  A    between atoms: C6_9  and  C7_10
REMARK    2  A    between atoms: C7_10  and  C12_16
REMARK    3  A    between atoms: C8_11  and  N2_12
REMARK    4  A    between atoms: C12_16  and  C13_17
REMARK    5  A    between atoms: C12_16  and  N4_22
REMARK    6  A    between atoms: C13_17  and  S1_18
REMARK    7  A    between atoms: S1_18  and  N3_19
REMARK       I    between atoms: C14_24  and  N6_26
REMARK    8  A    between atoms: N6_26  and  C15_28
REMARK    9  A    between atoms: C15_28  and  C16_29
REMARK   10  A    between atoms: C17_30  and  C18_31
REMARK   11  A    between atoms: C18_31  and  N7_32
REMARK       I    between atoms: N7_32  and  C19_34
ROOT
HETATM    1  C12 UNL     1      47.335  20.795  36.654  1.00  0.00     0.130 C
ENDROOT
BRANCH   1   2
HETATM    2  C7  UNL     1      47.335  22.175  36.002  1.00  0.00     0.004 C
HETATM    3  C8  UNL     1      47.873  22.174  34.668  1.00  0.00     0.211 C
BRANCH   2   4
HETATM    4  C6  UNL     1      46.839  23.126  36.765  1.00  0.00     0.038 A
HETATM    5  C5  UNL     1      45.447  23.366  36.794  1.00  0.00     0.209 A
HETATM    6  C3  UNL     1      44.884  24.347  37.589  1.00  0.00     0.074 A
HETATM    7  O1  UNL     1      44.590  22.759  36.141  1.00  0.00    -0.285 OA
HETATM    8  N1  UNL     1      45.599  25.120  38.370  1.00  0.00    -0.354 N
HETATM    9  C4  UNL     1      43.547  24.521  37.567  1.00  0.00     0.047 C
HETATM   10  C2  UNL     1      46.926  24.963  38.406  1.00  0.00     0.033 A
ATOM     11  H1  UNL     1      45.148  25.833  38.943  1.00  0.00     0.166 HD
HETATM   12  C1  UNL     1      47.593  25.763  39.217  1.00  0.00     0.044 C
HETATM   13  C20 UNL     1      47.536  23.979  37.612  1.00  0.00    -0.005 A
HETATM   14  C21 UNL     1      48.822  23.962  37.713  1.00  0.00     0.026 C
ENDBRANCH   2   4
BRANCH   3  15
HETATM   15  N2  UNL     1      47.230  21.740  33.499  1.00  0.00    -0.058 N
HETATM   16  C9  UNL     1      46.308  20.658  33.581  1.00  0.00     0.277 C
HETATM   17  C10 UNL     1      48.080  21.618  32.305  1.00  0.00     0.277 C
HETATM   18  C11 UNL     1      46.350  22.883  33.033  1.00  0.00     0.277 C
ENDBRANCH   3  15
ENDBRANCH   1   2
BRANCH   1  19
HETATM   19  C13 UNL     1      48.475  20.473  37.520  1.00  0.00     0.127 C
BRANCH  19  20
HETATM   20  S1  UNL     1      49.495  19.168  36.675  1.00  0.00    -0.060 SA
BRANCH  20  21
HETATM   21  N3  UNL     1      50.021  17.956  37.803  1.00  0.00    -0.374 N
ATOM     22  H32 UNL     1      49.384  17.332  38.299  1.00  0.00     0.164 HD
ATOM     23  H31 UNL     1      51.036  17.956  37.897  1.00  0.00     0.164 HD
ENDBRANCH  20  21
ENDBRANCH  19  20
ENDBRANCH   1  19
BRANCH   1  24
HETATM   24  N4  UNL     1      46.124  20.763  37.595  1.00  0.00    -0.355 N
HETATM   25  C14 UNL     1      45.510  19.625  37.760  1.00  0.00     0.185 C
HETATM   26  N5  UNL     1      45.923  18.430  37.105  1.00  0.00    -0.064 NA
HETATM   27  N6  UNL     1      44.377  19.527  38.605  1.00  0.00    -0.354 N
ATOM     28  H6  UNL     1      43.578  20.150  38.481  1.00  0.00     0.163 HD
ATOM     29  H4  UNL     1      45.808  21.605  38.077  1.00  0.00     0.162 HD
BRANCH  27  30
HETATM   30  C15 UNL     1      44.376  18.534  39.638  1.00  0.00     0.216 C
BRANCH  30  31
HETATM   31  C16 UNL     1      44.006  17.211  39.139  1.00  0.00    -0.085 C
HETATM   32  C17 UNL     1      43.716  16.111  38.740  1.00  0.00    -0.085 C
BRANCH  32  33
HETATM   33  C18 UNL     1      43.386  14.765  38.268  1.00  0.00     0.216 C
BRANCH  33  34
HETATM   34  N7  UNL     1      44.557  13.899  38.254  1.00  0.00    -0.354 N
HETATM   35  C19 UNL     1      44.432  12.649  38.894  1.00  0.00     0.182 C
HETATM   36  N8  UNL     1      43.735  11.725  38.354  1.00  0.00    -0.374 N
HETATM   37  N9  UNL     1      45.072  12.415  40.128  1.00  0.00    -0.064 NA
ATOM     38  H82 UNL     1      43.272  11.894  37.461  1.00  0.00     0.158 HD
ATOM     39  H81 UNL     1      43.645  10.820  38.817  1.00  0.00     0.158 HD
ATOM     40  H7  UNL     1      45.425  14.183  37.803  1.00  0.00     0.163 HD
ENDBRANCH  33  34
ENDBRANCH  32  33
ENDBRANCH  30  31
ENDBRANCH  27  30
ENDBRANCH   1  24
TORSDOF 11
ENDMDL