MODEL 5
REMARK VINA RESULT: -6.390825969      1.408      2.110
REMARK  11 active torsions:
REMARK  status: ('A' for Active; 'I' for Inactive)
REMARK    1  A    between atoms: C2_2  and  N1_3
REMARK    2  A    between atoms: C2_2  and  C11_29
REMARK    3  A    between atoms: N1_3  and  C3_5
REMARK    4  A    between atoms: C3_5  and  C4_6
REMARK    5  A    between atoms: C3_5  and  C6_12
REMARK    6  A    between atoms: C4_6  and  N2_8
REMARK    7  A    between atoms: C6_12  and  N3_13
REMARK    8  A    between atoms: C6_12  and  C8_18
REMARK       I    between atoms: C8_18  and  N6_20
REMARK       I    between atoms: C9_22  and  N8_24
REMARK       I    between atoms: C11_29  and  N11_31
REMARK    9  A    between atoms: N11_31  and  C12_33
REMARK   10  A    between atoms: C12_33  and  C13_34
REMARK   11  A    between atoms: C12_33  and  C14_37
ROOT
HETATM    1  C3  UNL     1      47.843  21.800  36.666  1.00  0.00     0.139 C
ENDROOT
BRANCH   1   2
HETATM    2  N1  UNL     1      48.141  23.015  36.142  1.00  0.00    -0.401 N
ATOM      3  H1  UNL     1      47.935  23.060  35.143  1.00  0.00     0.154 HD
BRANCH   2   4
HETATM    4  C2  UNL     1      48.644  24.187  36.608  1.00  0.00     0.165 C
HETATM    5  C1  UNL     1      50.136  24.400  36.727  1.00  0.00     0.042 C
BRANCH   4   6
HETATM    6  C11 UNL     1      48.001  24.687  37.884  1.00  0.00     0.240 C
HETATM    7  O2  UNL     1      48.482  24.354  38.962  1.00  0.00    -0.271 OA
HETATM    8  N11 UNL     1      46.882  25.510  37.768  1.00  0.00    -0.346 N
ATOM      9  H11 UNL     1      46.518  25.759  36.847  1.00  0.00     0.163 HD
BRANCH   8  10
HETATM   10  C12 UNL     1      46.227  26.019  38.989  1.00  0.00     0.181 C
BRANCH  10  11
HETATM   11  C13 UNL     1      46.971  27.199  39.497  1.00  0.00     0.254 C
HETATM   12  N12 UNL     1      47.229  27.448  40.865  1.00  0.00    -0.060 NA
HETATM   13  O3  UNL     1      47.423  28.064  38.677  1.00  0.00    -0.275 OA
ENDBRANCH  10  11
BRANCH  10  14
HETATM   14  C14 UNL     1      44.802  26.376  38.724  1.00  0.00    -0.022 C
HETATM   15  C15 UNL     1      44.678  27.417  37.609  1.00  0.00     0.017 C
HETATM   16  C16 UNL     1      44.077  26.848  39.963  1.00  0.00     0.017 C
HETATM   17  C17 UNL     1      44.056  25.162  38.217  1.00  0.00     0.017 C
ENDBRANCH  10  14
ENDBRANCH   8  10
ENDBRANCH   4   6
ENDBRANCH   2   4
ENDBRANCH   1   2
BRANCH   1  18
HETATM   18  C4  UNL     1      48.704  20.589  36.548  1.00  0.00     0.204 C
HETATM   19  C5  UNL     1      49.384  20.383  35.222  1.00  0.00     0.042 C
BRANCH  18  20
HETATM   20  N2  UNL     1      47.990  19.373  36.950  1.00  0.00    -0.073 N
ATOM     21  H23 UNL     1      47.796  18.773  36.147  1.00  0.00     0.274 HD
ATOM     22  H22 UNL     1      48.595  18.743  37.477  1.00  0.00     0.274 HD
ATOM     23  H21 UNL     1      47.137  19.588  37.467  1.00  0.00     0.274 HD
ENDBRANCH  18  20
ENDBRANCH   1  18
BRANCH   1  24
HETATM   24  C6  UNL     1      46.440  21.340  36.166  1.00  0.00     0.200 C
BRANCH  24  25
HETATM   25  N3  UNL     1      46.220  21.957  34.910  1.00  0.00    -0.352 N
HETATM   26  C7  UNL     1      46.096  21.436  33.763  1.00  0.00     0.197 C
HETATM   27  N4  UNL     1      46.148  20.058  33.445  1.00  0.00    -0.067 NA
HETATM   28  N5  UNL     1      45.879  22.329  32.648  1.00  0.00    -0.067 NA
ATOM     29  H3  UNL     1      46.152  22.974  34.933  1.00  0.00     0.162 HD
ENDBRANCH  24  25
BRANCH  24  30
HETATM   30  C8  UNL     1      45.376  21.695  37.125  1.00  0.00     0.248 C
HETATM   31  O1  UNL     1      45.600  22.058  38.313  1.00  0.00    -0.271 OA
HETATM   32  N6  UNL     1      43.971  21.659  36.792  1.00  0.00    -0.299 N
HETATM   33  C9  UNL     1      43.340  20.532  36.679  1.00  0.00     0.197 C
ATOM     34  H6  UNL     1      43.467  22.533  36.644  1.00  0.00     0.171 HD
HETATM   35  N7  UNL     1      41.967  20.464  36.354  1.00  0.00    -0.063 NA
HETATM   36  N8  UNL     1      44.100  19.346  36.895  1.00  0.00    -0.307 N
HETATM   37  C10 UNL     1      43.793  18.408  37.701  1.00  0.00     0.203 C
ATOM     38  H8  UNL     1      44.963  19.240  36.361  1.00  0.00     0.170 HD
HETATM   39  N9  UNL     1      42.636  18.379  38.526  1.00  0.00    -0.066 NA
HETATM   40  N10 UNL     1      44.709  17.301  37.761  1.00  0.00    -0.066 NA
ENDBRANCH  24  30
ENDBRANCH   1  24
TORSDOF 11
ENDMDL