MODEL 2
REMARK VINA RESULT: -8.742812529      2.344      3.990
REMARK  7 active torsions:
REMARK  status: ('A' for Active; 'I' for Inactive)
REMARK    1  A    between atoms: C3_3  and  N1_4
REMARK    2  A    between atoms: C3_3  and  C11_18
REMARK    3  A    between atoms: N1_4  and  C4_6
REMARK    4  A    between atoms: C4_6  and  C5_7
REMARK       I    between atoms: C5_7  and  N2_9
REMARK       I    between atoms: C6_11  and  N4_13
REMARK    5  A    between atoms: C13_20  and  N5_21
REMARK    6  A    between atoms: C15_26  and  N8_27
REMARK    7  A    between atoms: C17_32  and  N11_33
ROOT
HETATM    1  C1  UNL     1      45.439  22.974  38.387  1.00  0.00     0.014 C
HETATM    2  C2  UNL     1      45.075  22.176  37.553  1.00  0.00    -0.092 C
HETATM    3  C3  UNL     1      44.646  21.280  36.525  1.00  0.00     0.164 C
ENDROOT
BRANCH   3   4
HETATM    4  N1  UNL     1      44.665  19.900  36.717  1.00  0.00    -0.379 N
ATOM      5  H1  UNL     1      44.287  19.287  35.995  1.00  0.00     0.160 HD
BRANCH   4   6
HETATM    6  C4  UNL     1      45.188  19.352  37.872  1.00  0.00     0.159 C
BRANCH   6   7
HETATM    7  C5  UNL     1      44.389  18.583  38.807  1.00  0.00     0.262 C
HETATM    8  O1  UNL     1      43.837  19.170  39.802  1.00  0.00    -0.267 OA
HETATM    9  N2  UNL     1      44.197  17.213  38.661  1.00  0.00    -0.296 N
HETATM   10  C6  UNL     1      44.627  16.359  37.844  1.00  0.00     0.193 C
ATOM     11  H2  UNL     1      43.576  16.817  39.366  1.00  0.00     0.171 HD
HETATM   12  N3  UNL     1      45.503  16.702  36.789  1.00  0.00    -0.063 NA
HETATM   13  N4  UNL     1      44.199  14.977  37.998  1.00  0.00    -0.355 N
HETATM   14  C7  UNL     1      42.819  14.635  38.260  1.00  0.00     0.125 C
HETATM   15  C10 UNL     1      44.984  13.775  37.923  1.00  0.00     0.125 C
HETATM   16  C8  UNL     1      42.732  13.148  38.226  1.00  0.00     0.021 C
HETATM   17  C9  UNL     1      43.987  12.710  37.498  1.00  0.00     0.021 C
ENDBRANCH   6   7
ENDBRANCH   4   6
ENDBRANCH   3   4
BRANCH   3  18
HETATM   18  C11 UNL     1      45.300  21.677  35.184  1.00  0.00     0.024 C
HETATM   19  C12 UNL     1      46.679  21.110  35.038  1.00  0.00     0.035 C
HETATM   20  C13 UNL     1      47.126  21.378  33.619  1.00  0.00     0.109 C
HETATM   21  C15 UNL     1      46.341  22.443  32.941  1.00  0.00     0.129 C
HETATM   22  C17 UNL     1      46.016  23.629  33.839  1.00  0.00     0.109 C
HETATM   23  C19 UNL     1      45.424  23.189  35.144  1.00  0.00     0.035 C
BRANCH  20  24
HETATM   24  N5  UNL     1      48.524  21.628  33.476  1.00  0.00    -0.360 N
HETATM   25  C14 UNL     1      49.344  21.130  32.668  1.00  0.00     0.197 C
HETATM   26  N6  UNL     1      48.940  20.170  31.714  1.00  0.00    -0.067 NA
HETATM   27  N7  UNL     1      50.700  21.525  32.699  1.00  0.00    -0.067 NA
ATOM     28  H5  UNL     1      48.912  22.313  34.126  1.00  0.00     0.162 HD
ENDBRANCH  20  24
BRANCH  21  29
HETATM   29  N8  UNL     1      47.053  22.963  31.793  1.00  0.00    -0.358 N
HETATM   30  C16 UNL     1      46.497  23.059  30.626  1.00  0.00     0.197 C
HETATM   31  N9  UNL     1      47.238  23.574  29.539  1.00  0.00    -0.067 NA
HETATM   32  N10 UNL     1      45.147  22.635  30.493  1.00  0.00    -0.067 NA
ATOM     33  H8  UNL     1      48.022  23.263  31.905  1.00  0.00     0.162 HD
ENDBRANCH  21  29
BRANCH  22  34
HETATM   34  N11 UNL     1      47.006  24.612  33.867  1.00  0.00    -0.360 N
HETATM   35  C18 UNL     1      48.059  24.866  34.457  1.00  0.00     0.197 C
HETATM   36  N12 UNL     1      48.731  26.094  34.079  1.00  0.00    -0.067 NA
HETATM   37  N13 UNL     1      48.735  24.131  35.462  1.00  0.00    -0.067 NA
ATOM     38  H11 UNL     1      46.794  25.347  33.192  1.00  0.00     0.162 HD
ENDBRANCH  22  34
ENDBRANCH   3  18
TORSDOF 7
ENDMDL