MODEL 5
REMARK VINA RESULT: -8.429942478      3.682      6.488
REMARK  10 active torsions:
REMARK  status: ('A' for Active; 'I' for Inactive)
REMARK    1  A    between atoms: C5_7  and  N2_8
REMARK       I    between atoms: N2_8  and  C6_10
REMARK       I    between atoms: C6_10  and  N3_11
REMARK    2  A    between atoms: C7_13  and  C8_14
REMARK    3  A    between atoms: C7_13  and  N9_32
REMARK    4  A    between atoms: C8_14  and  C9_15
REMARK    5  A    between atoms: C9_15  and  C10_16
REMARK    6  A    between atoms: C10_16  and  S1_17
REMARK    7  A    between atoms: S1_17  and  N4_18
REMARK    8  A    between atoms: S1_17  and  N5_22
REMARK    9  A    between atoms: N5_22  and  C11_24
REMARK   10  A    between atoms: C11_24  and  C12_25
REMARK       I    between atoms: C12_25  and  N6_27
ROOT
HETATM    1  C1  UNL     1      42.454  16.959  39.442  1.00  0.00     0.019 C
HETATM    2  C2  UNL     1      43.194  17.659  38.795  1.00  0.00    -0.058 C
HETATM    3  C3  UNL     1      44.061  18.496  38.018  1.00  0.00     0.118 A
HETATM    4  C4  UNL     1      44.904  18.010  37.046  1.00  0.00     0.145 A
HETATM    5  N1  UNL     1      45.582  19.050  36.502  1.00  0.00    -0.198 N
ATOM      6  H1  UNL     1      46.278  18.999  35.758  1.00  0.00     0.183 HD
HETATM    7  C5  UNL     1      45.166  20.153  37.125  1.00  0.00     0.697 A
HETATM    8  N14 UNL     1      44.243  19.822  38.044  1.00  0.00    -0.182 N
ATOM      9  H14 UNL     1      43.760  20.475  38.661  1.00  0.00     0.185 HD
ENDROOT
BRANCH   7  10
HETATM   10  N2  UNL     1      45.565  21.346  36.898  1.00  0.00    -0.021 N
HETATM   11  C6  UNL     1      45.904  21.866  35.628  1.00  0.00     0.707 C
HETATM   12  N3  UNL     1      47.118  22.537  35.432  1.00  0.00    -0.179 N
HETATM   13  N12 UNL     1      45.061  21.712  34.652  1.00  0.00    -0.125 N
HETATM   14  C7  UNL     1      48.237  22.304  36.005  1.00  0.00     0.099 C
ATOM     15  H3  UNL     1      47.108  23.299  34.754  1.00  0.00     0.185 HD
HETATM   16  C15 UNL     1      45.330  22.201  33.365  1.00  0.00     0.196 C
ATOM     17  H12 UNL     1      44.182  21.223  34.825  1.00  0.00     0.197 HD
HETATM   18  N13 UNL     1      45.547  22.627  32.303  1.00  0.00    -0.171 NA
ATOM     19  H2  UNL     1      45.645  21.975  37.698  1.00  0.00     0.203 HD
BRANCH  14  20
HETATM   20  C8  UNL     1      49.444  23.109  35.688  1.00  0.00     0.078 C
BRANCH  20  21
HETATM   21  C9  UNL     1      49.177  24.518  36.088  1.00  0.00     0.023 C
BRANCH  21  22
HETATM   22  C10 UNL     1      49.725  24.913  37.442  1.00  0.00     0.139 C
BRANCH  22  23
HETATM   23  S1  UNL     1      48.891  26.344  38.226  1.00  0.00     0.100 S
HETATM   24  O1  UNL     1      49.500  28.143  37.565  1.00  0.00    -0.229 OA
BRANCH  23  25
HETATM   25  N4  UNL     1      47.643  26.588  36.940  1.00  0.00    -0.345 N
ATOM     26  H42 UNL     1      47.025  25.925  36.471  1.00  0.00     0.167 HD
ATOM     27  H41 UNL     1      47.766  27.596  36.847  1.00  0.00     0.167 HD
ENDBRANCH  23  25
BRANCH  23  28
HETATM   28  N5  UNL     1      47.767  26.369  39.590  1.00  0.00    -0.328 N
ATOM     29  H5  UNL     1      48.017  25.853  40.434  1.00  0.00     0.171 HD
BRANCH  28  30
HETATM   30  C11 UNL     1      46.521  27.075  39.569  1.00  0.00     0.233 C
BRANCH  30  31
HETATM   31  C12 UNL     1      45.411  26.264  40.092  1.00  0.00     0.241 C
HETATM   32  O2  UNL     1      45.215  26.134  41.323  1.00  0.00    -0.271 OA
HETATM   33  N6  UNL     1      44.531  25.604  39.202  1.00  0.00    -0.302 N
HETATM   34  C13 UNL     1      44.880  24.654  38.413  1.00  0.00     0.203 C
ATOM     35  H6  UNL     1      43.556  25.903  39.186  1.00  0.00     0.171 HD
HETATM   36  N7  UNL     1      43.862  24.097  37.576  1.00  0.00    -0.066 NA
HETATM   37  N8  UNL     1      46.199  24.140  38.333  1.00  0.00    -0.066 NA
ENDBRANCH  30  31
ENDBRANCH  28  30
ENDBRANCH  23  28
ENDBRANCH  22  23
ENDBRANCH  21  22
ENDBRANCH  20  21
ENDBRANCH  14  20
BRANCH  14  38
HETATM   38  N9  UNL     1      48.341  21.271  36.954  1.00  0.00    -0.322 N
HETATM   39  C14 UNL     1      48.772  20.087  36.757  1.00  0.00     0.202 C
HETATM   40  N10 UNL     1      48.801  19.183  37.851  1.00  0.00    -0.066 NA
HETATM   41  N11 UNL     1      49.211  19.681  35.475  1.00  0.00    -0.066 NA
ATOM     42  H9  UNL     1      48.040  21.493  37.902  1.00  0.00     0.169 HD
ENDBRANCH  14  38
ENDBRANCH   7  10
TORSDOF 10
ENDMDL