MODEL 4
REMARK VINA RESULT: -7.091422512      3.683      6.691
REMARK  12 active torsions:
REMARK  status: ('A' for Active; 'I' for Inactive)
REMARK    1  A    between atoms: N3_4  and  C2_6
REMARK    2  A    between atoms: C2_6  and  C3_7
REMARK    3  A    between atoms: C3_7  and  C4_8
REMARK    4  A    between atoms: C4_8  and  N4_9
REMARK    5  A    between atoms: N4_9  and  C5_11
REMARK    6  A    between atoms: C7_15  and  C8_16
REMARK    7  A    between atoms: C8_16  and  C9_17
REMARK       I    between atoms: C9_17  and  N6_19
REMARK    8  A    between atoms: N6_19  and  C10_21
REMARK    9  A    between atoms: C10_21  and  C11_22
REMARK   10  A    between atoms: C11_22  and  C12_23
REMARK   11  A    between atoms: C12_23  and  N7_24
REMARK   12  A    between atoms: C13_26  and  C14_27
ROOT
HETATM    1  C8  UNL     1      -6.147  43.304  55.481  1.00  0.00     0.150 C
ENDROOT
BRANCH   1   2
HETATM    2  C7  UNL     1      -6.857  44.614  55.720  1.00  0.00     0.010 A
HETATM    3  C6  UNL     1      -6.695  45.804  55.060  1.00  0.00     0.105 A
HETATM    4  N5  UNL     1      -7.419  46.813  55.437  1.00  0.00    -0.346 N
HETATM    5  C5  UNL     1      -8.280  46.646  56.439  1.00  0.00     0.144 A
ATOM      6  H5  UNL     1      -7.330  47.717  54.974  1.00  0.00     0.167 HD
HETATM    7  S1  UNL     1      -8.059  45.007  56.866  1.00  0.00    -0.057 SA
BRANCH   5   8
HETATM    8  N4  UNL     1      -9.091  47.548  56.954  1.00  0.00    -0.370 N
ATOM      9  H4  UNL     1      -9.817  47.989  56.389  1.00  0.00     0.161 HD
BRANCH   8  10
HETATM   10  C4  UNL     1      -8.914  47.894  58.368  1.00  0.00     0.123 C
BRANCH  10  11
HETATM   11  C3  UNL     1      -7.835  48.971  58.399  1.00  0.00     0.039 C
BRANCH  11  12
HETATM   12  C2  UNL     1      -8.232  50.113  57.515  1.00  0.00     0.123 C
BRANCH  12  13
HETATM   13  N3  UNL     1      -7.161  50.651  56.738  1.00  0.00    -0.367 N
HETATM   14  C1  UNL     1      -7.168  50.535  55.463  1.00  0.00     0.196 C
HETATM   15  N1  UNL     1      -8.238  49.876  54.829  1.00  0.00    -0.067 NA
HETATM   16  N2  UNL     1      -6.091  51.078  54.716  1.00  0.00    -0.067 NA
ATOM     17  H3  UNL     1      -6.387  51.128  57.201  1.00  0.00     0.161 HD
ENDBRANCH  12  13
ENDBRANCH  11  12
ENDBRANCH  10  11
ENDBRANCH   8  10
ENDBRANCH   5   8
ENDBRANCH   1   2
BRANCH   1  18
HETATM   18  C9  UNL     1      -7.171  42.243  55.315  1.00  0.00     0.222 C
HETATM   19  O1  UNL     1      -7.061  41.146  55.912  1.00  0.00    -0.273 OA
HETATM   20  N6  UNL     1      -8.299  42.451  54.475  1.00  0.00    -0.361 N
ATOM     21  H6  UNL     1      -8.403  43.339  53.984  1.00  0.00     0.162 HD
BRANCH  20  22
HETATM   22  C10 UNL     1      -9.293  41.429  54.311  1.00  0.00     0.124 C
BRANCH  22  23
HETATM   23  C11 UNL     1     -10.643  41.991  54.668  1.00  0.00     0.039 C
BRANCH  23  24
HETATM   24  C12 UNL     1     -10.589  43.493  54.364  1.00  0.00     0.120 C
BRANCH  24  25
HETATM   25  N7  UNL     1     -11.785  44.076  54.938  1.00  0.00    -0.398 N
HETATM   26  C13 UNL     1     -11.768  45.215  55.507  1.00  0.00     0.094 C
ATOM     27  H7  UNL     1     -12.664  43.561  54.883  1.00  0.00     0.158 HD
BRANCH  26  28
HETATM   28  C14 UNL     1     -12.994  45.755  56.066  1.00  0.00    -0.021 A
HETATM   29  C15 UNL     1     -13.429  46.986  55.639  1.00  0.00     0.013 A
HETATM   30  C16 UNL     1     -14.584  47.544  56.136  1.00  0.00     0.001 A
HETATM   31  C17 UNL     1     -15.319  46.858  57.079  1.00  0.00     0.000 A
HETATM   32  C18 UNL     1     -14.890  45.639  57.504  1.00  0.00     0.001 A
HETATM   33  C19 UNL     1     -13.733  45.095  56.998  1.00  0.00     0.013 A
ENDBRANCH  26  28
ENDBRANCH  24  25
ENDBRANCH  23  24
ENDBRANCH  22  23
ENDBRANCH  20  22
ENDBRANCH   1  18
TORSDOF 12
ENDMDL