MODEL 5
REMARK VINA RESULT: -7.289221143      1.351      4.465
REMARK  14 active torsions:
REMARK  status: ('A' for Active; 'I' for Inactive)
REMARK    1  A    between atoms: N1_1  and  O1_4
REMARK    2  A    between atoms: O1_4  and  C1_5
REMARK    3  A    between atoms: C1_5  and  C2_6
REMARK    4  A    between atoms: C2_6  and  C3_7
REMARK    5  A    between atoms: C3_7  and  N2_8
REMARK    6  A    between atoms: C3_7  and  C4_12
REMARK    7  A    between atoms: C4_12  and  N3_13
REMARK    8  A    between atoms: C4_12  and  C6_17
REMARK       I    between atoms: N3_13  and  C5_14
REMARK    9  A    between atoms: C6_17  and  C7_18
REMARK   10  A    between atoms: C6_17  and  C14_25
REMARK   11  A    between atoms: C7_18  and  C8_19
REMARK   12  A    between atoms: C14_25  and  O3_27
REMARK   13  A    between atoms: O3_27  and  C15_28
REMARK   14  A    between atoms: C15_28  and  C16_29
ROOT
HETATM    1  C6  UNL     1      -9.131  45.261  56.432  1.00  0.00     0.147 C
ENDROOT
BRANCH   1   2
HETATM    2  C4  UNL     1      -8.405  44.075  55.928  1.00  0.00     0.213 C
BRANCH   2   3
HETATM    3  C3  UNL     1      -7.332  44.463  54.872  1.00  0.00     0.222 C
BRANCH   3   4
HETATM    4  C2  UNL     1      -6.056  43.722  55.135  1.00  0.00     0.065 C
BRANCH   4   5
HETATM    5  C1  UNL     1      -4.906  44.564  54.647  1.00  0.00     0.202 C
BRANCH   5   6
HETATM    6  O1  UNL     1      -4.475  44.201  53.399  1.00  0.00    -0.287 OA
BRANCH   6   7
HETATM    7  N1  UNL     1      -3.735  43.054  53.553  1.00  0.00    -0.311 N
ATOM      8  H12 UNL     1      -3.938  42.296  54.204  1.00  0.00     0.184 HD
ATOM      9  H11 UNL     1      -2.957  43.115  52.897  1.00  0.00     0.184 HD
ENDBRANCH   6   7
ENDBRANCH   5   6
ENDBRANCH   4   5
ENDBRANCH   3   4
BRANCH   3  10
HETATM   10  N2  UNL     1      -7.075  45.825  54.731  1.00  0.00    -0.072 N
ATOM     11  H23 UNL     1      -7.863  46.396  55.037  1.00  0.00     0.274 HD
ATOM     12  H22 UNL     1      -6.382  46.154  55.404  1.00  0.00     0.274 HD
ATOM     13  H21 UNL     1      -6.804  46.033  53.770  1.00  0.00     0.274 HD
ENDBRANCH   3  10
ENDBRANCH   2   3
BRANCH   2  14
HETATM   14  N3  UNL     1      -9.205  43.083  55.387  1.00  0.00    -0.412 NA
HETATM   15  C5  UNL     1      -9.829  42.397  54.690  1.00  0.00     0.270 C
HETATM   16  N4  UNL     1     -10.518  41.227  55.221  1.00  0.00    -0.053 NA
HETATM   17  N5  UNL     1     -10.014  42.562  53.284  1.00  0.00    -0.053 NA
ENDBRANCH   2  14
ENDBRANCH   1   2
BRANCH   1  18
HETATM   18  C7  UNL     1     -10.415  45.138  57.141  1.00  0.00     0.002 C
BRANCH  18  19
HETATM   19  C8  UNL     1     -11.537  46.011  56.950  1.00  0.00    -0.039 A
HETATM   20  C9  UNL     1     -12.401  45.875  55.898  1.00  0.00     0.011 A
HETATM   21  C10 UNL     1     -13.436  46.732  55.614  1.00  0.00     0.001 A
HETATM   22  C11 UNL     1     -13.643  47.830  56.440  1.00  0.00     0.000 A
HETATM   23  C12 UNL     1     -12.794  47.997  57.507  1.00  0.00     0.001 A
HETATM   24  C13 UNL     1     -11.762  47.133  57.780  1.00  0.00     0.011 A
ENDBRANCH  18  19
ENDBRANCH   1  18
BRANCH   1  25
HETATM   25  C14 UNL     1      -8.190  45.866  57.522  1.00  0.00     0.270 C
HETATM   26  O2  UNL     1      -8.089  45.173  58.550  1.00  0.00    -0.264 OA
BRANCH  25  27
HETATM   27  O3  UNL     1      -7.554  47.051  57.354  1.00  0.00    -0.316 OA
BRANCH  27  28
HETATM   28  C15 UNL     1      -8.179  48.298  57.689  1.00  0.00     0.217 C
BRANCH  28  29
HETATM   29  C16 UNL     1      -7.872  49.338  56.694  1.00  0.00    -0.034 A
HETATM   30  C17 UNL     1      -7.100  50.450  56.979  1.00  0.00     0.009 A
HETATM   31  C18 UNL     1      -6.819  51.417  56.040  1.00  0.00     0.001 A
HETATM   32  C19 UNL     1      -7.306  51.313  54.756  1.00  0.00     0.000 A
HETATM   33  C20 UNL     1      -8.077  50.208  54.459  1.00  0.00     0.001 A
HETATM   34  C21 UNL     1      -8.359  49.242  55.392  1.00  0.00     0.009 A
ENDBRANCH  28  29
ENDBRANCH  27  28
ENDBRANCH  25  27
ENDBRANCH   1  25
TORSDOF 14
ENDMDL