MODEL 4
REMARK VINA RESULT: -7.610408427      2.076      3.817
REMARK  12 active torsions:
REMARK  status: ('A' for Active; 'I' for Inactive)
REMARK    1  A    between atoms: O1_2  and  C2_3
REMARK    2  A    between atoms: C2_3  and  C3_4
REMARK    3  A    between atoms: C3_4  and  O2_5
REMARK    4  A    between atoms: O2_5  and  C4_6
REMARK       I    between atoms: C4_6  and  N1_8
REMARK    5  A    between atoms: N1_8  and  C5_10
REMARK    6  A    between atoms: C5_10  and  C6_11
REMARK    7  A    between atoms: C6_11  and  C7_12
REMARK    8  A    between atoms: C10_15  and  C11_16
REMARK       I    between atoms: N2_17  and  C12_19
REMARK    9  A    between atoms: C12_19  and  C13_21
REMARK   10  A    between atoms: C13_21  and  C14_22
REMARK   11  A    between atoms: C14_22  and  C15_23
REMARK   12  A    between atoms: C18_26  and  C19_27
ROOT
HETATM    1  C11 UNL     1     -11.441  47.023  56.812  1.00  0.00     0.120 C
HETATM    2  N2  UNL     1     -12.311  47.250  55.916  1.00  0.00    -0.335 N
ATOM      3  H2  UNL     1     -12.039  47.432  54.949  1.00  0.00     0.168 HD
HETATM    4  C12 UNL     1     -13.707  47.241  56.318  1.00  0.00     0.221 C
HETATM    5  O4  UNL     1     -14.307  46.153  56.245  1.00  0.00    -0.273 OA
ENDROOT
BRANCH   1   6
HETATM    6  C10 UNL     1     -10.017  47.021  56.453  1.00  0.00     0.048 A
HETATM    7  C9  UNL     1      -9.326  48.055  55.870  1.00  0.00     0.033 A
HETATM    8  C8  UNL     1      -8.022  47.598  55.721  1.00  0.00     0.027 A
HETATM    9  C7  UNL     1      -7.932  46.313  56.205  1.00  0.00     0.011 A
HETATM   10  N5  UNL     1      -9.161  45.999  56.640  1.00  0.00    -0.358 N
ATOM     11  H5  UNL     1      -9.414  45.103  57.057  1.00  0.00     0.166 HD
BRANCH   9  12
HETATM   12  C6  UNL     1      -6.718  45.430  56.247  1.00  0.00     0.076 C
BRANCH  12  13
HETATM   13  C5  UNL     1      -6.387  45.003  54.842  1.00  0.00     0.131 C
BRANCH  13  14
HETATM   14  N1  UNL     1      -7.318  44.033  54.370  1.00  0.00    -0.337 N
HETATM   15  C4  UNL     1      -7.318  42.698  54.827  1.00  0.00     0.360 C
HETATM   16  O3  UNL     1      -6.463  42.352  55.674  1.00  0.00    -0.239 OA
ATOM     17  H1  UNL     1      -8.010  44.314  53.675  1.00  0.00     0.164 HD
BRANCH  15  18
HETATM   18  O2  UNL     1      -8.232  41.762  54.370  1.00  0.00    -0.302 OA
BRANCH  18  19
HETATM   19  C3  UNL     1      -9.610  41.950  54.451  1.00  0.00     0.207 C
BRANCH  19  20
HETATM   20  C2  UNL     1     -10.140  43.061  53.620  1.00  0.00     0.193 C
BRANCH  20  21
HETATM   21  O1  UNL     1     -10.625  44.129  54.370  1.00  0.00    -0.394 OA
HETATM   22  C1  UNL     1     -11.735  43.837  55.120  1.00  0.00     0.201 C
ENDBRANCH  20  21
ENDBRANCH  19  20
ENDBRANCH  18  19
ENDBRANCH  15  18
ENDBRANCH  13  14
ENDBRANCH  12  13
ENDBRANCH   9  12
ENDBRANCH   1   6
BRANCH   4  23
HETATM   23  C13 UNL     1     -14.339  48.457  56.779  1.00  0.00     0.107 C
BRANCH  23  24
HETATM   24  C14 UNL     1     -15.703  48.712  56.299  1.00  0.00     0.047 C
BRANCH  24  25
HETATM   25  C15 UNL     1     -15.990  50.023  55.688  1.00  0.00    -0.058 A
HETATM   26  C16 UNL     1     -16.773  50.173  54.579  1.00  0.00     0.008 A
HETATM   27  C17 UNL     1     -17.011  51.418  53.995  1.00  0.00     0.015 A
HETATM   28  C18 UNL     1     -16.464  52.572  54.515  1.00  0.00     0.004 A
HETATM   29  C20 UNL     1     -15.676  52.425  55.632  1.00  0.00     0.015 A
HETATM   30  C21 UNL     1     -15.436  51.197  56.213  1.00  0.00     0.008 A
BRANCH  28  31
HETATM   31  C19 UNL     1     -16.731  53.865  53.883  1.00  0.00     0.120 C
HETATM   32  N3  UNL     1     -16.141  54.315  52.842  1.00  0.00    -0.387 N
ATOM     33  H32 UNL     1     -15.428  53.710  52.434  1.00  0.00     0.157 HD
ATOM     34  H31 UNL     1     -16.327  55.216  52.401  1.00  0.00     0.157 HD
HETATM   35  N4  UNL     1     -17.729  54.712  54.454  1.00  0.00    -0.082 NA
ENDBRANCH  28  31
ENDBRANCH  24  25
ENDBRANCH  23  24
ENDBRANCH   4  23
TORSDOF 12
ENDMDL