MODEL 4
REMARK VINA RESULT: -6.547257560      4.332      6.157
REMARK  12 active torsions:
REMARK  status: ('A' for Active; 'I' for Inactive)
REMARK    1  A    between atoms: N1_5  and  C5_6
REMARK    2  A    between atoms: C5_6  and  C6_7
REMARK    3  A    between atoms: C9_10  and  C10_11
REMARK    4  A    between atoms: C10_11  and  N2_12
REMARK    5  A    between atoms: N2_12  and  S1_14
REMARK    6  A    between atoms: S1_14  and  N3_17
REMARK    7  A    between atoms: N3_17  and  C11_19
REMARK    8  A    between atoms: C11_19  and  C12_20
REMARK    9  A    between atoms: C11_19  and  C14_26
REMARK   10  A    between atoms: C12_20  and  C13_21
REMARK   11  A    between atoms: C13_21  and  N4_22
REMARK   12  A    between atoms: C14_26  and  C15_27
ROOT
HETATM    1  N2  UNL     1      -9.748  46.270  55.787  1.00  0.00    -0.297 N
ATOM      2  H2  UNL     1     -10.343  45.708  55.178  1.00  0.00     0.174 HD
ENDROOT
BRANCH   1   3
HETATM    3  C10 UNL     1     -10.287  47.162  56.745  1.00  0.00     0.198 C
BRANCH   3   4
HETATM    4  C9  UNL     1     -11.742  47.282  56.616  1.00  0.00     0.071 A
HETATM    5  C8  UNL     1     -12.516  46.545  55.721  1.00  0.00     0.037 A
HETATM    6  C7  UNL     1     -13.837  46.926  55.884  1.00  0.00     0.037 A
HETATM    7  C6  UNL     1     -13.801  47.880  56.876  1.00  0.00     0.071 A
HETATM    8  O3  UNL     1     -12.581  48.053  57.266  1.00  0.00    -0.316 OA
BRANCH   7   9
HETATM    9  C5  UNL     1     -14.994  48.602  57.415  1.00  0.00     0.192 C
BRANCH   9  10
HETATM   10  N1  UNL     1     -15.332  49.740  56.617  1.00  0.00    -0.360 N
HETATM   11  C4  UNL     1     -16.113  49.613  55.527  1.00  0.00     0.091 A
HETATM   12  C3  UNL     1     -16.471  50.671  54.725  1.00  0.00     0.024 A
HETATM   13  C2  UNL     1     -16.026  51.940  55.023  1.00  0.00    -0.059 A
HETATM   14  C1  UNL     1     -16.396  53.112  54.172  1.00  0.00     0.048 C
HETATM   15  C17 UNL     1     -15.225  52.075  56.140  1.00  0.00     0.024 A
HETATM   16  C16 UNL     1     -14.883  50.992  56.925  1.00  0.00     0.091 A
ENDBRANCH   9  10
ENDBRANCH   7   9
ENDBRANCH   3   4
ENDBRANCH   1   3
BRANCH   1  17
HETATM   17  S1  UNL     1      -8.049  46.189  55.712  1.00  0.00     0.315 S
HETATM   18  O1  UNL     1      -7.535  47.561  55.275  1.00  0.00    -0.183 OA
HETATM   19  O2  UNL     1      -7.560  45.995  57.126  1.00  0.00    -0.183 OA
BRANCH  17  20
HETATM   20  N3  UNL     1      -7.533  44.972  54.664  1.00  0.00    -0.298 N
ATOM     21  H3  UNL     1      -7.393  45.147  53.668  1.00  0.00     0.174 HD
BRANCH  20  22
HETATM   22  C11 UNL     1      -7.300  43.669  55.247  1.00  0.00     0.097 C
BRANCH  22  23
HETATM   23  C12 UNL     1      -5.798  43.428  55.367  1.00  0.00     0.053 C
BRANCH  23  24
HETATM   24  C13 UNL     1      -5.094  44.080  54.216  1.00  0.00     0.231 C
BRANCH  24  25
HETATM   25  N4  UNL     1      -3.881  43.317  53.858  1.00  0.00    -0.079 N
ATOM     26  H43 UNL     1      -3.035  43.877  53.964  1.00  0.00     0.274 HD
ATOM     27  H42 UNL     1      -3.670  42.593  54.544  1.00  0.00     0.274 HD
ATOM     28  H41 UNL     1      -3.967  42.935  52.916  1.00  0.00     0.274 HD
ENDBRANCH  24  25
ENDBRANCH  23  24
ENDBRANCH  22  23
BRANCH  22  29
HETATM   29  C14 UNL     1      -7.973  42.540  54.540  1.00  0.00     0.037 C
BRANCH  29  30
HETATM   30  C15 UNL     1      -9.342  42.942  54.033  1.00  0.00     0.088 C
HETATM   31  S2  UNL     1     -10.438  41.493  53.908  1.00  0.00    -0.098 SA
ENDBRANCH  29  30
ENDBRANCH  22  29
ENDBRANCH  20  22
ENDBRANCH  17  20
ENDBRANCH   1  17
TORSDOF 12
ENDMDL