MODEL 4
REMARK VINA RESULT: -7.086296579      3.542      5.090
REMARK  13 active torsions:
REMARK  status: ('A' for Active; 'I' for Inactive)
REMARK    1  A    between atoms: N1_2  and  C4_5
REMARK    2  A    between atoms: C4_5  and  C5_6
REMARK    3  A    between atoms: C5_6  and  N2_7
REMARK    4  A    between atoms: N2_7  and  C6_9
REMARK    5  A    between atoms: C6_9  and  C7_10
REMARK    6  A    between atoms: C7_10  and  C8_11
REMARK    7  A    between atoms: C8_11  and  N3_12
REMARK    8  A    between atoms: N3_12  and  C9_14
REMARK    9  A    between atoms: C17_26  and  O1_27
REMARK   10  A    between atoms: O1_27  and  C18_28
REMARK   11  A    between atoms: C18_28  and  C19_29
REMARK   12  A    between atoms: C19_29  and  C20_30
REMARK   13  A    between atoms: C20_30  and  O2_31
ROOT
HETATM    1  C9  UNL     1     -10.466  45.222  55.971  1.00  0.00     0.071 A
HETATM    2  C10 UNL     1      -9.922  44.015  55.514  1.00  0.00     0.019 A
HETATM    3  C11 UNL     1     -10.659  42.858  55.501  1.00  0.00     0.016 A
HETATM    4  C12 UNL     1     -10.120  41.675  55.052  1.00  0.00     0.001 A
HETATM    5  C13 UNL     1      -8.815  41.663  54.610  1.00  0.00     0.002 A
HETATM    6  C14 UNL     1      -8.032  42.797  54.602  1.00  0.00     0.030 A
HETATM    7  C15 UNL     1      -8.617  43.982  55.068  1.00  0.00     0.046 A
HETATM    8  N4  UNL     1      -7.824  45.077  55.050  1.00  0.00    -0.340 N
ATOM      9  H4  UNL     1      -6.863  45.020  54.713  1.00  0.00     0.167 HD
HETATM   10  C16 UNL     1      -8.338  46.252  55.490  1.00  0.00     0.138 A
HETATM   11  N5  UNL     1      -7.774  47.458  55.573  1.00  0.00    -0.306 N
ATOM     12  H5  UNL     1      -6.818  47.695  55.305  1.00  0.00     0.171 HD
HETATM   13  C17 UNL     1      -8.719  48.332  56.089  1.00  0.00     0.225 A
HETATM   14  N6  UNL     1      -9.831  47.597  56.296  1.00  0.00    -0.317 N
ATOM     15  H6  UNL     1     -10.705  47.962  56.672  1.00  0.00     0.169 HD
HETATM   16  C21 UNL     1      -9.631  46.337  55.943  1.00  0.00     0.107 A
ENDROOT
BRANCH   1  17
HETATM   17  N3  UNL     1     -11.680  45.241  56.384  1.00  0.00    -0.387 N
ATOM     18  H3  UNL     1     -11.870  44.876  57.317  1.00  0.00     0.159 HD
BRANCH  17  19
HETATM   19  C8  UNL     1     -12.779  45.738  55.627  1.00  0.00     0.121 C
BRANCH  19  20
HETATM   20  C7  UNL     1     -13.410  46.968  56.190  1.00  0.00     0.039 C
BRANCH  20  21
HETATM   21  C6  UNL     1     -13.234  47.086  57.687  1.00  0.00     0.115 C
BRANCH  21  22
HETATM   22  N2  UNL     1     -12.798  48.407  58.075  1.00  0.00    -0.419 N
ATOM     23  H2  UNL     1     -13.017  49.240  57.529  1.00  0.00     0.153 HD
BRANCH  22  24
HETATM   24  C5  UNL     1     -12.034  48.456  59.283  1.00  0.00     0.141 C
BRANCH  24  25
HETATM   25  C4  UNL     1     -11.453  47.097  59.540  1.00  0.00     0.255 C
BRANCH  25  26
HETATM   26  N1  UNL     1     -10.159  47.078  60.132  1.00  0.00    -0.077 N
HETATM   27  C1  UNL     1      -9.333  46.023  59.566  1.00  0.00     0.271 C
HETATM   28  C2  UNL     1      -9.513  48.358  59.783  1.00  0.00     0.271 C
HETATM   29  C3  UNL     1     -10.111  46.975  61.554  1.00  0.00     0.271 C
ENDBRANCH  25  26
ENDBRANCH  24  25
ENDBRANCH  22  24
ENDBRANCH  21  22
ENDBRANCH  20  21
ENDBRANCH  19  20
ENDBRANCH  17  19
ENDBRANCH   1  17
BRANCH  13  30
HETATM   30  O1  UNL     1      -8.430  49.630  56.286  1.00  0.00    -0.322 OA
BRANCH  30  31
HETATM   31  C18 UNL     1      -7.503  50.559  56.068  1.00  0.00     0.181 C
BRANCH  31  32
HETATM   32  C19 UNL     1      -7.377  51.251  54.752  1.00  0.00     0.053 C
BRANCH  32  33
HETATM   33  C20 UNL     1      -8.213  50.747  53.621  1.00  0.00     0.166 C
BRANCH  33  34
HETATM   34  O2  UNL     1      -8.738  51.776  52.845  1.00  0.00    -0.401 OA
ATOM     35  H2  UNL     1      -9.682  51.719  52.755  1.00  0.00     0.209 HD
ENDBRANCH  33  34
ENDBRANCH  32  33
ENDBRANCH  31  32
ENDBRANCH  30  31
ENDBRANCH  13  30
TORSDOF 13
ENDMDL