MODEL 4
REMARK VINA RESULT: -7.091757544      2.636      4.884
REMARK  12 active torsions:
REMARK  status: ('A' for Active; 'I' for Inactive)
REMARK       I    between atoms: C2_5  and  N3_6
REMARK       I    between atoms: C2_5  and  N5_10
REMARK    1  A    between atoms: N5_10  and  C4_12
REMARK    2  A    between atoms: C4_12  and  C5_13
REMARK    3  A    between atoms: C5_13  and  N6_14
REMARK    4  A    between atoms: N6_14  and  C6_16
REMARK    5  A    between atoms: C6_16  and  C7_17
REMARK    6  A    between atoms: C6_16  and  C17_30
REMARK    7  A    between atoms: C7_17  and  N7_18
REMARK    8  A    between atoms: N7_18  and  C8_19
REMARK    9  A    between atoms: N7_18  and  C10_23
REMARK   10  A    between atoms: C8_19  and  C9_20
REMARK   11  A    between atoms: C9_20  and  O1_21
REMARK   12  A    between atoms: C10_23  and  C11_24
ROOT
HETATM    1  N1  UNL     1      -7.415  53.467  56.384  1.00  0.00    -0.171 NA
HETATM    2  C1  UNL     1      -7.468  52.318  56.617  1.00  0.00     0.196 C
HETATM    3  N2  UNL     1      -7.515  50.960  56.913  1.00  0.00    -0.126 N
ATOM      4  H2  UNL     1      -7.797  50.670  57.850  1.00  0.00     0.197 HD
HETATM    5  C2  UNL     1      -7.215  50.053  56.042  1.00  0.00     0.696 C
HETATM    6  N3  UNL     1      -6.836  50.524  54.759  1.00  0.00    -0.126 N
ATOM      7  H3  UNL     1      -5.874  50.439  54.430  1.00  0.00     0.197 HD
HETATM    8  C3  UNL     1      -7.835  51.116  53.950  1.00  0.00     0.196 C
HETATM    9  N4  UNL     1      -8.652  51.595  53.302  1.00  0.00    -0.171 NA
HETATM   10  N5  UNL     1      -7.262  48.709  56.357  1.00  0.00    -0.223 N
ATOM     11  H5  UNL     1      -7.179  48.496  57.351  1.00  0.00     0.177 HD
ENDROOT
BRANCH  10  12
HETATM   12  C4  UNL     1      -7.409  47.561  55.500  1.00  0.00     0.157 C
BRANCH  12  13
HETATM   13  C5  UNL     1      -6.897  46.278  56.154  1.00  0.00     0.134 C
BRANCH  13  14
HETATM   14  N6  UNL     1      -7.581  45.118  55.624  1.00  0.00    -0.410 N
ATOM     15  H6  UNL     1      -7.115  44.445  55.015  1.00  0.00     0.154 HD
BRANCH  14  16
HETATM   16  C6  UNL     1      -8.940  44.976  56.003  1.00  0.00     0.123 C
BRANCH  16  17
HETATM   17  C7  UNL     1      -9.344  45.149  57.421  1.00  0.00     0.124 C
BRANCH  17  18
HETATM   18  N7  UNL     1     -10.132  46.308  57.738  1.00  0.00    -0.288 NA
BRANCH  18  19
HETATM   19  C8  UNL     1      -9.392  46.922  58.876  1.00  0.00     0.121 C
BRANCH  19  20
HETATM   20  C9  UNL     1      -9.512  48.393  58.937  1.00  0.00     0.179 C
BRANCH  20  21
HETATM   21  O1  UNL     1      -8.222  48.897  59.221  1.00  0.00    -0.400 OA
ATOM     22  H1  UNL     1      -7.610  48.187  59.066  1.00  0.00     0.209 HD
ENDBRANCH  20  21
ENDBRANCH  19  20
ENDBRANCH  18  19
BRANCH  18  23
HETATM   23  C10 UNL     1     -11.488  46.163  58.068  1.00  0.00     0.071 C
BRANCH  23  24
HETATM   24  C11 UNL     1     -12.557  46.910  57.419  1.00  0.00    -0.026 A
HETATM   25  C12 UNL     1     -13.294  47.897  57.996  1.00  0.00     0.012 A
HETATM   26  C13 UNL     1     -14.338  48.524  57.316  1.00  0.00     0.001 A
HETATM   27  C14 UNL     1     -14.674  48.177  56.032  1.00  0.00     0.000 A
HETATM   28  C15 UNL     1     -13.923  47.180  55.458  1.00  0.00     0.001 A
HETATM   29  C16 UNL     1     -12.902  46.556  56.105  1.00  0.00     0.012 A
ENDBRANCH  23  24
ENDBRANCH  18  23
ENDBRANCH  17  18
ENDBRANCH  16  17
BRANCH  16  30
HETATM   30  C17 UNL     1      -9.571  43.762  55.377  1.00  0.00    -0.035 A
HETATM   31  C18 UNL     1     -10.939  43.622  55.327  1.00  0.00     0.009 A
HETATM   32  C19 UNL     1     -11.561  42.545  54.773  1.00  0.00     0.001 A
HETATM   33  C20 UNL     1     -10.784  41.543  54.235  1.00  0.00     0.000 A
HETATM   34  C21 UNL     1      -9.412  41.677  54.283  1.00  0.00     0.001 A
HETATM   35  C22 UNL     1      -8.790  42.772  54.847  1.00  0.00     0.009 A
ENDBRANCH  16  30
ENDBRANCH  14  16
ENDBRANCH  13  14
ENDBRANCH  12  13
ENDBRANCH  10  12
TORSDOF 12
ENDMDL