MODEL 4
REMARK VINA RESULT: -7.406336993      4.090      7.180
REMARK  12 active torsions:
REMARK  status: ('A' for Active; 'I' for Inactive)
REMARK    1  A    between atoms: C1_2  and  C2_4
REMARK    2  A    between atoms: C2_4  and  C3_5
REMARK    3  A    between atoms: C8_10  and  N1_11
REMARK    4  A    between atoms: N1_11  and  C9_13
REMARK    5  A    between atoms: C9_13  and  C10_14
REMARK    6  A    between atoms: C10_14  and  N2_15
REMARK    7  A    between atoms: N2_15  and  C11_16
REMARK    8  A    between atoms: N2_15  and  C13_22
REMARK    9  A    between atoms: C11_16  and  C12_17
REMARK   10  A    between atoms: N3_18  and  O3_20
REMARK   11  A    between atoms: C13_22  and  C14_23
REMARK   12  A    between atoms: C14_23  and  C15_24
ROOT
HETATM    1  N1  UNL     1      -8.596  48.544  55.515  1.00  0.00    -0.373 N
ATOM      2  H1  UNL     1      -9.579  48.697  55.291  1.00  0.00     0.161 HD
ENDROOT
BRANCH   1   3
HETATM    3  C8  UNL     1      -7.838  49.553  55.389  1.00  0.00     0.128 A
HETATM    4  C7  UNL     1      -7.304  50.188  56.520  1.00  0.00     0.038 A
HETATM    5  C6  UNL     1      -7.396  50.000  57.868  1.00  0.00     0.017 A
HETATM    6  C21 UNL     1      -6.510  51.250  56.091  1.00  0.00     0.069 A
HETATM    7  C5  UNL     1      -6.753  50.797  58.791  1.00  0.00     0.002 A
HETATM    8  C4  UNL     1      -5.969  51.852  58.312  1.00  0.00     0.010 A
HETATM    9  C3  UNL     1      -5.843  52.086  56.939  1.00  0.00    -0.019 A
HETATM   10  N5  UNL     1      -6.589  51.223  54.744  1.00  0.00    -0.298 N
HETATM   11  N4  UNL     1      -7.367  50.227  54.330  1.00  0.00    -0.284 N
ATOM     12  H5  UNL     1      -6.115  51.881  54.125  1.00  0.00     0.187 HD
ATOM     13  H4  UNL     1      -7.573  50.008  53.356  1.00  0.00     0.188 HD
BRANCH   9  14
HETATM   14  C2  UNL     1      -4.960  53.191  56.483  1.00  0.00     0.154 C
BRANCH  14  15
HETATM   15  C1  UNL     1      -3.593  52.622  56.166  1.00  0.00     0.177 C
HETATM   16  O1  UNL     1      -2.718  52.701  57.078  1.00  0.00    -0.648 OA
HETATM   17  O2  UNL     1      -3.400  52.068  54.926  1.00  0.00    -0.648 OA
ENDBRANCH  14  15
ENDBRANCH   9  14
ENDBRANCH   1   3
BRANCH   1  18
HETATM   18  C9  UNL     1      -8.253  47.221  55.931  1.00  0.00     0.141 C
BRANCH  18  19
HETATM   19  C10 UNL     1      -6.885  46.842  55.416  1.00  0.00     0.141 C
BRANCH  19  20
HETATM   20  N2  UNL     1      -6.674  45.425  55.483  1.00  0.00    -0.387 N
BRANCH  20  21
HETATM   21  C11 UNL     1      -5.367  44.941  55.524  1.00  0.00     0.104 C
BRANCH  21  22
HETATM   22  C12 UNL     1      -4.863  44.499  54.214  1.00  0.00     0.130 C
HETATM   23  N3  UNL     1      -4.275  43.380  54.008  1.00  0.00    -0.279 N
ATOM     24  H3  UNL     1      -4.160  42.765  54.815  1.00  0.00     0.193 HD
BRANCH  23  25
HETATM   25  O3  UNL     1      -3.789  42.930  52.818  1.00  0.00    -0.290 OA
ATOM     26  H3  UNL     1      -2.919  42.584  52.660  1.00  0.00     0.244 HD
ENDBRANCH  23  25
ENDBRANCH  21  22
ENDBRANCH  20  21
BRANCH  20  27
HETATM   27  C13 UNL     1      -7.716  44.696  56.107  1.00  0.00     0.127 C
BRANCH  27  28
HETATM   28  C14 UNL     1      -7.819  43.302  55.548  1.00  0.00     0.058 C
BRANCH  28  29
HETATM   29  C15 UNL     1      -9.254  42.977  55.244  1.00  0.00    -0.057 A
HETATM   30  C16 UNL     1     -10.177  44.036  55.289  1.00  0.00     0.007 A
HETATM   31  C17 UNL     1     -11.510  43.818  55.045  1.00  0.00     0.001 A
HETATM   32  C18 UNL     1     -11.935  42.555  54.756  1.00  0.00     0.000 A
HETATM   33  C19 UNL     1     -11.070  41.500  54.703  1.00  0.00     0.001 A
HETATM   34  C20 UNL     1      -9.721  41.730  54.952  1.00  0.00     0.007 A
ENDBRANCH  28  29
ENDBRANCH  27  28
ENDBRANCH  20  27
ENDBRANCH  19  20
ENDBRANCH  18  19
ENDBRANCH   1  18
TORSDOF 12
ENDMDL