MODEL 1
REMARK VINA RESULT: -7.441724478      0.000      0.000
REMARK  12 active torsions:
REMARK  status: ('A' for Active; 'I' for Inactive)
REMARK    1  A    between atoms: C2_2  and  C3_3
REMARK    2  A    between atoms: C3_3  and  N1_4
REMARK    3  A    between atoms: N1_4  and  C4_5
REMARK    4  A    between atoms: N1_4  and  C6_9
REMARK    5  A    between atoms: C4_5  and  C5_6
REMARK    6  A    between atoms: C5_6  and  O1_7
REMARK    7  A    between atoms: C6_9  and  C7_10
REMARK    8  A    between atoms: C7_10  and  C8_11
REMARK    9  A    between atoms: C8_11  and  C9_12
REMARK   10  A    between atoms: C9_12  and  C10_13
REMARK   11  A    between atoms: C10_13  and  N2_14
REMARK   12  A    between atoms: C12_20  and  N5_21
ROOT
HETATM    1  N2  UNL     1      -9.445  46.173  55.999  1.00  0.00    -0.287 N
HETATM    2  N3  UNL     1      -8.306  45.547  55.878  1.00  0.00    -0.282 N
ATOM      3  H3  UNL     1      -7.393  45.979  56.023  1.00  0.00     0.189 HD
HETATM    4  C11 UNL     1      -8.490  44.264  55.541  1.00  0.00     0.150 A
HETATM    5  N4  UNL     1      -7.657  43.244  55.279  1.00  0.00    -0.175 N
ATOM      6  H4  UNL     1      -6.650  43.391  55.357  1.00  0.00     0.186 HD
HETATM    7  C12 UNL     1      -8.118  42.036  54.916  1.00  0.00     0.677 A
HETATM    8  N6  UNL     1      -9.440  41.846  54.811  1.00  0.00    -0.195 N
ATOM      9  H6  UNL     1      -9.783  40.927  54.533  1.00  0.00     0.184 HD
HETATM   10  C13 UNL     1     -10.348  42.836  55.062  1.00  0.00     0.039 A
HETATM   11  C14 UNL     1     -11.791  42.573  54.811  1.00  0.00     0.070 C
HETATM   12  C15 UNL     1      -9.855  44.065  55.440  1.00  0.00     0.063 A
HETATM   13  C16 UNL     1     -10.460  45.271  55.736  1.00  0.00     0.093 A
HETATM   14  C17 UNL     1     -11.852  45.581  55.988  1.00  0.00     0.061 A
HETATM   15  C18 UNL     1     -12.585  44.871  56.901  1.00  0.00     0.032 A
HETATM   16  C19 UNL     1     -13.866  45.263  57.267  1.00  0.00     0.004 A
HETATM   17  C20 UNL     1     -14.425  46.390  56.708  1.00  0.00     0.017 A
HETATM   18  C21 UNL     1     -13.652  47.075  55.796  1.00  0.00     0.088 A
HETATM   19  N7  UNL     1     -12.431  46.674  55.467  1.00  0.00    -0.364 N
ATOM     20  H7  UNL     1     -11.908  47.222  54.785  1.00  0.00     0.165 HD
ENDROOT
BRANCH   1  21
HETATM   21  C10 UNL     1      -9.590  47.559  56.306  1.00  0.00     0.149 C
BRANCH  21  22
HETATM   22  C9  UNL     1      -8.249  48.179  56.515  1.00  0.00     0.022 C
BRANCH  22  23
HETATM   23  C8  UNL     1      -8.147  48.886  57.889  1.00  0.00     0.003 C
BRANCH  23  24
HETATM   24  C7  UNL     1      -7.960  50.321  57.602  1.00  0.00     0.030 C
BRANCH  24  25
HETATM   25  C6  UNL     1      -6.849  50.794  56.768  1.00  0.00     0.272 C
BRANCH  25  26
HETATM   26  N1  UNL     1      -7.108  51.787  55.753  1.00  0.00     0.090 N
BRANCH  26  27
HETATM   27  C3  UNL     1      -6.255  52.917  55.942  1.00  0.00     0.272 C
BRANCH  27  28
HETATM   28  C2  UNL     1      -5.069  52.809  56.810  1.00  0.00     0.026 C
HETATM   29  C1  UNL     1      -3.758  52.712  56.061  1.00  0.00     0.007 C
ENDBRANCH  27  28
ENDBRANCH  26  27
BRANCH  26  30
HETATM   30  C4  UNL     1      -7.063  51.212  54.463  1.00  0.00     0.298 C
BRANCH  30  31
HETATM   31  C5  UNL     1      -8.302  50.725  53.819  1.00  0.00     0.194 C
BRANCH  31  32
HETATM   32  O1  UNL     1      -8.657  51.634  52.772  1.00  0.00    -0.399 OA
ATOM     33  H1  UNL     1      -8.923  51.129  52.013  1.00  0.00     0.209 HD
ENDBRANCH  31  32
ENDBRANCH  30  31
ENDBRANCH  26  30
ENDBRANCH  25  26
ENDBRANCH  24  25
ENDBRANCH  23  24
ENDBRANCH  22  23
ENDBRANCH  21  22
ENDBRANCH   1  21
BRANCH   7  34
HETATM   34  N5  UNL     1      -7.275  41.068  54.669  1.00  0.00    -0.234 N
ATOM     35  H52 UNL     1      -6.269  41.236  54.657  1.00  0.00     0.174 HD
ATOM     36  H51 UNL     1      -7.624  40.127  54.485  1.00  0.00     0.174 HD
ENDBRANCH   7  34
TORSDOF 12
ENDMDL