MODEL 5
REMARK VINA RESULT: -7.032319042      2.151      6.752
REMARK  15 active torsions:
REMARK  status: ('A' for Active; 'I' for Inactive)
REMARK    1  A    between atoms: C2_2  and  N1_3
REMARK    2  A    between atoms: N1_3  and  C3_5
REMARK    3  A    between atoms: C3_5  and  C4_9
REMARK    4  A    between atoms: C4_9  and  C5_10
REMARK    5  A    between atoms: C5_10  and  C6_11
REMARK    6  A    between atoms: C6_11  and  N3_12
REMARK    7  A    between atoms: N3_12  and  C7_14
REMARK    8  A    between atoms: C8_17  and  N5_18
REMARK    9  A    between atoms: N5_18  and  C9_20
REMARK   10  A    between atoms: C9_20  and  C10_21
REMARK   11  A    between atoms: C10_21  and  C11_22
REMARK   12  A    between atoms: C11_22  and  C12_23
REMARK   13  A    between atoms: C12_23  and  N6_24
REMARK   14  A    between atoms: N8_32  and  C14_33
REMARK   15  A    between atoms: C14_33  and  C15_34
ROOT
HETATM    1  C7  UNL     1      -8.104  47.349  55.858  1.00  0.00     0.703 A
HETATM    2  N4  UNL     1      -7.703  48.535  55.420  1.00  0.00    -0.022 N
ATOM      3  H4  UNL     1      -7.086  48.582  54.609  1.00  0.00     0.203 HD
HETATM    4  C8  UNL     1      -8.093  49.692  56.025  1.00  0.00     0.696 A
HETATM    5  N7  UNL     1      -8.901  49.603  57.085  1.00  0.00    -0.140 N
ATOM      6  H7  UNL     1      -9.210  50.451  57.560  1.00  0.00     0.189 HD
HETATM    7  C13 UNL     1      -9.312  48.391  57.534  1.00  0.00     0.359 A
HETATM    8  O1  UNL     1     -10.074  48.426  58.551  1.00  0.00    -0.245 OA
HETATM    9  N8  UNL     1      -8.933  47.244  56.942  1.00  0.00    -0.105 N
ENDROOT
BRANCH   1  10
HETATM   10  N3  UNL     1      -7.753  46.236  55.335  1.00  0.00    -0.225 N
ATOM     11  H3  UNL     1      -8.500  45.682  54.917  1.00  0.00     0.177 HD
BRANCH  10  12
HETATM   12  C6  UNL     1      -6.432  45.671  55.266  1.00  0.00     0.138 C
BRANCH  12  13
HETATM   13  C5  UNL     1      -6.529  44.277  55.821  1.00  0.00     0.027 C
BRANCH  13  14
HETATM   14  C4  UNL     1      -6.343  43.183  54.832  1.00  0.00     0.077 C
BRANCH  14  15
HETATM   15  C3  UNL     1      -7.512  42.295  54.768  1.00  0.00     0.070 C
HETATM   16  N2  UNL     1      -7.299  41.002  54.920  1.00  0.00    -0.389 N
ATOM     17  H22 UNL     1      -8.110  40.385  54.875  1.00  0.00     0.157 HD
ATOM     18  H21 UNL     1      -6.336  40.703  55.073  1.00  0.00     0.157 HD
BRANCH  15  19
HETATM   19  N1  UNL     1      -8.851  42.711  54.555  1.00  0.00    -0.380 N
ATOM     20  H1  UNL     1      -9.118  43.662  54.809  1.00  0.00     0.160 HD
BRANCH  19  21
HETATM   21  C2  UNL     1      -9.840  41.839  53.995  1.00  0.00     0.116 C
HETATM   22  C1  UNL     1     -10.908  41.495  54.983  1.00  0.00     0.026 C
ENDBRANCH  19  21
ENDBRANCH  15  19
ENDBRANCH  14  15
ENDBRANCH  13  14
ENDBRANCH  12  13
ENDBRANCH  10  12
ENDBRANCH   1  10
BRANCH   9  23
HETATM   23  C14 UNL     1      -9.381  45.967  57.464  1.00  0.00     0.131 C
BRANCH  23  24
HETATM   24  C15 UNL     1     -10.737  45.563  57.163  1.00  0.00    -0.019 A
HETATM   25  C16 UNL     1     -11.698  45.482  58.157  1.00  0.00     0.013 A
HETATM   26  C17 UNL     1     -13.017  45.086  57.893  1.00  0.00     0.001 A
HETATM   27  C18 UNL     1     -13.383  44.768  56.624  1.00  0.00     0.000 A
HETATM   28  C19 UNL     1     -12.445  44.844  55.633  1.00  0.00     0.001 A
HETATM   29  C20 UNL     1     -11.142  45.237  55.898  1.00  0.00     0.013 A
ENDBRANCH  23  24
ENDBRANCH   9  23
BRANCH   4  30
HETATM   30  N5  UNL     1      -7.682  50.800  55.559  1.00  0.00    -0.225 N
ATOM     31  H5  UNL     1      -8.339  51.581  55.578  1.00  0.00     0.177 HD
BRANCH  30  32
HETATM   32  C9  UNL     1      -6.358  51.066  55.000  1.00  0.00     0.138 C
BRANCH  32  33
HETATM   33  C10 UNL     1      -5.692  52.214  55.639  1.00  0.00     0.022 C
BRANCH  33  34
HETATM   34  C11 UNL     1      -6.151  52.506  57.018  1.00  0.00     0.029 C
BRANCH  34  35
HETATM   35  C12 UNL     1      -5.368  51.934  58.151  1.00  0.00     0.229 C
BRANCH  35  36
HETATM   36  N6  UNL     1      -5.955  50.810  58.801  1.00  0.00    -0.079 N
ATOM     37  H63 UNL     1      -5.331  50.464  59.530  1.00  0.00     0.274 HD
ATOM     38  H62 UNL     1      -6.748  51.111  59.368  1.00  0.00     0.274 HD
ATOM     39  H61 UNL     1      -6.236  50.044  58.190  1.00  0.00     0.274 HD
ENDBRANCH  35  36
ENDBRANCH  34  35
ENDBRANCH  33  34
ENDBRANCH  32  33
ENDBRANCH  30  32
ENDBRANCH   4  30
TORSDOF 15
ENDMDL