MODEL 5
REMARK VINA RESULT: -7.390285690      1.170      2.973
REMARK  11 active torsions:
REMARK  status: ('A' for Active; 'I' for Inactive)
REMARK    1  A    between atoms: N1_1  and  C1_4
REMARK    2  A    between atoms: C3_8  and  C4_9
REMARK    3  A    between atoms: C4_9  and  C5_10
REMARK    4  A    between atoms: C5_10  and  N3_11
REMARK       I    between atoms: N3_11  and  C6_12
REMARK    5  A    between atoms: C7_17  and  C8_18
REMARK    6  A    between atoms: C8_18  and  N6_19
REMARK    7  A    between atoms: N6_19  and  C9_20
REMARK    8  A    between atoms: N6_19  and  C17_28
REMARK    9  A    between atoms: C9_20  and  C10_21
REMARK   10  A    between atoms: C10_21  and  C11_22
REMARK   11  A    between atoms: C17_28  and  C18_29
ROOT
HETATM    1  C8  UNL     1     -10.479  45.588  55.595  1.00  0.00     0.123 C
ENDROOT
BRANCH   1   2
HETATM    2  C7  UNL     1     -10.253  44.204  55.162  1.00  0.00     0.092 A
HETATM    3  C1  UNL     1     -11.489  43.489  55.019  1.00  0.00     0.127 A
HETATM    4  N2  UNL     1     -11.503  42.158  54.728  1.00  0.00    -0.349 N
HETATM    5  C2  UNL     1     -10.346  41.540  54.580  1.00  0.00     0.115 A
ATOM      6  H2  UNL     1     -12.383  41.653  54.628  1.00  0.00     0.167 HD
HETATM    7  C3  UNL     1      -9.180  42.257  54.729  1.00  0.00     0.031 A
HETATM    8  N5  UNL     1      -9.127  43.565  55.012  1.00  0.00    -0.354 N
ATOM      9  H5  UNL     1      -8.232  44.047  55.108  1.00  0.00     0.166 HD
BRANCH   3  10
HETATM   10  N1  UNL     1     -12.549  44.062  55.240  1.00  0.00    -0.384 N
ATOM     11  H12 UNL     1     -13.320  43.549  55.667  1.00  0.00     0.157 HD
ATOM     12  H11 UNL     1     -12.664  45.028  54.932  1.00  0.00     0.157 HD
ENDBRANCH   3  10
BRANCH   7  13
HETATM   13  C4  UNL     1      -7.918  41.346  54.735  1.00  0.00     0.118 C
BRANCH  13  14
HETATM   14  C5  UNL     1      -6.929  42.255  55.379  1.00  0.00     0.166 C
BRANCH  14  15
HETATM   15  N3  UNL     1      -6.136  43.226  54.830  1.00  0.00    -0.371 NA
HETATM   16  C6  UNL     1      -5.368  44.172  54.297  1.00  0.00     0.405 C
HETATM   17  N4  UNL     1      -4.311  43.877  53.280  1.00  0.00    -0.025 NA
HETATM   18  O1  UNL     1      -5.368  45.437  54.537  1.00  0.00    -0.234 OA
ENDBRANCH  14  15
ENDBRANCH  13  14
ENDBRANCH   7  13
ENDBRANCH   1   2
BRANCH   1  19
HETATM   19  N6  UNL     1     -10.063  46.064  56.829  1.00  0.00    -0.363 N
BRANCH  19  20
HETATM   20  C9  UNL     1      -8.623  46.209  56.836  1.00  0.00     0.132 C
BRANCH  20  21
HETATM   21  C10 UNL     1      -8.049  47.113  55.764  1.00  0.00     0.058 C
BRANCH  21  22
HETATM   22  C11 UNL     1      -7.590  48.371  56.456  1.00  0.00    -0.057 A
HETATM   23  C12 UNL     1      -7.036  48.367  57.700  1.00  0.00     0.007 A
HETATM   24  C13 UNL     1      -6.646  49.559  58.328  1.00  0.00     0.001 A
HETATM   25  C14 UNL     1      -6.851  50.717  57.615  1.00  0.00     0.000 A
HETATM   26  C15 UNL     1      -7.399  50.724  56.373  1.00  0.00     0.001 A
HETATM   27  C16 UNL     1      -7.793  49.560  55.740  1.00  0.00     0.007 A
ENDBRANCH  21  22
ENDBRANCH  20  21
ENDBRANCH  19  20
BRANCH  19  28
HETATM   28  C17 UNL     1     -10.810  46.453  57.907  1.00  0.00     0.103 C
BRANCH  28  29
HETATM   29  C18 UNL     1     -10.452  47.613  58.700  1.00  0.00    -0.005 A
HETATM   30  C19 UNL     1     -10.728  48.889  58.284  1.00  0.00     0.015 A
HETATM   31  C20 UNL     1     -10.343  49.998  59.052  1.00  0.00     0.018 A
HETATM   32  C21 UNL     1      -9.680  49.829  60.242  1.00  0.00     0.087 A
HETATM   33  N7  UNL     1      -9.413  48.559  60.651  1.00  0.00    -0.374 N
HETATM   34  C22 UNL     1      -9.787  47.490  59.897  1.00  0.00     0.100 A
ATOM     35  H7  UNL     1      -8.926  48.406  61.535  1.00  0.00     0.164 HD
ENDBRANCH  28  29
ENDBRANCH  19  28
ENDBRANCH   1  19
TORSDOF 11
ENDMDL