MODEL 1
REMARK VINA RESULT: -4.623139115      0.000      0.000
REMARK  3 active torsions:
REMARK  status: ('A' for Active; 'I' for Inactive)
REMARK       I    between atoms: C1_4  and  N2_5
REMARK       I    between atoms: C1_4  and  N4_10
REMARK    1  A    between atoms: N2_5  and  N3_7
REMARK    2  A    between atoms: N4_10  and  N5_11
REMARK    3  A    between atoms: N4_10  and  C2_14
ROOT
HETATM    1  N1  UNL     1      51.517  55.738  67.418  1.00  0.00    -0.231 N
ATOM      2  H11 UNL     1      52.518  55.815  67.597  1.00  0.00     0.174 HD
ATOM      3  H12 UNL     1      51.060  54.871  67.138  1.00  0.00     0.174 HD
HETATM    4  C1  UNL     1      50.814  56.834  67.565  1.00  0.00     0.719 C
HETATM    5  N2  UNL     1      49.434  56.728  67.318  1.00  0.00    -0.070 N
ATOM      6  H2  UNL     1      48.955  57.475  66.818  1.00  0.00     0.212 HD
HETATM    7  N4  UNL     1      51.450  58.043  67.954  1.00  0.00    -0.060 N
ENDROOT
BRANCH   7   8
HETATM    8  N5  UNL     1      52.747  58.302  67.508  1.00  0.00    -0.321 N
ATOM      9  H52 UNL     1      53.443  57.561  67.427  1.00  0.00     0.178 HD
ATOM     10  H51 UNL     1      53.004  59.256  67.256  1.00  0.00     0.178 HD
ENDBRANCH   7   8
BRANCH   7  11
HETATM   11  C2  UNL     1      50.739  58.975  68.802  1.00  0.00     0.214 C
HETATM   12  N6  UNL     1      50.051  58.681  69.856  1.00  0.00    -0.359 N
HETATM   13  C3  UNL     1      49.468  59.833  70.476  1.00  0.00     0.142 C
ATOM     14  H6  UNL     1      49.936  57.730  70.207  1.00  0.00     0.162 HD
HETATM   15  C4  UNL     1      50.219  60.989  69.843  1.00  0.00     0.142 C
HETATM   16  N7  UNL     1      50.674  60.374  68.622  1.00  0.00    -0.359 N
ATOM     17  H7  UNL     1      50.912  60.871  67.763  1.00  0.00     0.162 HD
ENDBRANCH   7  11
BRANCH   5  18
HETATM   18  N3  UNL     1      48.714  55.622  67.746  1.00  0.00    -0.024 N
HETATM   19  O1  UNL     1      47.535  55.502  67.355  1.00  0.00    -0.516 OA
HETATM   20  O2  UNL     1      49.231  54.651  68.580  1.00  0.00    -0.516 OA
ENDBRANCH   5  18
TORSDOF 3
ENDMDL