MODEL 3
REMARK VINA RESULT: -4.825048278      3.054      6.008
REMARK  4 active torsions:
REMARK  status: ('A' for Active; 'I' for Inactive)
REMARK    1  A    between atoms: C1_4  and  N2_5
REMARK    2  A    between atoms: C1_4  and  C3_16
REMARK    3  A    between atoms: N2_5  and  C2_7
REMARK    4  A    between atoms: C3_16  and  C4_18
ROOT
HETATM    1  N1  UNL     1      52.231  58.212  68.265  1.00  0.00    -0.382 N
ATOM      2  H11 UNL     1      52.870  58.767  68.834  1.00  0.00     0.157 HD
ATOM      3  H12 UNL     1      52.549  57.386  67.759  1.00  0.00     0.157 HD
HETATM    4  C1  UNL     1      51.003  58.579  68.197  1.00  0.00     0.167 C
ENDROOT
BRANCH   4   5
HETATM    5  N2  UNL     1      50.116  57.808  67.407  1.00  0.00    -0.170 N
ATOM      6  H2  UNL     1      49.607  58.222  66.626  1.00  0.00     0.186 HD
BRANCH   5   7
HETATM    7  C2  UNL     1      49.973  56.542  67.716  1.00  0.00     0.715 A
HETATM    8  N3  UNL     1      50.785  55.528  67.368  1.00  0.00    -0.115 N
HETATM    9  N4  UNL     1      50.296  54.417  67.875  1.00  0.00    -0.213 N
ATOM     10  H3  UNL     1      51.633  55.606  66.808  1.00  0.00     0.207 HD
HETATM   11  N5  UNL     1      49.188  54.692  68.541  1.00  0.00    -0.213 N
ATOM     12  H4  UNL     1      50.707  53.489  67.771  1.00  0.00     0.210 HD
HETATM   13  N6  UNL     1      48.988  55.993  68.446  1.00  0.00    -0.115 N
ATOM     14  H5  UNL     1      48.597  54.024  69.036  1.00  0.00     0.210 HD
ATOM     15  H6  UNL     1      48.207  56.502  68.862  1.00  0.00     0.207 HD
ENDBRANCH   5   7
ENDBRANCH   4   5
BRANCH   4  16
HETATM   16  C3  UNL     1      50.550  59.752  68.915  1.00  0.00     0.244 C
HETATM   17  O1  UNL     1      50.388  60.822  68.280  1.00  0.00    -0.282 OA
BRANCH  16  18
HETATM   18  C4  UNL     1      50.281  59.707  70.367  1.00  0.00     0.116 A
HETATM   19  C5  UNL     1      51.097  60.145  71.380  1.00  0.00     0.139 A
HETATM   20  N7  UNL     1      50.462  59.913  72.553  1.00  0.00    -0.293 N
HETATM   21  N8  UNL     1      49.292  59.350  72.258  1.00  0.00    -0.022 NA
ATOM     22  H7  UNL     1      50.814  60.130  73.485  1.00  0.00     0.183 HD
HETATM   23  N9  UNL     1      49.169  59.220  70.941  1.00  0.00    -0.279 N
ATOM     24  H9  UNL     1      48.369  58.819  70.452  1.00  0.00     0.184 HD
ENDBRANCH  16  18
ENDBRANCH   4  16
TORSDOF 4
ENDMDL