MODEL 1
REMARK VINA RESULT: -5.550528666      0.000      0.000
REMARK  4 active torsions:
REMARK  status: ('A' for Active; 'I' for Inactive)
REMARK    1  A    between atoms: N1_1  and  N2_4
REMARK       I    between atoms: N2_4  and  C1_6
REMARK    2  A    between atoms: C1_6  and  C2_8
REMARK    3  A    between atoms: C4_10  and  C5_11
REMARK       I    between atoms: C5_11  and  N3_13
REMARK    4  A    between atoms: N3_13  and  N4_14
ROOT
HETATM    1  C2  UNL     1      51.511  53.052  67.044  1.00  0.00     0.105 A
HETATM    2  C3  UNL     1      50.727  54.115  67.403  1.00  0.00     0.072 A
HETATM    3  C4  UNL     1      50.684  55.237  66.609  1.00  0.00     0.120 A
HETATM    4  N5  UNL     1      51.417  55.272  65.487  1.00  0.00    -0.347 N
ATOM      5  H5  UNL     1      51.387  56.102  64.896  1.00  0.00     0.167 HD
HETATM    6  C6  UNL     1      52.192  54.234  65.127  1.00  0.00     0.181 A
HETATM    7  N6  UNL     1      52.224  53.140  65.912  1.00  0.00    -0.348 N
ATOM      8  H6  UNL     1      52.810  52.352  65.636  1.00  0.00     0.167 HD
ENDROOT
BRANCH   1   9
HETATM    9  C1  UNL     1      51.599  51.875  67.885  1.00  0.00     0.286 C
HETATM   10  N2  UNL     1      50.630  51.629  68.874  1.00  0.00    -0.271 N
ATOM     11  H2  UNL     1      49.856  52.279  69.012  1.00  0.00     0.189 HD
HETATM   12  O1  UNL     1      52.550  51.079  67.718  1.00  0.00    -0.264 OA
BRANCH  10  13
HETATM   13  N1  UNL     1      50.745  50.472  69.673  1.00  0.00    -0.342 N
ATOM     14  H12 UNL     1      51.336  49.703  69.360  1.00  0.00     0.176 HD
ATOM     15  H11 UNL     1      50.232  50.425  70.555  1.00  0.00     0.176 HD
ENDBRANCH  10  13
ENDBRANCH   1   9
BRANCH   3  16
HETATM   16  C5  UNL     1      49.814  56.385  67.015  1.00  0.00     0.361 C
HETATM   17  O2  UNL     1      50.328  57.503  66.913  1.00  0.00    -0.247 OA
HETATM   18  N3  UNL     1      48.528  56.053  67.456  1.00  0.00    -0.287 NA
BRANCH  18  19
HETATM   19  N4  UNL     1      47.370  55.755  67.853  1.00  0.00    -0.276 N
ATOM     20  H42 UNL     1      48.281  56.013  67.471  1.00  0.00     0.191 HD
ATOM     21  H41 UNL     1      46.433  55.515  68.175  1.00  0.00     0.191 HD
ENDBRANCH  18  19
ENDBRANCH   3  16
TORSDOF 4
ENDMDL