MODEL 1
REMARK VINA RESULT: -4.975556795      0.000      0.000
REMARK  2 active torsions:
REMARK  status: ('A' for Active; 'I' for Inactive)
REMARK    1  A    between atoms: C3_11  and  C4_12
REMARK    2  A    between atoms: C5_15  and  N5_16
ROOT
HETATM    1  N1  UNL     1      53.207  56.537  66.236  1.00  0.00    -0.383 N
ATOM      2  H11 UNL     1      53.331  55.622  65.802  1.00  0.00     0.157 HD
ATOM      3  H12 UNL     1      53.925  57.252  66.122  1.00  0.00     0.157 HD
HETATM    4  C1  UNL     1      52.196  56.767  66.883  1.00  0.00     0.139 A
HETATM    5  N2  UNL     1      52.028  58.006  67.471  1.00  0.00    -0.293 N
ATOM      6  H2  UNL     1      52.752  58.714  67.355  1.00  0.00     0.172 HD
HETATM    7  C2  UNL     1      50.966  58.291  68.171  1.00  0.00     0.326 A
HETATM    8  O1  UNL     1      50.904  59.468  68.678  1.00  0.00    -0.247 OA
HETATM    9  N3  UNL     1      50.000  57.383  68.344  1.00  0.00    -0.302 N
ATOM     10  H3  UNL     1      49.177  57.627  68.895  1.00  0.00     0.171 HD
HETATM   11  C3  UNL     1      50.096  56.131  67.796  1.00  0.00     0.139 A
HETATM   12  C5  UNL     1      51.198  55.774  67.040  1.00  0.00     0.178 A
ENDROOT
BRANCH  12  13
HETATM   13  N5  UNL     1      51.330  54.515  66.397  1.00  0.00    -0.109 N
HETATM   14  O3  UNL     1      50.785  54.301  65.294  1.00  0.00    -0.532 OA
HETATM   15  O4  UNL     1      52.042  53.484  66.945  1.00  0.00    -0.532 OA
ENDBRANCH  12  13
BRANCH  11  16
HETATM   16  C4  UNL     1      48.972  55.212  68.024  1.00  0.00     0.284 C
HETATM   17  N4  UNL     1      47.705  55.523  67.462  1.00  0.00    -0.056 NA
HETATM   18  O2  UNL     1      49.178  54.165  68.715  1.00  0.00    -0.269 OA
ENDBRANCH  11  16
TORSDOF 2
ENDMDL