MODEL 1
REMARK VINA RESULT: -5.348187632      0.000      0.000
REMARK  3 active torsions:
REMARK  status: ('A' for Active; 'I' for Inactive)
REMARK    1  A    between atoms: N1_1  and  C1_4
REMARK    2  A    between atoms: C2_7  and  N3_8
REMARK    3  A    between atoms: C3_11  and  C4_12
ROOT
HETATM    1  C1  UNL     1      48.907  55.497  68.009  1.00  0.00     0.680 A
HETATM    2  N2  UNL     1      49.485  54.310  67.948  1.00  0.00    -0.170 N
ATOM      3  H2  UNL     1      48.934  53.509  68.256  1.00  0.00     0.186 HD
HETATM    4  C2  UNL     1      50.755  54.058  67.509  1.00  0.00     0.209 A
HETATM    5  C3  UNL     1      51.470  55.150  67.098  1.00  0.00     0.148 A
HETATM    6  C5  UNL     1      50.838  56.415  67.171  1.00  0.00     0.279 A
HETATM    7  O4  UNL     1      51.502  57.404  66.794  1.00  0.00    -0.266 OA
HETATM    8  N5  UNL     1      49.589  56.587  67.613  1.00  0.00    -0.155 N
ATOM      9  H5  UNL     1      49.167  57.515  67.650  1.00  0.00     0.187 HD
ENDROOT
BRANCH   1  10
HETATM   10  N1  UNL     1      47.703  55.687  68.432  1.00  0.00    -0.234 N
ATOM     11  H12 UNL     1      47.552  55.613  69.438  1.00  0.00     0.174 HD
ATOM     12  H11 UNL     1      46.914  55.902  67.822  1.00  0.00     0.174 HD
ENDBRANCH   1  10
BRANCH   4  13
HETATM   13  N3  UNL     1      51.243  52.728  67.539  1.00  0.00    -0.096 N
HETATM   14  O1  UNL     1      50.724  52.003  68.453  1.00  0.00    -0.530 OA
HETATM   15  O2  UNL     1      52.146  52.096  66.787  1.00  0.00    -0.530 OA
ENDBRANCH   4  13
BRANCH   5  16
HETATM   16  C4  UNL     1      52.797  55.107  66.538  1.00  0.00     0.274 C
HETATM   17  N4  UNL     1      52.952  54.977  65.095  1.00  0.00    -0.057 NA
HETATM   18  O3  UNL     1      53.839  55.171  67.164  1.00  0.00    -0.271 OA
ENDBRANCH   5  16
TORSDOF 3
ENDMDL