MODEL 5
REMARK VINA RESULT: -3.970035790      1.899      4.460
REMARK  3 active torsions:
REMARK  status: ('A' for Active; 'I' for Inactive)
REMARK    1  A    between atoms: N1_1  and  S1_4
REMARK    2  A    between atoms: S1_4  and  N2_6
REMARK    3  A    between atoms: S1_4  and  C2_11
REMARK       I    between atoms: N2_6  and  C1_8
ROOT
HETATM    1  S1  UNL     1      51.216  54.483  66.896  1.00  0.00     0.175 S
HETATM    2  O1  UNL     1      50.452  53.322  67.512  1.00  0.00    -0.220 OA
ENDROOT
BRANCH   1   3
HETATM    3  N1  UNL     1      50.815  54.638  65.414  1.00  0.00    -0.338 N
ATOM      4  H12 UNL     1      49.855  54.742  65.084  1.00  0.00     0.167 HD
ATOM      5  H11 UNL     1      51.651  54.620  64.829  1.00  0.00     0.167 HD
ENDBRANCH   1   3
BRANCH   1   6
HETATM    6  N2  UNL     1      50.782  55.880  67.815  1.00  0.00    -0.249 N
HETATM    7  C1  UNL     1      51.147  57.161  67.348  1.00  0.00     0.341 C
HETATM    8  N3  UNL     1      50.821  58.351  68.057  1.00  0.00    -0.039 NA
HETATM    9  O2  UNL     1      51.784  57.296  66.272  1.00  0.00    -0.250 OA
ATOM     10  H2  UNL     1      50.265  55.780  68.688  1.00  0.00     0.181 HD
ENDBRANCH   1   6
BRANCH   1  11
HETATM   11  C2  UNL     1      52.920  54.168  67.062  1.00  0.00     0.228 A
HETATM   12  N4  UNL     1      53.499  52.994  67.419  1.00  0.00    -0.261 N
HETATM   13  N5  UNL     1      54.825  53.163  67.431  1.00  0.00    -0.007 NA
ATOM     14  H4  UNL     1      53.006  52.129  67.640  1.00  0.00     0.186 HD
HETATM   15  N6  UNL     1      55.103  54.411  67.093  1.00  0.00    -0.007 NA
HETATM   16  N7  UNL     1      53.957  55.030  66.866  1.00  0.00    -0.261 N
ATOM     17  H7  UNL     1      53.863  56.007  66.586  1.00  0.00     0.186 HD
ENDBRANCH   1  11
TORSDOF 3
ENDMDL