MODEL 4
REMARK VINA RESULT: -4.779310986      2.298      3.753
REMARK  2 active torsions:
REMARK  status: ('A' for Active; 'I' for Inactive)
REMARK    1  A    between atoms: C3_6  and  N2_7
REMARK    2  A    between atoms: N2_7  and  C4_9
ROOT
HETATM    1  N2  UNL     1      52.753  55.199  67.065  1.00  0.00    -0.182 N
ATOM      2  H2  UNL     1      53.399  55.473  67.805  1.00  0.00     0.184 HD
ENDROOT
BRANCH   1   3
HETATM    3  C3  UNL     1      51.346  55.235  67.275  1.00  0.00     0.132 A
HETATM    4  C2  UNL     1      50.630  54.148  67.715  1.00  0.00     0.128 A
HETATM    5  N1  UNL     1      49.301  54.219  67.902  1.00  0.00    -0.316 N
HETATM    6  C1  UNL     1      48.612  55.358  67.666  1.00  0.00     0.327 A
ATOM      7  H1  UNL     1      48.800  53.394  68.231  1.00  0.00     0.170 HD
HETATM    8  O1  UNL     1      47.368  55.454  67.832  1.00  0.00    -0.247 OA
HETATM    9  N7  UNL     1      49.302  56.428  67.235  1.00  0.00    -0.274 N
HETATM   10  C5  UNL     1      50.644  56.398  67.034  1.00  0.00     0.278 A
ATOM     11  H7  UNL     1      48.798  57.296  67.053  1.00  0.00     0.173 HD
HETATM   12  O2  UNL     1      51.268  57.402  66.633  1.00  0.00    -0.265 OA
ENDBRANCH   1   3
BRANCH   1  13
HETATM   13  C4  UNL     1      53.195  54.806  65.899  1.00  0.00     0.714 A
HETATM   14  N3  UNL     1      53.704  53.606  65.565  1.00  0.00    -0.115 N
HETATM   15  N4  UNL     1      54.022  53.655  64.279  1.00  0.00    -0.213 N
ATOM     16  H3  UNL     1      53.822  52.806  66.187  1.00  0.00     0.207 HD
HETATM   17  N5  UNL     1      53.739  54.826  63.785  1.00  0.00    -0.213 N
ATOM     18  H4  UNL     1      54.430  52.884  63.750  1.00  0.00     0.210 HD
HETATM   19  N6  UNL     1      53.230  55.543  64.773  1.00  0.00    -0.115 N
ATOM     20  H5  UNL     1      53.882  55.131  62.823  1.00  0.00     0.210 HD
ATOM     21  H6  UNL     1      52.912  56.509  64.694  1.00  0.00     0.207 HD
ENDBRANCH   1  13
TORSDOF 2
ENDMDL