MODEL 5
REMARK VINA RESULT: -4.513956358      3.551      6.560
REMARK  3 active torsions:
REMARK  status: ('A' for Active; 'I' for Inactive)
REMARK       I    between atoms: C1_2  and  N2_4
REMARK    1  A    between atoms: N2_4  and  N3_6
REMARK    2  A    between atoms: C2_8  and  C3_9
REMARK    3  A    between atoms: N6_14  and  N7_15
ROOT
HETATM    1  C3  UNL     1      50.755  54.966  66.544  1.00  0.00     0.137 A
HETATM    2  N4  UNL     1      50.499  56.265  66.305  1.00  0.00    -0.278 N
ATOM      3  H4  UNL     1      50.951  56.829  65.586  1.00  0.00     0.189 HD
HETATM    4  N5  UNL     1      49.575  56.700  67.139  1.00  0.00    -0.218 N
ATOM      5  H5  UNL     1      49.211  57.653  67.156  1.00  0.00     0.210 HD
HETATM    6  N6  UNL     1      49.184  55.733  67.952  1.00  0.00    -0.147 N
HETATM    7  C4  UNL     1      49.908  54.637  67.601  1.00  0.00     0.311 A
HETATM    8  O2  UNL     1      49.822  53.512  68.144  1.00  0.00    -0.262 OA
ENDROOT
BRANCH   1   9
HETATM    9  C2  UNL     1      51.702  54.087  65.864  1.00  0.00     0.144 C
HETATM   10  N3  UNL     1      52.250  53.105  66.480  1.00  0.00    -0.306 N
ATOM     11  H3  UNL     1      51.999  52.964  67.459  1.00  0.00     0.186 HD
BRANCH  10  12
HETATM   12  N2  UNL     1      53.149  52.227  65.921  1.00  0.00    -0.254 N
HETATM   13  C1  UNL     1      53.415  50.972  66.527  1.00  0.00     0.347 C
HETATM   14  N1  UNL     1      54.333  50.040  65.984  1.00  0.00    -0.038 NA
HETATM   15  O1  UNL     1      52.777  50.715  67.605  1.00  0.00    -0.249 OA
ATOM     16  H2  UNL     1      53.632  52.482  65.059  1.00  0.00     0.191 HD
ENDBRANCH  10  12
ENDBRANCH   1   9
BRANCH   6  17
HETATM   17  N7  UNL     1      48.223  55.820  68.965  1.00  0.00    -0.320 N
ATOM     18  H72 UNL     1      47.336  56.321  68.929  1.00  0.00     0.179 HD
ATOM     19  H71 UNL     1      48.267  55.395  69.891  1.00  0.00     0.179 HD
ENDBRANCH   6  17
TORSDOF 3
ENDMDL