MODEL 1
REMARK VINA RESULT: -4.829030470      0.000      0.000
REMARK  2 active torsions:
REMARK  status: ('A' for Active; 'I' for Inactive)
REMARK    1  A    between atoms: C1_2  and  C2_4
REMARK    2  A    between atoms: N2_5  and  C3_7
ROOT
HETATM    1  C3  UNL     1      51.312  55.194  67.404  1.00  0.00     0.142 A
HETATM    2  C4  UNL     1      50.673  56.416  67.303  1.00  0.00     0.152 A
HETATM    3  N3  UNL     1      51.451  57.572  67.056  1.00  0.00    -0.080 NA
HETATM    4  N4  UNL     1      49.323  56.512  67.437  1.00  0.00    -0.295 N
ATOM      5  H4  UNL     1      48.850  57.413  67.363  1.00  0.00     0.172 HD
HETATM    6  C5  UNL     1      48.630  55.381  67.672  1.00  0.00     0.328 A
HETATM    7  O2  UNL     1      47.361  55.465  67.798  1.00  0.00    -0.247 OA
HETATM    8  N5  UNL     1      49.203  54.175  67.778  1.00  0.00    -0.273 N
ATOM      9  H5  UNL     1      48.634  53.347  67.956  1.00  0.00     0.173 HD
HETATM   10  C6  UNL     1      50.543  54.067  67.645  1.00  0.00     0.279 A
HETATM   11  O3  UNL     1      51.136  52.967  67.735  1.00  0.00    -0.265 OA
ENDROOT
BRANCH   1  12
HETATM   12  N2  UNL     1      52.720  55.056  67.269  1.00  0.00    -0.354 N
HETATM   13  C2  UNL     1      53.262  54.860  66.107  1.00  0.00     0.159 C
ATOM     14  H2  UNL     1      53.312  55.112  68.097  1.00  0.00     0.165 HD
BRANCH  13  15
HETATM   15  C1  UNL     1      54.693  54.716  65.933  1.00  0.00     0.270 C
HETATM   16  N1  UNL     1      55.572  54.553  67.051  1.00  0.00    -0.057 NA
HETATM   17  O1  UNL     1      55.176  54.733  64.777  1.00  0.00    -0.270 OA
ENDBRANCH  13  15
ENDBRANCH   1  12
TORSDOF 2
ENDMDL