MODEL 4
REMARK VINA RESULT: -4.689927688      2.059      2.598
REMARK  3 active torsions:
REMARK  status: ('A' for Active; 'I' for Inactive)
REMARK    1  A    between atoms: C1_2  and  C2_4
REMARK    2  A    between atoms: C2_4  and  N2_5
REMARK    3  A    between atoms: C2_4  and  C3_9
ROOT
HETATM    1  C3  UNL     1      52.120  54.828  67.265  1.00  0.00     0.094 A
HETATM    2  C4  UNL     1      52.016  53.458  67.359  1.00  0.00     0.135 A
HETATM    3  N3  UNL     1      50.811  53.171  67.880  1.00  0.00    -0.198 N
ATOM      4  H3  UNL     1      50.457  52.232  68.063  1.00  0.00     0.183 HD
HETATM    5  C5  UNL     1      50.136  54.328  68.125  1.00  0.00     0.707 A
HETATM    6  N4  UNL     1      48.975  54.815  68.599  1.00  0.00    -0.127 N
ATOM      7  H4  UNL     1      48.185  54.275  68.953  1.00  0.00     0.205 HD
HETATM    8  N5  UNL     1      49.060  56.132  68.515  1.00  0.00    -0.236 N
ATOM      9  H5  UNL     1      48.335  56.791  68.798  1.00  0.00     0.192 HD
HETATM   10  C6  UNL     1      50.255  56.462  67.997  1.00  0.00     0.360 A
HETATM   11  O2  UNL     1      50.718  57.622  67.759  1.00  0.00    -0.244 OA
HETATM   12  N6  UNL     1      50.950  55.329  67.743  1.00  0.00    -0.093 N
ENDROOT
BRANCH   1  13
HETATM   13  C2  UNL     1      53.257  55.634  66.755  1.00  0.00     0.324 C
BRANCH  13  14
HETATM   14  C1  UNL     1      52.966  56.243  65.439  1.00  0.00     0.267 C
HETATM   15  N1  UNL     1      52.669  55.453  64.290  1.00  0.00    -0.060 NA
HETATM   16  O1  UNL     1      52.992  57.513  65.369  1.00  0.00    -0.274 OA
ENDBRANCH  13  14
BRANCH  13  17
HETATM   17  N2  UNL     1      54.436  54.830  66.655  1.00  0.00    -0.061 N
ATOM     18  H23 UNL     1      54.240  53.900  66.282  1.00  0.00     0.275 HD
ATOM     19  H22 UNL     1      55.062  55.153  65.917  1.00  0.00     0.275 HD
ATOM     20  H21 UNL     1      54.898  54.792  67.564  1.00  0.00     0.275 HD
ENDBRANCH  13  17
ENDBRANCH   1  13
TORSDOF 3
ENDMDL