MODEL 2
REMARK VINA RESULT: -4.752291581      1.130      1.130
REMARK  3 active torsions:
REMARK  status: ('A' for Active; 'I' for Inactive)
REMARK    1  A    between atoms: C2_7  and  C3_8
REMARK    2  A    between atoms: C3_8  and  C4_9
REMARK    3  A    between atoms: C4_9  and  N3_10
ROOT
HETATM    1  N1  UNL     1      52.374  55.700  65.860  1.00  0.00    -0.233 N
ATOM      2  H11 UNL     1      51.899  56.596  65.750  1.00  0.00     0.174 HD
ATOM      3  H12 UNL     1      53.251  55.511  65.374  1.00  0.00     0.174 HD
HETATM    4  C1  UNL     1      51.866  54.808  66.609  1.00  0.00     0.702 A
HETATM    5  N2  UNL     1      52.502  53.607  66.755  1.00  0.00    -0.179 N
ATOM      6  H2  UNL     1      53.378  53.447  66.257  1.00  0.00     0.185 HD
HETATM    7  C2  UNL     1      52.007  52.631  67.536  1.00  0.00     0.115 A
HETATM    8  N4  UNL     1      50.851  52.896  68.169  1.00  0.00    -0.177 N
ATOM      9  H4  UNL     1      50.440  52.182  68.771  1.00  0.00     0.185 HD
HETATM   10  C5  UNL     1      50.213  54.088  68.029  1.00  0.00     0.723 A
HETATM   11  N5  UNL     1      49.070  54.573  68.549  1.00  0.00    -0.127 N
ATOM     12  H5  UNL     1      48.467  54.054  69.187  1.00  0.00     0.205 HD
HETATM   13  N6  UNL     1      48.829  55.780  68.142  1.00  0.00    -0.236 N
ATOM     14  H6  UNL     1      48.031  56.365  68.389  1.00  0.00     0.192 HD
HETATM   15  C6  UNL     1      49.857  56.104  67.318  1.00  0.00     0.377 A
HETATM   16  O1  UNL     1      49.973  57.197  66.729  1.00  0.00    -0.243 OA
HETATM   17  N7  UNL     1      50.711  55.057  67.249  1.00  0.00     0.079 N
ENDROOT
BRANCH   7  18
HETATM   18  C3  UNL     1      52.728  51.338  67.670  1.00  0.00     0.104 C
BRANCH  18  19
HETATM   19  C4  UNL     1      53.964  51.267  66.820  1.00  0.00     0.237 C
BRANCH  19  20
HETATM   20  N3  UNL     1      54.373  49.972  66.447  1.00  0.00    -0.079 N
ATOM     21  H33 UNL     1      54.980  50.020  65.630  1.00  0.00     0.274 HD
ATOM     22  H32 UNL     1      55.027  49.601  67.137  1.00  0.00     0.274 HD
ATOM     23  H31 UNL     1      53.621  49.302  66.283  1.00  0.00     0.274 HD
ENDBRANCH  19  20
ENDBRANCH  18  19
ENDBRANCH   7  18
TORSDOF 3
ENDMDL