MODEL 3
REMARK VINA RESULT: -5.173148930      1.157      1.298
REMARK  4 active torsions:
REMARK  status: ('A' for Active; 'I' for Inactive)
REMARK    1  A    between atoms: N3_8  and  N4_9
REMARK    2  A    between atoms: N5_11  and  N6_13
REMARK    3  A    between atoms: N6_13  and  C3_15
REMARK    4  A    between atoms: N10_21  and  O1_22
ROOT
HETATM    1  N4  UNL     1      50.735  59.410  68.860  1.00  0.00    -0.221 N
ATOM      2  H4  UNL     1      51.013  60.245  68.345  1.00  0.00     0.210 HD
HETATM    3  N5  UNL     1      50.444  58.383  68.184  1.00  0.00    -0.213 N
ATOM      4  H5  UNL     1      50.507  58.455  67.169  1.00  0.00     0.210 HD
ENDROOT
BRANCH   3   5
HETATM    5  N6  UNL     1      50.048  57.167  68.719  1.00  0.00    -0.112 N
ATOM      6  H6  UNL     1      49.631  57.151  69.650  1.00  0.00     0.207 HD
BRANCH   5   7
HETATM    7  C3  UNL     1      50.202  55.941  68.012  1.00  0.00     0.753 A
HETATM    8  N7  UNL     1      49.870  54.724  68.470  1.00  0.00    -0.114 N
HETATM    9  N8  UNL     1      50.160  53.858  67.539  1.00  0.00    -0.209 N
ATOM     10  H7  UNL     1      49.464  54.514  69.381  1.00  0.00     0.207 HD
HETATM   11  N9  UNL     1      50.675  54.483  66.480  1.00  0.00     0.039 NA
ATOM     12  H8  UNL     1      50.015  52.851  67.609  1.00  0.00     0.206 HD
HETATM   13  N10 UNL     1      50.697  55.777  66.784  1.00  0.00     0.035 N
BRANCH  13  14
HETATM   14  O1  UNL     1      51.169  56.734  65.923  1.00  0.00    -0.256 OA
ATOM     15  H1  UNL     1      51.392  56.641  65.005  1.00  0.00     0.247 HD
ENDBRANCH  13  14
ENDBRANCH   5   7
ENDBRANCH   3   5
BRANCH   1  16
HETATM   16  N3  UNL     1      50.707  59.497  70.236  1.00  0.00    -0.229 N
HETATM   17  C1  UNL     1      49.681  59.418  71.202  1.00  0.00     0.194 C
HETATM   18  N1  UNL     1      48.482  58.892  71.265  1.00  0.00    -0.370 N
HETATM   19  N2  UNL     1      50.512  60.157  72.076  1.00  0.00    -0.343 N
ATOM     20  H12 UNL     1      47.740  58.835  71.963  1.00  0.00     0.159 HD
ATOM     21  H11 UNL     1      47.882  58.359  70.634  1.00  0.00     0.159 HD
HETATM   22  C2  UNL     1      51.642  59.699  71.308  1.00  0.00     0.278 C
ATOM     23  H2  UNL     1      50.373  60.753  72.892  1.00  0.00     0.164 HD
ENDBRANCH   1  16
TORSDOF 4
ENDMDL