MODEL 4
REMARK VINA RESULT: -4.496819629      1.267      1.267
REMARK  2 active torsions:
REMARK  status: ('A' for Active; 'I' for Inactive)
REMARK    1  A    between atoms: N1_1  and  N2_4
REMARK       I    between atoms: N2_4  and  C1_6
REMARK    2  A    between atoms: C1_6  and  C2_8
REMARK       I    between atoms: N3_10  and  C4_11
ROOT
HETATM    1  C2  UNL     1      52.019  53.042  67.689  1.00  0.00     0.122 A
HETATM    2  C3  UNL     1      50.725  53.567  67.681  1.00  0.00     0.141 A
HETATM    3  N3  UNL     1      50.793  54.886  67.397  1.00  0.00    -0.226 N
HETATM    4  C4  UNL     1      49.722  55.807  67.289  1.00  0.00     0.343 C
HETATM    5  N4  UNL     1      48.370  55.428  67.478  1.00  0.00    -0.039 NA
HETATM    6  O2  UNL     1      49.991  57.002  67.015  1.00  0.00    -0.250 OA
HETATM    7  C5  UNL     1      52.087  55.147  67.238  1.00  0.00     0.335 A
HETATM    8  O3  UNL     1      52.563  56.287  66.959  1.00  0.00    -0.246 OA
HETATM    9  N5  UNL     1      52.837  54.060  67.407  1.00  0.00    -0.302 N
ATOM     10  H5  UNL     1      53.854  54.013  67.334  1.00  0.00     0.171 HD
ENDROOT
BRANCH   1  11
HETATM   11  C1  UNL     1      52.361  51.662  67.952  1.00  0.00     0.287 C
HETATM   12  N2  UNL     1      51.671  50.936  68.948  1.00  0.00    -0.271 N
ATOM     13  H2  UNL     1      50.932  51.399  69.477  1.00  0.00     0.189 HD
HETATM   14  O1  UNL     1      53.274  51.072  67.305  1.00  0.00    -0.264 OA
BRANCH  12  15
HETATM   15  N1  UNL     1      51.973  49.602  69.230  1.00  0.00    -0.342 N
ATOM     16  H12 UNL     1      52.592  49.105  68.589  1.00  0.00     0.176 HD
ATOM     17  H11 UNL     1      51.595  49.125  70.048  1.00  0.00     0.176 HD
ENDBRANCH  12  15
ENDBRANCH   1  11
TORSDOF 2
ENDMDL