MODEL 5
REMARK VINA RESULT: -4.633183901      2.903      5.742
REMARK  3 active torsions:
REMARK  status: ('A' for Active; 'I' for Inactive)
REMARK    1  A    between atoms: N1_1  and  N2_4
REMARK       I    between atoms: N2_4  and  C1_6
REMARK    2  A    between atoms: C1_6  and  C2_8
REMARK    3  A    between atoms: C4_12  and  C5_13
ROOT
HETATM    1  C2  UNL     1      52.377  53.750  67.324  1.00  0.00     0.177 A
HETATM    2  N3  UNL     1      51.381  52.933  67.772  1.00  0.00    -0.347 N
ATOM      3  H3  UNL     1      51.571  51.933  67.834  1.00  0.00     0.167 HD
HETATM    4  C3  UNL     1      50.168  53.368  68.135  1.00  0.00     0.110 A
HETATM    5  C4  UNL     1      49.937  54.728  68.040  1.00  0.00     0.085 A
HETATM    6  C6  UNL     1      50.922  55.609  67.589  1.00  0.00     0.134 A
HETATM    7  N5  UNL     1      50.677  57.002  67.496  1.00  0.00    -0.082 NA
HETATM    8  N6  UNL     1      52.101  55.062  67.252  1.00  0.00    -0.325 N
ATOM      9  H6  UNL     1      52.837  55.685  66.919  1.00  0.00     0.169 HD
ENDROOT
BRANCH   1  10
HETATM   10  C1  UNL     1      53.673  53.200  66.947  1.00  0.00     0.303 C
HETATM   11  N2  UNL     1      53.760  52.193  65.970  1.00  0.00    -0.270 N
ATOM     12  H2  UNL     1      52.908  51.849  65.527  1.00  0.00     0.189 HD
HETATM   13  O1  UNL     1      54.708  53.628  67.494  1.00  0.00    -0.263 OA
BRANCH  11  14
HETATM   14  N1  UNL     1      54.981  51.660  65.599  1.00  0.00    -0.342 N
ATOM     15  H12 UNL     1      55.231  50.733  65.943  1.00  0.00     0.176 HD
ATOM     16  H11 UNL     1      55.621  52.177  64.996  1.00  0.00     0.176 HD
ENDBRANCH  11  14
ENDBRANCH   1  10
BRANCH   5  17
HETATM   17  C5  UNL     1      48.651  55.281  68.413  1.00  0.00     0.269 C
HETATM   18  N4  UNL     1      47.665  55.562  67.432  1.00  0.00    -0.057 NA
HETATM   19  O2  UNL     1      48.372  55.524  69.607  1.00  0.00    -0.271 OA
ENDBRANCH   5  17
TORSDOF 3
ENDMDL