MODEL 2
REMARK VINA RESULT: -4.491417470      4.723      6.031
REMARK  3 active torsions:
REMARK  status: ('A' for Active; 'I' for Inactive)
REMARK    1  A    between atoms: N1_1  and  C1_4
REMARK    2  A    between atoms: C2_7  and  C3_8
REMARK    3  A    between atoms: C4_15  and  C5_16
ROOT
HETATM    1  C1  UNL     1      49.689  59.752  70.999  1.00  0.00     0.134 A
HETATM    2  N2  UNL     1      49.726  60.284  69.754  1.00  0.00    -0.322 N
ATOM      3  H2  UNL     1      49.054  59.966  69.055  1.00  0.00     0.169 HD
HETATM    4  C2  UNL     1      50.631  61.224  69.420  1.00  0.00     0.188 A
HETATM    5  N4  UNL     1      51.489  61.601  70.386  1.00  0.00    -0.281 N
ATOM      6  H4  UNL     1      52.187  62.311  70.165  1.00  0.00     0.188 HD
HETATM    7  N5  UNL     1      51.469  61.094  71.607  1.00  0.00    -0.291 N
ATOM      8  H5  UNL     1      52.149  61.425  72.293  1.00  0.00     0.187 HD
HETATM    9  C4  UNL     1      50.580  60.156  71.969  1.00  0.00     0.157 A
ENDROOT
BRANCH   1  10
HETATM   10  N1  UNL     1      48.829  58.851  71.336  1.00  0.00    -0.383 N
ATOM     11  H12 UNL     1      48.922  57.937  70.893  1.00  0.00     0.157 HD
ATOM     12  H11 UNL     1      48.087  59.033  72.012  1.00  0.00     0.157 HD
ENDBRANCH   1  10
BRANCH   9  13
HETATM   13  C5  UNL     1      50.560  59.594  73.327  1.00  0.00     0.286 C
HETATM   14  N6  UNL     1      51.656  58.869  73.853  1.00  0.00    -0.056 NA
HETATM   15  O2  UNL     1      49.562  59.736  74.082  1.00  0.00    -0.269 OA
ENDBRANCH   9  13
BRANCH   4  16
HETATM   16  C3  UNL     1      50.683  61.807  68.084  1.00  0.00     0.300 C
HETATM   17  N3  UNL     1      51.945  62.047  67.494  1.00  0.00    -0.054 NA
HETATM   18  O1  UNL     1      49.657  62.103  67.439  1.00  0.00    -0.268 OA
ENDBRANCH   4  16
TORSDOF 3
ENDMDL