MODEL 5
REMARK VINA RESULT: -4.642209960      4.969      6.775
REMARK  2 active torsions:
REMARK  status: ('A' for Active; 'I' for Inactive)
REMARK       I    between atoms: C1_2  and  N2_4
REMARK    1  A    between atoms: N2_4  and  N3_6
REMARK    2  A    between atoms: C2_8  and  C3_9
ROOT
HETATM    1  C3  UNL     1      50.701  55.756  66.546  1.00  0.00     0.122 A
HETATM    2  N4  UNL     1      49.759  56.488  67.136  1.00  0.00    -0.281 N
ATOM      3  H4  UNL     1      49.607  57.445  66.818  1.00  0.00     0.188 HD
HETATM    4  N5  UNL     1      49.014  56.014  68.120  1.00  0.00    -0.239 N
ATOM      5  H5  UNL     1      48.305  56.617  68.538  1.00  0.00     0.208 HD
HETATM    6  N6  UNL     1      49.160  54.780  68.579  1.00  0.00    -0.248 N
ATOM      7  H6  UNL     1      48.566  54.450  69.340  1.00  0.00     0.192 HD
HETATM    8  C4  UNL     1      50.090  53.954  68.049  1.00  0.00     0.313 A
HETATM    9  O2  UNL     1      50.258  52.784  68.454  1.00  0.00    -0.262 OA
HETATM   10  C5  UNL     1      50.866  54.452  67.021  1.00  0.00     0.270 A
HETATM   11  O3  UNL     1      51.761  53.745  66.466  1.00  0.00    -0.280 OA
ENDROOT
BRANCH   1  12
HETATM   12  C2  UNL     1      51.540  56.245  65.460  1.00  0.00     0.142 C
HETATM   13  N3  UNL     1      52.758  56.595  65.682  1.00  0.00    -0.306 N
ATOM     14  H3  UNL     1      53.111  56.518  66.635  1.00  0.00     0.186 HD
BRANCH  13  15
HETATM   15  N2  UNL     1      53.615  57.067  64.713  1.00  0.00    -0.254 N
HETATM   16  C1  UNL     1      54.033  58.418  64.702  1.00  0.00     0.347 C
HETATM   17  N1  UNL     1      54.922  58.916  63.700  1.00  0.00    -0.038 NA
HETATM   18  O1  UNL     1      53.639  59.228  65.570  1.00  0.00    -0.249 OA
ATOM     19  H2  UNL     1      53.955  56.432  63.991  1.00  0.00     0.191 HD
ENDBRANCH  13  15
ENDBRANCH   1  12
TORSDOF 2
ENDMDL