MODEL 2
REMARK VINA RESULT: -5.112897997      0.954      1.051
REMARK  3 active torsions:
REMARK  status: ('A' for Active; 'I' for Inactive)
REMARK    1  A    between atoms: N1_1  and  N2_4
REMARK    2  A    between atoms: N2_4  and  C1_5
REMARK    3  A    between atoms: C1_5  and  C2_6
ROOT
HETATM    1  C2  UNL     1      52.278  52.808  67.596  1.00  0.00     0.033 A
HETATM    2  C3  UNL     1      50.949  52.986  67.953  1.00  0.00     0.077 A
HETATM    3  C4  UNL     1      50.356  54.233  68.011  1.00  0.00     0.137 A
HETATM    4  N3  UNL     1      49.127  54.691  68.315  1.00  0.00    -0.281 N
ATOM      5  H3  UNL     1      48.342  54.100  68.586  1.00  0.00     0.188 HD
HETATM    6  N4  UNL     1      49.072  56.005  68.216  1.00  0.00    -0.249 N
ATOM      7  H4  UNL     1      48.264  56.604  68.390  1.00  0.00     0.192 HD
HETATM    8  C5  UNL     1      50.310  56.391  67.836  1.00  0.00     0.351 A
HETATM    9  O1  UNL     1      50.653  57.598  67.635  1.00  0.00    -0.244 OA
HETATM   10  N5  UNL     1      51.107  55.307  67.707  1.00  0.00    -0.197 N
HETATM   11  C6  UNL     1      52.405  55.159  67.357  1.00  0.00     0.336 A
HETATM   12  O2  UNL     1      53.078  56.181  67.080  1.00  0.00    -0.246 OA
HETATM   13  N6  UNL     1      52.964  53.936  67.306  1.00  0.00    -0.310 N
ATOM     14  H6  UNL     1      53.945  53.858  67.038  1.00  0.00     0.170 HD
ENDROOT
BRANCH   1  15
HETATM   15  C1  UNL     1      52.907  51.461  67.537  1.00  0.00     0.191 C
BRANCH  15  16
HETATM   16  N2  UNL     1      53.914  51.494  66.492  1.00  0.00    -0.142 NA
BRANCH  16  17
HETATM   17  N1  UNL     1      54.415  50.227  66.197  1.00  0.00    -0.348 N
ATOM     18  H12 UNL     1      55.413  50.023  66.150  1.00  0.00     0.172 HD
ATOM     19  H11 UNL     1      53.675  49.544  66.036  1.00  0.00     0.172 HD
ENDBRANCH  16  17
ENDBRANCH  15  16
ENDBRANCH   1  15
TORSDOF 3
ENDMDL