MODEL 4
REMARK VINA RESULT: -4.498431200      2.539      3.323
REMARK  2 active torsions:
REMARK  status: ('A' for Active; 'I' for Inactive)
REMARK       I    between atoms: N1_1  and  C1_5
REMARK       I    between atoms: C1_5  and  N2_6
REMARK       I    between atoms: C1_5  and  N3_10
REMARK    1  A    between atoms: N3_10  and  C2_12
REMARK    2  A    between atoms: C4_21  and  N7_22
ROOT
HETATM    1  C2  UNL     1      50.837  55.935  67.748  1.00  0.00     0.160 A
HETATM    2  N4  UNL     1      52.089  55.537  67.460  1.00  0.00    -0.290 N
ATOM      3  H4  UNL     1      52.811  56.230  67.263  1.00  0.00     0.172 HD
HETATM    4  C3  UNL     1      52.391  54.225  67.430  1.00  0.00     0.340 A
HETATM    5  O1  UNL     1      53.579  53.921  67.154  1.00  0.00    -0.245 OA
HETATM    6  N5  UNL     1      51.499  53.250  67.676  1.00  0.00    -0.249 N
ATOM      7  H5  UNL     1      51.765  52.266  67.644  1.00  0.00     0.192 HD
HETATM    8  N6  UNL     1      50.264  53.623  67.962  1.00  0.00    -0.274 N
ATOM      9  H6  UNL     1      49.562  52.909  68.155  1.00  0.00     0.189 HD
HETATM   10  C4  UNL     1      49.909  54.919  68.005  1.00  0.00     0.232 A
ENDROOT
BRANCH   1  11
HETATM   11  N3  UNL     1      50.464  57.164  67.797  1.00  0.00    -0.324 N
HETATM   12  C1  UNL     1      51.144  58.119  68.643  1.00  0.00     0.481 C
HETATM   13  N1  UNL     1      52.447  58.465  68.088  1.00  0.00    -0.033 N
HETATM   14  N2  UNL     1      50.311  59.294  68.803  1.00  0.00    -0.033 N
ATOM     15  H13 UNL     1      52.356  58.981  67.213  1.00  0.00     0.278 HD
ATOM     16  H12 UNL     1      52.913  59.181  68.645  1.00  0.00     0.278 HD
ATOM     17  H11 UNL     1      53.034  57.638  67.975  1.00  0.00     0.278 HD
ATOM     18  H23 UNL     1      50.777  60.010  69.361  1.00  0.00     0.278 HD
ATOM     19  H22 UNL     1      50.220  59.810  67.928  1.00  0.00     0.278 HD
ATOM     20  H21 UNL     1      49.400  59.052  69.191  1.00  0.00     0.278 HD
ATOM     21  H3  UNL     1      49.674  57.471  67.229  1.00  0.00     0.165 HD
ENDBRANCH   1  11
BRANCH  10  22
HETATM   22  N7  UNL     1      48.577  55.334  68.310  1.00  0.00    -0.092 N
HETATM   23  O2  UNL     1      47.778  55.527  67.374  1.00  0.00    -0.530 OA
HETATM   24  O3  UNL     1      48.122  55.534  69.589  1.00  0.00    -0.530 OA
ENDBRANCH  10  22
TORSDOF 2
ENDMDL