MODEL 3
REMARK VINA RESULT: -4.694196903      1.774      4.218
REMARK  1 active torsions:
REMARK  status: ('A' for Active; 'I' for Inactive)
REMARK    1  A    between atoms: C1_4  and  C2_6
REMARK       I    between atoms: N5_12  and  C5_13
ROOT
HETATM    1  C2  UNL     1      52.260  53.030  67.446  1.00  0.00     0.142 A
HETATM    2  N3  UNL     1      51.159  52.531  68.075  1.00  0.00    -0.355 N
ATOM      3  H3  UNL     1      51.190  51.576  68.430  1.00  0.00     0.165 HD
HETATM    4  C3  UNL     1      50.045  53.241  68.244  1.00  0.00     0.134 A
HETATM    5  C4  UNL     1      49.992  54.527  67.770  1.00  0.00     0.145 A
HETATM    6  N4  UNL     1      48.834  55.331  67.920  1.00  0.00    -0.080 NA
HETATM    7  N5  UNL     1      51.051  55.064  67.143  1.00  0.00    -0.216 N
HETATM    8  C5  UNL     1      51.046  56.381  66.637  1.00  0.00     0.343 C
HETATM    9  N6  UNL     1      52.169  56.905  65.989  1.00  0.00    -0.039 NA
HETATM   10  O1  UNL     1      50.018  57.066  66.782  1.00  0.00    -0.250 OA
HETATM   11  C6  UNL     1      52.178  54.311  66.984  1.00  0.00     0.287 A
HETATM   12  O2  UNL     1      53.156  54.872  66.380  1.00  0.00    -0.265 OA
ENDROOT
BRANCH   1  13
HETATM   13  C1  UNL     1      53.448  52.217  67.286  1.00  0.00     0.142 C
HETATM   14  N1  UNL     1      53.933  51.806  66.203  1.00  0.00    -0.386 N
ATOM     15  H12 UNL     1      54.770  51.234  66.091  1.00  0.00     0.157 HD
ATOM     16  H11 UNL     1      53.462  52.055  65.333  1.00  0.00     0.157 HD
HETATM   17  N2  UNL     1      54.115  51.865  68.519  1.00  0.00    -0.081 NA
ENDBRANCH   1  13
TORSDOF 1
ENDMDL