MODEL 2
REMARK VINA RESULT: -6.172367120      1.023      1.287
REMARK  17 active torsions:
REMARK  status: ('A' for Active; 'I' for Inactive)
REMARK    1  A    between atoms: C3_4  and  O2_5
REMARK    2  A    between atoms: O2_5  and  C4_6
REMARK    3  A    between atoms: C5_7  and  N1_8
REMARK    4  A    between atoms: C7_13  and  N2_14
REMARK    5  A    between atoms: C8_18  and  O3_19
REMARK    6  A    between atoms: O3_19  and  C9_20
REMARK    7  A    between atoms: C10_22  and  C11_23
REMARK    8  A    between atoms: C11_23  and  N3_24
REMARK    9  A    between atoms: C12_28  and  O5_29
REMARK   10  A    between atoms: C13_31  and  O6_32
REMARK   11  A    between atoms: C14_34  and  N4_35
REMARK   12  A    between atoms: C15_39  and  O7_40
REMARK   13  A    between atoms: C16_42  and  O8_43
REMARK   14  A    between atoms: O8_43  and  C17_44
REMARK   15  A    between atoms: C19_49  and  C20_50
REMARK   16  A    between atoms: C20_50  and  N6_51
REMARK   17  A    between atoms: C21_56  and  O10_57
ROOT
HETATM    1  C4  UNL     1     -34.218 -17.192   0.008  1.00  0.00     0.186 C
HETATM    2  C5  UNL     1     -35.221 -17.801   0.924  1.00  0.00     0.217 C
HETATM    3  C6  UNL     1     -35.070 -17.315   2.334  1.00  0.00     0.071 C
HETATM    4  C7  UNL     1     -35.117 -15.826   2.483  1.00  0.00     0.217 C
HETATM    5  C8  UNL     1     -34.720 -15.061   1.267  1.00  0.00     0.186 C
HETATM    6  C15 UNL     1     -33.766 -15.811   0.370  1.00  0.00     0.180 C
ENDROOT
BRANCH   1   7
HETATM    7  O2  UNL     1     -33.147 -18.042  -0.130  1.00  0.00    -0.349 OA
BRANCH   7   8
HETATM    8  C3  UNL     1     -33.402 -19.344   0.222  1.00  0.00     0.292 C
HETATM    9  O1  UNL     1     -33.130 -20.123  -0.931  1.00  0.00    -0.351 OA
HETATM   10  C2  UNL     1     -31.761 -19.872  -1.083  1.00  0.00     0.152 C
HETATM   11  C1  UNL     1     -31.099 -20.881  -1.994  1.00  0.00     0.042 C
HETATM   12  C21 UNL     1     -31.150 -19.982   0.301  1.00  0.00     0.180 C
HETATM   13  C16 UNL     1     -32.387 -19.939   1.176  1.00  0.00     0.212 C
BRANCH  12  14
HETATM   14  O10 UNL     1     -30.286 -18.939   0.568  1.00  0.00    -0.390 OA
ATOM     15  H10 UNL     1     -30.747 -18.117   0.689  1.00  0.00     0.210 HD
ENDBRANCH  12  14
BRANCH  13  16
HETATM   16  O8  UNL     1     -32.222 -19.227   2.334  1.00  0.00    -0.326 OA
BRANCH  16  17
HETATM   17  C17 UNL     1     -31.778 -20.123   3.324  1.00  0.00     0.470 C
HETATM   18  N5  UNL     1     -31.212 -19.307   4.383  1.00  0.00    -0.022 N
HETATM   19  C18 UNL     1     -31.197 -20.243   5.509  1.00  0.00     0.272 C
ATOM     20  H52 UNL     1     -30.312 -18.879   4.165  1.00  0.00     0.283 HD
ATOM     21  H51 UNL     1     -31.696 -18.427   4.558  1.00  0.00     0.283 HD
HETATM   22  C19 UNL     1     -32.494 -21.003   5.253  1.00  0.00     0.177 C
HETATM   23  O9  UNL     1     -32.816 -20.788   3.926  1.00  0.00    -0.330 OA
BRANCH  22  24
HETATM   24  C20 UNL     1     -33.566 -20.299   6.084  1.00  0.00     0.263 C
BRANCH  24  25
HETATM   25  N6  UNL     1     -33.929 -21.137   7.212  1.00  0.00    -0.077 N
ATOM     26  H63 UNL     1     -33.208 -21.825   7.430  1.00  0.00     0.274 HD
ATOM     27  H62 UNL     1     -33.912 -20.625   8.094  1.00  0.00     0.274 HD
ATOM     28  H61 UNL     1     -34.836 -21.570   7.034  1.00  0.00     0.274 HD
ENDBRANCH  24  25
ENDBRANCH  22  24
ENDBRANCH  16  17
ENDBRANCH  13  16
ENDBRANCH   7   8
ENDBRANCH   1   7
BRANCH   2  29
HETATM   29  N1  UNL     1     -36.591 -17.658   0.440  1.00  0.00    -0.072 N
ATOM     30  H13 UNL     1     -37.240 -17.526   1.215  1.00  0.00     0.274 HD
ATOM     31  H12 UNL     1     -36.718 -16.765  -0.037  1.00  0.00     0.274 HD
ATOM     32  H11 UNL     1     -36.885 -18.433  -0.154  1.00  0.00     0.274 HD
ENDBRANCH   2  29
BRANCH   6  33
HETATM   33  O7  UNL     1     -32.501 -15.921   0.976  1.00  0.00    -0.390 OA
ATOM     34  H7  UNL     1     -32.588 -16.503   1.722  1.00  0.00     0.210 HD
ENDBRANCH   6  33
BRANCH   5  35
HETATM   35  O3  UNL     1     -35.835 -14.744   0.545  1.00  0.00    -0.349 OA
BRANCH  35  36
HETATM   36  C9  UNL     1     -36.063 -13.456   0.234  1.00  0.00     0.294 C
HETATM   37  O4  UNL     1     -35.414 -12.633   1.155  1.00  0.00    -0.349 OA
HETATM   38  C10 UNL     1     -35.263 -11.340   0.734  1.00  0.00     0.181 C
HETATM   39  C12 UNL     1     -36.468 -10.702   0.153  1.00  0.00     0.179 C
HETATM   40  C13 UNL     1     -37.434 -11.620  -0.502  1.00  0.00     0.184 C
HETATM   41  C14 UNL     1     -37.483 -12.994   0.182  1.00  0.00     0.269 C
BRANCH  38  42
HETATM   42  C11 UNL     1     -34.857 -10.520   1.968  1.00  0.00     0.264 C
BRANCH  42  43
HETATM   43  N3  UNL     1     -33.997  -9.414   1.606  1.00  0.00    -0.077 N
ATOM     44  H33 UNL     1     -33.091  -9.740   1.270  1.00  0.00     0.274 HD
ATOM     45  H32 UNL     1     -34.323  -8.951   0.758  1.00  0.00     0.274 HD
ATOM     46  H31 UNL     1     -33.896  -8.754   2.378  1.00  0.00     0.274 HD
ENDBRANCH  42  43
ENDBRANCH  38  42
BRANCH  39  47
HETATM   47  O5  UNL     1     -36.037  -9.738  -0.785  1.00  0.00    -0.390 OA
ATOM     48  H5  UNL     1     -36.809  -9.376  -1.204  1.00  0.00     0.210 HD
ENDBRANCH  39  47
BRANCH  40  49
HETATM   49  O6  UNL     1     -38.724 -11.130  -0.555  1.00  0.00    -0.391 OA
ATOM     50  H6  UNL     1     -39.162 -11.103   0.288  1.00  0.00     0.210 HD
ENDBRANCH  40  49
BRANCH  41  51
HETATM   51  N4  UNL     1     -37.944 -12.761   1.521  1.00  0.00    -0.068 N
ATOM     52  H43 UNL     1     -37.919 -13.605   2.093  1.00  0.00     0.275 HD
ATOM     53  H42 UNL     1     -37.289 -12.200   2.067  1.00  0.00     0.275 HD
ATOM     54  H41 UNL     1     -38.874 -12.344   1.482  1.00  0.00     0.275 HD
ENDBRANCH  41  51
ENDBRANCH  35  36
ENDBRANCH   5  35
BRANCH   4  55
HETATM   55  N2  UNL     1     -36.489 -15.462   2.808  1.00  0.00    -0.072 N
ATOM     56  H23 UNL     1     -36.906 -16.071   3.512  1.00  0.00     0.274 HD
ATOM     57  H22 UNL     1     -36.556 -14.588   3.331  1.00  0.00     0.274 HD
ATOM     58  H21 UNL     1     -37.017 -15.444   1.935  1.00  0.00     0.274 HD
ENDBRANCH   4  55
TORSDOF 17
ENDMDL