MODEL 5
REMARK VINA RESULT: -6.999860116      1.659      3.521
REMARK  19 active torsions:
REMARK  status: ('A' for Active; 'I' for Inactive)
REMARK    1  A    between atoms: C3_3  and  O1_4
REMARK    2  A    between atoms: C4_7  and  C5_8
REMARK    3  A    between atoms: C5_8  and  S1_9
REMARK    4  A    between atoms: S1_9  and  C6_10
REMARK    5  A    between atoms: C6_10  and  C7_11
REMARK    6  A    between atoms: C7_11  and  C8_12
REMARK    7  A    between atoms: C8_12  and  O3_13
REMARK    8  A    between atoms: C8_12  and  C9_15
REMARK    9  A    between atoms: C10_17  and  C11_18
REMARK   10  A    between atoms: C11_18  and  O5_19
REMARK   11  A    between atoms: C12_21  and  O6_22
REMARK   12  A    between atoms: C13_24  and  O7_25
REMARK   13  A    between atoms: C14_27  and  O8_28
REMARK   14  A    between atoms: C15_30  and  O9_31
REMARK   15  A    between atoms: C16_34  and  C17_35
REMARK   16  A    between atoms: C17_35  and  O11_36
REMARK   17  A    between atoms: C18_38  and  O12_39
REMARK   18  A    between atoms: C19_41  and  O13_42
REMARK   19  A    between atoms: C20_44  and  O14_45
ROOT
HETATM    1  C1  UNL     1     -35.185 -19.400   2.185  1.00  0.00     0.029 C
HETATM    2  C2  UNL     1     -33.763 -19.399   1.599  1.00  0.00     0.093 C
HETATM    3  C3  UNL     1     -33.455 -20.869   1.377  1.00  0.00     0.273 C
HETATM    4  O2  UNL     1     -33.284 -21.315   2.683  1.00  0.00    -0.349 OA
HETATM    5  C4  UNL     1     -32.634 -20.340   3.390  1.00  0.00     0.197 C
HETATM    6  C15 UNL     1     -32.848 -19.021   2.674  1.00  0.00     0.204 C
HETATM    7  O10 UNL     1     -31.671 -18.461   2.434  1.00  0.00    -0.342 OA
HETATM    8  C16 UNL     1     -31.152 -18.302   1.209  1.00  0.00     0.180 C
HETATM    9  C18 UNL     1     -31.774 -17.085   0.552  1.00  0.00     0.180 C
HETATM   10  C19 UNL     1     -33.264 -17.198   0.449  1.00  0.00     0.179 C
HETATM   11  C20 UNL     1     -33.772 -18.605   0.357  1.00  0.00     0.168 C
ENDROOT
BRANCH   5  12
HETATM   12  C5  UNL     1     -33.049 -20.281   4.843  1.00  0.00     0.111 C
BRANCH  12  13
HETATM   13  S1  UNL     1     -31.566 -20.468   5.859  1.00  0.00    -0.166 SA
BRANCH  13  14
HETATM   14  C6  UNL     1     -30.075 -20.144   4.877  1.00  0.00     0.076 C
BRANCH  14  15
HETATM   15  C7  UNL     1     -28.823 -20.320   5.707  1.00  0.00     0.044 C
BRANCH  15  16
HETATM   16  C8  UNL     1     -28.304 -19.008   6.237  1.00  0.00     0.150 C
BRANCH  16  17
HETATM   17  O3  UNL     1     -28.927 -17.901   5.674  1.00  0.00    -0.393 OA
ATOM     18  H3  UNL     1     -29.847 -18.043   5.482  1.00  0.00     0.210 HD
ENDBRANCH  16  17
BRANCH  16  19
HETATM   19  C9  UNL     1     -26.841 -18.897   5.923  1.00  0.00     0.182 C
HETATM   20  O4  UNL     1     -26.104 -18.891   7.099  1.00  0.00    -0.370 OA
HETATM   21  C10 UNL     1     -24.758 -19.157   6.877  1.00  0.00     0.177 C
HETATM   22  C12 UNL     1     -24.247 -18.597   5.592  1.00  0.00     0.180 C
HETATM   23  C13 UNL     1     -25.064 -17.465   5.052  1.00  0.00     0.180 C
HETATM   24  C14 UNL     1     -26.537 -17.612   5.187  1.00  0.00     0.180 C
BRANCH  21  25
HETATM   25  C11 UNL     1     -23.898 -18.753   8.042  1.00  0.00     0.198 C
BRANCH  25  26
HETATM   26  O5  UNL     1     -24.623 -18.613   9.216  1.00  0.00    -0.398 OA
ATOM     27  H5  UNL     1     -24.190 -19.009   9.962  1.00  0.00     0.209 HD
ENDBRANCH  25  26
ENDBRANCH  21  25
BRANCH  22  28
HETATM   28  O6  UNL     1     -24.027 -19.595   4.614  1.00  0.00    -0.390 OA
ATOM     29  H6  UNL     1     -23.867 -20.450   4.995  1.00  0.00     0.210 HD
ENDBRANCH  22  28
BRANCH  23  30
HETATM   30  O7  UNL     1     -24.741 -17.371   3.676  1.00  0.00    -0.390 OA
ATOM     31  H7  UNL     1     -25.520 -17.645   3.205  1.00  0.00     0.210 HD
ENDBRANCH  23  30
BRANCH  24  32
HETATM   32  O8  UNL     1     -27.031 -16.536   5.943  1.00  0.00    -0.390 OA
ATOM     33  H8  UNL     1     -27.939 -16.391   5.706  1.00  0.00     0.210 HD
ENDBRANCH  24  32
ENDBRANCH  16  19
ENDBRANCH  15  16
ENDBRANCH  14  15
ENDBRANCH  13  14
ENDBRANCH  12  13
ENDBRANCH   5  12
BRANCH   6  34
HETATM   34  O9  UNL     1     -33.542 -18.206   3.603  1.00  0.00    -0.362 OA
ATOM     35  H9  UNL     1     -33.100 -18.251   4.443  1.00  0.00     0.213 HD
ENDBRANCH   6  34
BRANCH   3  36
HETATM   36  O1  UNL     1     -34.533 -21.514   0.768  1.00  0.00    -0.370 OA
ATOM     37  H1  UNL     1     -35.117 -21.880   1.421  1.00  0.00     0.212 HD
ENDBRANCH   3  36
BRANCH  11  38
HETATM   38  O14 UNL     1     -35.072 -18.527  -0.147  1.00  0.00    -0.392 OA
ATOM     39  H14 UNL     1     -35.157 -17.762  -0.705  1.00  0.00     0.210 HD
ENDBRANCH  11  38
BRANCH   8  40
HETATM   40  C17 UNL     1     -29.662 -17.950   1.376  1.00  0.00     0.198 C
BRANCH  40  41
HETATM   41  O11 UNL     1     -29.423 -17.431   2.645  1.00  0.00    -0.398 OA
ATOM     42  H11 UNL     1     -30.191 -17.529   3.196  1.00  0.00     0.209 HD
ENDBRANCH  40  41
ENDBRANCH   8  40
BRANCH  10  43
HETATM   43  O13 UNL     1     -33.951 -16.427   1.383  1.00  0.00    -0.390 OA
ATOM     44  H13 UNL     1     -34.850 -16.240   1.139  1.00  0.00     0.210 HD
ENDBRANCH  10  43
BRANCH   9  45
HETATM   45  O12 UNL     1     -31.460 -15.915   1.192  1.00  0.00    -0.390 OA
ATOM     46  H12 UNL     1     -32.197 -15.319   1.255  1.00  0.00     0.210 HD
ENDBRANCH   9  45
TORSDOF 19
ENDMDL