MODEL 1
REMARK VINA RESULT: -7.992088240      0.000      0.000
REMARK  16 active torsions:
REMARK  status: ('A' for Active; 'I' for Inactive)
REMARK    1  A    between atoms: N1_1  and  C1_5
REMARK    2  A    between atoms: C2_7  and  S1_8
REMARK    3  A    between atoms: S1_8  and  S2_9
REMARK    4  A    between atoms: S2_9  and  C3_10
REMARK    5  A    between atoms: C3_10  and  C4_11
REMARK    6  A    between atoms: C5_15  and  O2_16
REMARK    7  A    between atoms: O2_16  and  C6_17
REMARK    8  A    between atoms: C8_19  and  O3_20
REMARK    9  A    between atoms: C8_19  and  C9_22
REMARK   10  A    between atoms: C9_22  and  O4_23
REMARK   11  A    between atoms: C10_25  and  O5_26
REMARK   12  A    between atoms: C11_28  and  C12_29
REMARK   13  A    between atoms: C12_29  and  O6_30
REMARK   14  A    between atoms: C16_40  and  O9_41
REMARK   15  A    between atoms: C17_43  and  N4_44
REMARK   16  A    between atoms: C18_48  and  O10_49
ROOT
HETATM    1  C4  UNL     1     -29.379 -19.909   4.677  1.00  0.00     0.334 C
HETATM    2  N2  UNL     1     -29.868 -18.784   3.921  1.00  0.00    -0.020 N
ATOM      3  H21 UNL     1     -29.151 -18.323   3.360  1.00  0.00     0.283 HD
ATOM      4  H22 UNL     1     -30.108 -17.976   4.494  1.00  0.00     0.283 HD
HETATM    5  C5  UNL     1     -30.996 -19.307   3.129  1.00  0.00     0.359 C
HETATM    6  C13 UNL     1     -32.133 -19.494   4.083  1.00  0.00     0.272 C
HETATM    7  N3  UNL     1     -32.710 -20.839   4.046  1.00  0.00    -0.062 N
ATOM      8  H31 UNL     1     -32.248 -21.602   3.550  1.00  0.00     0.277 HD
ATOM      9  H32 UNL     1     -33.555 -21.040   3.510  1.00  0.00     0.277 HD
HETATM   10  C14 UNL     1     -32.732 -20.783   5.511  1.00  0.00     0.267 C
HETATM   11  C15 UNL     1     -31.571 -19.807   5.451  1.00  0.00     0.184 C
HETATM   12  O8  UNL     1     -30.394 -20.509   5.375  1.00  0.00    -0.349 OA
ENDROOT
BRANCH   1  13
HETATM   13  C3  UNL     1     -28.250 -19.596   5.603  1.00  0.00     0.147 C
BRANCH  13  14
HETATM   14  S2  UNL     1     -27.862 -17.817   5.370  1.00  0.00    -0.091 SA
BRANCH  14  15
HETATM   15  S1  UNL     1     -25.731 -17.574   5.226  1.00  0.00    -0.062 SA
BRANCH  15  16
HETATM   16  C2  UNL     1     -25.000 -18.948   6.188  1.00  0.00     0.227 C
HETATM   17  O1  UNL     1     -24.748 -18.456   7.463  1.00  0.00    -0.338 OA
HETATM   18  C1  UNL     1     -23.811 -19.176   8.161  1.00  0.00     0.350 C
HETATM   19  C18 UNL     1     -22.456 -18.957   7.527  1.00  0.00     0.207 C
HETATM   20  C17 UNL     1     -22.496 -18.932   6.035  1.00  0.00     0.248 C
HETATM   21  C16 UNL     1     -23.787 -19.411   5.453  1.00  0.00     0.191 C
BRANCH  18  22
HETATM   22  N1  UNL     1     -23.749 -18.624   9.507  1.00  0.00    -0.050 N
ATOM     23  H13 UNL     1     -24.323 -17.788   9.620  1.00  0.00     0.277 HD
ATOM     24  H12 UNL     1     -24.222 -19.206  10.197  1.00  0.00     0.277 HD
ATOM     25  H11 UNL     1     -22.766 -18.465   9.728  1.00  0.00     0.277 HD
ENDBRANCH  18  22
BRANCH  19  26
HETATM   26  O10 UNL     1     -21.599 -19.971   8.011  1.00  0.00    -0.389 OA
ATOM     27  H10 UNL     1     -20.827 -19.974   7.458  1.00  0.00     0.210 HD
ENDBRANCH  19  26
BRANCH  20  28
HETATM   28  N4  UNL     1     -21.447 -19.838   5.549  1.00  0.00    -0.070 N
ATOM     29  H43 UNL     1     -20.645 -19.896   6.177  1.00  0.00     0.274 HD
ATOM     30  H42 UNL     1     -21.716 -20.821   5.590  1.00  0.00     0.274 HD
ATOM     31  H41 UNL     1     -21.200 -19.528   4.610  1.00  0.00     0.274 HD
ENDBRANCH  20  28
BRANCH  21  32
HETATM   32  O9  UNL     1     -23.775 -20.821   5.360  1.00  0.00    -0.390 OA
ATOM     33  H9  UNL     1     -22.894 -21.134   5.191  1.00  0.00     0.210 HD
ENDBRANCH  21  32
ENDBRANCH  15  16
ENDBRANCH  14  15
ENDBRANCH  13  14
ENDBRANCH   1  13
BRANCH   5  34
HETATM   34  O2  UNL     1     -31.303 -18.435   2.088  1.00  0.00    -0.327 OA
BRANCH  34  35
HETATM   35  C6  UNL     1     -32.514 -18.848   1.541  1.00  0.00     0.266 C
HETATM   36  C7  UNL     1     -32.322 -19.511   0.212  1.00  0.00     0.103 C
HETATM   37  C8  UNL     1     -32.675 -18.646  -0.966  1.00  0.00     0.111 C
HETATM   38  C10 UNL     1     -32.533 -17.181  -0.714  1.00  0.00     0.185 C
HETATM   39  C11 UNL     1     -32.873 -16.739   0.667  1.00  0.00     0.180 C
HETATM   40  O7  UNL     1     -33.346 -17.734   1.483  1.00  0.00    -0.351 OA
BRANCH  37  41
HETATM   41  O3  UNL     1     -31.749 -18.964  -1.989  1.00  0.00    -0.385 OA
ATOM     42  H3  UNL     1     -32.228 -19.464  -2.640  1.00  0.00     0.210 HD
ENDBRANCH  37  41
BRANCH  37  43
HETATM   43  C9  UNL     1     -34.036 -19.011  -1.538  1.00  0.00     0.204 C
BRANCH  43  44
HETATM   44  O4  UNL     1     -34.834 -19.668  -0.621  1.00  0.00    -0.398 OA
ATOM     45  H4  UNL     1     -35.747 -19.410  -0.684  1.00  0.00     0.209 HD
ENDBRANCH  43  44
ENDBRANCH  37  43
BRANCH  38  46
HETATM   46  O5  UNL     1     -31.223 -16.733  -0.997  1.00  0.00    -0.390 OA
ATOM     47  H5  UNL     1     -30.842 -16.282  -0.252  1.00  0.00     0.210 HD
ENDBRANCH  38  46
BRANCH  39  48
HETATM   48  C12 UNL     1     -33.945 -15.648   0.631  1.00  0.00     0.198 C
BRANCH  48  49
HETATM   49  O6  UNL     1     -33.793 -14.813   1.744  1.00  0.00    -0.398 OA
ATOM     50  H6  UNL     1     -34.567 -14.875   2.291  1.00  0.00     0.209 HD
ENDBRANCH  48  49
ENDBRANCH  39  48
ENDBRANCH  34  35
ENDBRANCH   5  34
TORSDOF 16
ENDMDL