MODEL 3
REMARK VINA RESULT: -6.158880388      1.455      2.369
REMARK  17 active torsions:
REMARK  status: ('A' for Active; 'I' for Inactive)
REMARK    1  A    between atoms: C2_2  and  O1_3
REMARK    2  A    between atoms: C2_2  and  C3_5
REMARK    3  A    between atoms: C3_5  and  C4_6
REMARK    4  A    between atoms: C5_8  and  O3_9
REMARK    5  A    between atoms: O3_9  and  C6_10
REMARK    6  A    between atoms: C7_12  and  O5_13
REMARK    7  A    between atoms: O5_13  and  C8_14
REMARK    8  A    between atoms: C9_16  and  C10_17
REMARK    9  A    between atoms: C10_17  and  N1_18
REMARK   10  A    between atoms: C11_22  and  O7_23
REMARK   11  A    between atoms: C12_25  and  O8_26
REMARK   12  A    between atoms: C13_28  and  N2_29
REMARK   13  A    between atoms: C14_34  and  C15_35
REMARK   14  A    between atoms: C15_35  and  N3_36
REMARK   15  A    between atoms: C17_41  and  O10_42
REMARK   16  A    between atoms: C18_44  and  N6_45
REMARK   17  A    between atoms: C19_49  and  O11_50
ROOT
HETATM    1  C6  UNL     1     -31.984 -17.767  -0.302  1.00  0.00     0.299 C
HETATM    2  O4  UNL     1     -32.619 -16.890   0.556  1.00  0.00    -0.305 OA
HETATM    3  C7  UNL     1     -33.753 -17.564   0.950  1.00  0.00     0.418 C
HETATM    4  O9  UNL     1     -33.307 -18.833   1.261  1.00  0.00    -0.327 OA
HETATM    5  C14 UNL     1     -32.209 -19.073   0.483  1.00  0.00     0.200 C
ENDROOT
BRANCH   1   6
HETATM    6  O3  UNL     1     -32.627 -17.781  -1.514  1.00  0.00    -0.326 OA
BRANCH   6   7
HETATM    7  C5  UNL     1     -31.809 -17.610  -2.597  1.00  0.00     0.295 C
HETATM    8  O2  UNL     1     -31.586 -18.807  -3.192  1.00  0.00    -0.339 OA
HETATM    9  C4  UNL     1     -31.661 -18.856  -4.574  1.00  0.00     0.224 C
HETATM   10  C19 UNL     1     -30.879 -17.690  -5.198  1.00  0.00     0.191 C
HETATM   11  C18 UNL     1     -31.410 -16.388  -4.712  1.00  0.00     0.248 C
HETATM   12  C17 UNL     1     -32.408 -16.575  -3.555  1.00  0.00     0.206 C
BRANCH   9  13
HETATM   13  C3  UNL     1     -32.929 -18.960  -5.203  1.00  0.00    -0.118 C
BRANCH  13  14
HETATM   14  C2  UNL     1     -34.069 -19.055  -5.768  1.00  0.00     0.182 C
HETATM   15  C1  UNL     1     -34.786 -17.732  -6.127  1.00  0.00     0.052 C
BRANCH  14  16
HETATM   16  O1  UNL     1     -34.833 -20.148  -6.140  1.00  0.00    -0.385 OA
ATOM     17  H1  UNL     1     -34.537 -20.935  -5.697  1.00  0.00     0.211 HD
ENDBRANCH  14  16
ENDBRANCH  13  14
ENDBRANCH   9  13
BRANCH  10  18
HETATM   18  O11 UNL     1     -29.503 -17.851  -5.002  1.00  0.00    -0.390 OA
ATOM     19  H11 UNL     1     -29.155 -18.524  -5.576  1.00  0.00     0.210 HD
ENDBRANCH  10  18
BRANCH  11  20
HETATM   20  N6  UNL     1     -31.964 -15.511  -5.681  1.00  0.00    -0.070 N
ATOM     21  H63 UNL     1     -32.958 -15.686  -5.835  1.00  0.00     0.274 HD
ATOM     22  H62 UNL     1     -32.036 -14.554  -5.338  1.00  0.00     0.274 HD
ATOM     23  H61 UNL     1     -31.424 -15.572  -6.544  1.00  0.00     0.274 HD
ENDBRANCH  11  20
BRANCH  12  24
HETATM   24  O10 UNL     1     -32.403 -15.354  -2.881  1.00  0.00    -0.388 OA
ATOM     25  H10 UNL     1     -33.014 -15.438  -2.159  1.00  0.00     0.210 HD
ENDBRANCH  12  24
ENDBRANCH   6   7
ENDBRANCH   1   6
BRANCH   5  26
HETATM   26  C15 UNL     1     -30.991 -19.150   1.427  1.00  0.00     0.159 C
BRANCH  26  27
HETATM   27  N3  UNL     1     -30.135 -18.077   1.061  1.00  0.00    -0.364 N
HETATM   28  C16 UNL     1     -29.340 -17.363   1.718  1.00  0.00     0.197 C
HETATM   29  N4  UNL     1     -28.614 -16.341   0.988  1.00  0.00    -0.067 NA
HETATM   30  N5  UNL     1     -29.093 -17.469   3.100  1.00  0.00    -0.067 NA
ATOM     31  H3  UNL     1     -30.173 -17.842   0.069  1.00  0.00     0.161 HD
ENDBRANCH  26  27
ENDBRANCH   5  26
BRANCH   3  32
HETATM   32  O5  UNL     1     -34.291 -17.004   2.094  1.00  0.00    -0.306 OA
BRANCH  32  33
HETATM   33  C8  UNL     1     -35.226 -16.027   1.790  1.00  0.00     0.298 C
HETATM   34  O6  UNL     1     -35.572 -16.091   0.491  1.00  0.00    -0.349 OA
HETATM   35  C9  UNL     1     -36.289 -15.016  -0.001  1.00  0.00     0.181 C
HETATM   36  C11 UNL     1     -35.279 -13.851  -0.033  1.00  0.00     0.179 C
HETATM   37  C12 UNL     1     -34.948 -13.535   1.397  1.00  0.00     0.184 C
HETATM   38  C13 UNL     1     -34.604 -14.712   2.229  1.00  0.00     0.269 C
BRANCH  35  39
HETATM   39  C10 UNL     1     -36.759 -15.289  -1.423  1.00  0.00     0.264 C
BRANCH  39  40
HETATM   40  N1  UNL     1     -35.916 -16.265  -2.075  1.00  0.00    -0.077 N
ATOM     41  H13 UNL     1     -35.180 -16.599  -1.454  1.00  0.00     0.274 HD
ATOM     42  H12 UNL     1     -36.407 -17.146  -2.223  1.00  0.00     0.274 HD
ATOM     43  H11 UNL     1     -35.533 -15.899  -2.947  1.00  0.00     0.274 HD
ENDBRANCH  39  40
ENDBRANCH  35  39
BRANCH  36  44
HETATM   44  O7  UNL     1     -34.140 -14.292  -0.729  1.00  0.00    -0.390 OA
ATOM     45  H7  UNL     1     -33.692 -13.524  -1.065  1.00  0.00     0.210 HD
ENDBRANCH  36  44
BRANCH  37  46
HETATM   46  O8  UNL     1     -36.003 -12.778   1.917  1.00  0.00    -0.391 OA
ATOM     47  H8  UNL     1     -36.144 -13.061   2.813  1.00  0.00     0.210 HD
ENDBRANCH  37  46
BRANCH  38  48
HETATM   48  N2  UNL     1     -35.128 -14.448   3.579  1.00  0.00    -0.068 N
ATOM     49  H23 UNL     1     -36.024 -14.900   3.764  1.00  0.00     0.275 HD
ATOM     50  H22 UNL     1     -34.602 -14.914   4.319  1.00  0.00     0.275 HD
ATOM     51  H21 UNL     1     -35.155 -13.433   3.675  1.00  0.00     0.275 HD
ENDBRANCH  38  48
ENDBRANCH  32  33
ENDBRANCH   3  32
TORSDOF 17
ENDMDL