MODEL 1
REMARK VINA RESULT: -6.036591232      0.000      0.000
REMARK  16 active torsions:
REMARK  status: ('A' for Active; 'I' for Inactive)
REMARK    1  A    between atoms: C3_4  and  O2_5
REMARK    2  A    between atoms: O2_5  and  C4_6
REMARK    3  A    between atoms: C5_7  and  N1_8
REMARK    4  A    between atoms: C7_13  and  O3_14
REMARK    5  A    between atoms: O3_14  and  C8_15
REMARK    6  A    between atoms: C9_17  and  C10_18
REMARK    7  A    between atoms: C10_18  and  N2_19
REMARK    8  A    between atoms: C11_23  and  O5_24
REMARK    9  A    between atoms: C12_29  and  N4_30
REMARK   10  A    between atoms: C13_34  and  O6_35
REMARK   11  A    between atoms: O6_35  and  C14_36
REMARK   12  A    between atoms: C17_40  and  N5_41
REMARK   13  A    between atoms: C18_45  and  O8_46
REMARK   14  A    between atoms: C19_48  and  N6_49
REMARK   15  A    between atoms: C20_53  and  O9_54
REMARK   16  A    between atoms: C21_56  and  N7_57
ROOT
HETATM    1  C4  UNL     1     -32.190 -19.144  -1.767  1.00  0.00     0.188 C
HETATM    2  C5  UNL     1     -31.472 -20.222  -1.025  1.00  0.00     0.217 C
HETATM    3  C6  UNL     1     -32.333 -20.576   0.201  1.00  0.00     0.070 C
HETATM    4  C7  UNL     1     -32.113 -19.391   1.134  1.00  0.00     0.158 C
HETATM    5  C13 UNL     1     -32.751 -18.215   0.447  1.00  0.00     0.186 C
HETATM    6  C19 UNL     1     -32.104 -17.895  -0.870  1.00  0.00     0.245 C
ENDROOT
BRANCH   4   7
HETATM    7  O3  UNL     1     -32.655 -19.557   2.365  1.00  0.00    -0.349 OA
BRANCH   7   8
HETATM    8  C8  UNL     1     -31.821 -19.210   3.425  1.00  0.00     0.319 C
HETATM    9  O4  UNL     1     -30.533 -19.312   2.940  1.00  0.00    -0.346 OA
HETATM   10  C9  UNL     1     -29.524 -19.362   3.866  1.00  0.00     0.206 C
HETATM   11  C11 UNL     1     -29.764 -20.396   4.940  1.00  0.00     0.352 C
HETATM   12  N3  UNL     1     -30.975 -20.041   5.601  1.00  0.00    -0.013 N
HETATM   13  C12 UNL     1     -32.108 -19.853   4.718  1.00  0.00     0.437 C
ATOM     14  H32 UNL     1     -31.198 -20.725   6.325  1.00  0.00     0.283 HD
ATOM     15  H31 UNL     1     -30.834 -19.213   6.180  1.00  0.00     0.283 HD
BRANCH  10  16
HETATM   16  C10 UNL     1     -29.274 -17.994   4.445  1.00  0.00     0.266 C
BRANCH  16  17
HETATM   17  N2  UNL     1     -27.909 -17.768   4.856  1.00  0.00    -0.077 N
ATOM     18  H23 UNL     1     -27.526 -16.946   4.388  1.00  0.00     0.274 HD
ATOM     19  H22 UNL     1     -27.876 -17.448   5.824  1.00  0.00     0.274 HD
ATOM     20  H21 UNL     1     -27.296 -18.572   4.724  1.00  0.00     0.274 HD
ENDBRANCH  16  17
ENDBRANCH  10  16
BRANCH  11  21
HETATM   21  O5  UNL     1     -28.717 -20.322   5.850  1.00  0.00    -0.368 OA
ATOM     22  H5  UNL     1     -28.888 -19.595   6.438  1.00  0.00     0.212 HD
ENDBRANCH  11  21
BRANCH  13  23
HETATM   23  N4  UNL     1     -33.108 -19.083   5.484  1.00  0.00    -0.045 N
ATOM     24  H43 UNL     1     -32.692 -18.632   6.299  1.00  0.00     0.277 HD
ATOM     25  H42 UNL     1     -33.406 -18.248   4.980  1.00  0.00     0.277 HD
ATOM     26  H41 UNL     1     -33.903 -19.668   5.744  1.00  0.00     0.277 HD
ENDBRANCH  13  23
ENDBRANCH   7   8
ENDBRANCH   4   7
BRANCH   5  27
HETATM   27  O6  UNL     1     -32.930 -17.107   1.220  1.00  0.00    -0.349 OA
BRANCH  27  28
HETATM   28  C14 UNL     1     -34.241 -16.636   1.296  1.00  0.00     0.291 C
HETATM   29  O7  UNL     1     -34.798 -16.916   2.541  1.00  0.00    -0.352 OA
HETATM   30  C15 UNL     1     -35.477 -15.805   2.960  1.00  0.00     0.153 C
HETATM   31  C16 UNL     1     -36.931 -15.969   2.506  1.00  0.00     0.042 C
HETATM   32  C17 UNL     1     -34.825 -14.614   2.355  1.00  0.00     0.245 C
HETATM   33  C18 UNL     1     -34.251 -15.169   1.066  1.00  0.00     0.206 C
BRANCH  32  34
HETATM   34  N5  UNL     1     -35.759 -13.535   2.088  1.00  0.00    -0.070 N
ATOM     35  H53 UNL     1     -35.689 -13.222   1.120  1.00  0.00     0.274 HD
ATOM     36  H52 UNL     1     -36.720 -13.878   2.082  1.00  0.00     0.274 HD
ATOM     37  H51 UNL     1     -35.655 -12.752   2.734  1.00  0.00     0.274 HD
ENDBRANCH  32  34
BRANCH  33  38
HETATM   38  O8  UNL     1     -35.124 -14.868   0.013  1.00  0.00    -0.388 OA
ATOM     39  H8  UNL     1     -35.860 -15.469   0.030  1.00  0.00     0.210 HD
ENDBRANCH  33  38
ENDBRANCH  27  28
ENDBRANCH   5  27
BRANCH   2  40
HETATM   40  N1  UNL     1     -31.199 -21.399  -1.808  1.00  0.00    -0.072 N
ATOM     41  H13 UNL     1     -30.303 -21.310  -2.286  1.00  0.00     0.274 HD
ATOM     42  H12 UNL     1     -30.994 -22.192  -1.200  1.00  0.00     0.274 HD
ATOM     43  H11 UNL     1     -31.936 -21.639  -2.471  1.00  0.00     0.274 HD
ENDBRANCH   2  40
BRANCH   6  44
HETATM   44  N6  UNL     1     -32.815 -16.796  -1.464  1.00  0.00    -0.070 N
ATOM     45  H63 UNL     1     -32.184 -16.144  -1.930  1.00  0.00     0.274 HD
ATOM     46  H62 UNL     1     -33.357 -17.090  -2.277  1.00  0.00     0.274 HD
ATOM     47  H61 UNL     1     -33.398 -16.329  -0.769  1.00  0.00     0.274 HD
ENDBRANCH   6  44
BRANCH   1  48
HETATM   48  O2  UNL     1     -31.569 -18.948  -2.977  1.00  0.00    -0.349 OA
BRANCH  48  49
HETATM   49  C3  UNL     1     -32.389 -18.988  -4.068  1.00  0.00     0.291 C
HETATM   50  O1  UNL     1     -33.703 -18.986  -3.677  1.00  0.00    -0.352 OA
HETATM   51  C2  UNL     1     -34.409 -18.044  -4.370  1.00  0.00     0.153 C
HETATM   52  C1  UNL     1     -35.832 -18.448  -4.684  1.00  0.00     0.042 C
HETATM   53  C21 UNL     1     -33.613 -17.773  -5.633  1.00  0.00     0.245 C
HETATM   54  C20 UNL     1     -32.199 -17.837  -5.030  1.00  0.00     0.206 C
BRANCH  53  55
HETATM   55  N7  UNL     1     -33.792 -16.447  -6.140  1.00  0.00    -0.070 N
ATOM     56  H73 UNL     1     -34.780 -16.253  -6.307  1.00  0.00     0.274 HD
ATOM     57  H72 UNL     1     -33.604 -15.753  -5.416  1.00  0.00     0.274 HD
ATOM     58  H71 UNL     1     -33.240 -16.257  -6.977  1.00  0.00     0.274 HD
ENDBRANCH  53  55
BRANCH  54  59
HETATM   59  O9  UNL     1     -32.025 -16.618  -4.385  1.00  0.00    -0.388 OA
ATOM     60  H9  UNL     1     -31.251 -16.152  -4.680  1.00  0.00     0.210 HD
ENDBRANCH  54  59
ENDBRANCH  48  49
ENDBRANCH   1  48
TORSDOF 16
ENDMDL