MODEL 5
REMARK VINA RESULT: -6.450684121      4.227      5.336
REMARK  15 active torsions:
REMARK  status: ('A' for Active; 'I' for Inactive)
REMARK    1  A    between atoms: N1_2  and  C2_4
REMARK    2  A    between atoms: C3_5  and  O1_6
REMARK    3  A    between atoms: C6_11  and  O3_12
REMARK    4  A    between atoms: O3_12  and  C7_13
REMARK    5  A    between atoms: C8_14  and  N2_15
REMARK    6  A    between atoms: C10_20  and  N3_21
REMARK    7  A    between atoms: C11_25  and  O4_26
REMARK    8  A    between atoms: O4_26  and  C12_27
REMARK    9  A    between atoms: C13_28  and  N4_29
REMARK   10  A    between atoms: C15_37  and  O5_38
REMARK   11  A    between atoms: O5_38  and  C16_39
REMARK   12  A    between atoms: C17_42  and  C18_43
REMARK   13  A    between atoms: C18_43  and  O8_44
REMARK   14  A    between atoms: C19_47  and  O10_48
REMARK   15  A    between atoms: C20_50  and  O11_51
ROOT
HETATM    1  C7  UNL     1     -32.518 -16.531  -3.790  1.00  0.00     0.186 C
HETATM    2  C8  UNL     1     -32.456 -17.843  -4.488  1.00  0.00     0.217 C
HETATM    3  C9  UNL     1     -33.779 -18.562  -4.333  1.00  0.00     0.071 C
HETATM    4  C10 UNL     1     -34.314 -18.506  -2.935  1.00  0.00     0.217 C
HETATM    5  C11 UNL     1     -33.156 -18.181  -2.002  1.00  0.00     0.183 C
HETATM    6  C19 UNL     1     -32.639 -16.788  -2.292  1.00  0.00     0.180 C
ENDROOT
BRANCH   5   7
HETATM    7  O4  UNL     1     -33.529 -18.257  -0.677  1.00  0.00    -0.369 OA
BRANCH   7   8
HETATM    8  C12 UNL     1     -33.842 -19.543  -0.349  1.00  0.00     0.210 C
HETATM    9  C13 UNL     1     -35.051 -19.669   0.547  1.00  0.00     0.242 C
HETATM   10  C14 UNL     1     -34.870 -21.088   1.071  1.00  0.00     0.271 C
HETATM   11  N5  UNL     1     -33.488 -21.415   0.927  1.00  0.00    -0.044 N
HETATM   12  C15 UNL     1     -32.785 -20.226   0.496  1.00  0.00     0.356 C
ATOM     13  H52 UNL     1     -33.090 -21.822   1.773  1.00  0.00     0.280 HD
ATOM     14  H51 UNL     1     -33.333 -22.210   0.307  1.00  0.00     0.280 HD
BRANCH   9  15
HETATM   15  N4  UNL     1     -34.951 -18.776   1.670  1.00  0.00    -0.071 N
ATOM     16  H43 UNL     1     -33.987 -18.493   1.842  1.00  0.00     0.274 HD
ATOM     17  H42 UNL     1     -35.346 -17.859   1.459  1.00  0.00     0.274 HD
ATOM     18  H41 UNL     1     -35.378 -19.189   2.500  1.00  0.00     0.274 HD
ENDBRANCH   9  15
BRANCH  12  19
HETATM   19  O5  UNL     1     -32.513 -19.466   1.643  1.00  0.00    -0.301 OA
BRANCH  19  20
HETATM   20  C16 UNL     1     -31.203 -19.621   2.035  1.00  0.00     0.451 C
HETATM   21  O6  UNL     1     -30.445 -19.879   0.892  1.00  0.00    -0.177 OA
HETATM   22  O7  UNL     1     -30.026 -18.735   0.433  1.00  0.00    -0.201 OA
HETATM   23  C17 UNL     1     -30.456 -17.734   1.286  1.00  0.00     0.325 C
HETATM   24  O9  UNL     1     -30.626 -18.422   2.484  1.00  0.00    -0.301 OA
BRANCH  23  25
HETATM   25  C18 UNL     1     -29.430 -16.628   1.427  1.00  0.00     0.228 C
BRANCH  25  26
HETATM   26  O8  UNL     1     -29.180 -16.073   0.187  1.00  0.00    -0.396 OA
ATOM     27  H8  UNL     1     -29.334 -15.136   0.224  1.00  0.00     0.209 HD
ENDBRANCH  25  26
ENDBRANCH  23  25
ENDBRANCH  19  20
ENDBRANCH  12  19
ENDBRANCH   7   8
ENDBRANCH   5   7
BRANCH   4  28
HETATM   28  N3  UNL     1     -35.429 -17.628  -2.749  1.00  0.00    -0.072 N
ATOM     29  H33 UNL     1     -35.192 -16.687  -3.063  1.00  0.00     0.274 HD
ATOM     30  H32 UNL     1     -36.171 -17.855  -3.410  1.00  0.00     0.274 HD
ATOM     31  H31 UNL     1     -35.801 -17.598  -1.799  1.00  0.00     0.274 HD
ENDBRANCH   4  28
BRANCH   6  32
HETATM   32  O10 UNL     1     -31.412 -16.654  -1.683  1.00  0.00    -0.390 OA
ATOM     33  H10 UNL     1     -31.376 -17.180  -0.893  1.00  0.00     0.210 HD
ENDBRANCH   6  32
BRANCH   1  34
HETATM   34  O3  UNL     1     -33.558 -15.721  -4.141  1.00  0.00    -0.349 OA
BRANCH  34  35
HETATM   35  C6  UNL     1     -33.166 -14.554  -4.847  1.00  0.00     0.291 C
HETATM   36  O2  UNL     1     -31.907 -14.643  -5.325  1.00  0.00    -0.351 OA
HETATM   37  C4  UNL     1     -30.955 -13.761  -4.965  1.00  0.00     0.151 C
HETATM   38  C3  UNL     1     -31.377 -12.385  -4.564  1.00  0.00     0.172 C
HETATM   39  C5  UNL     1     -29.956 -13.681  -6.139  1.00  0.00     0.042 C
HETATM   40  C2  UNL     1     -32.831 -12.137  -4.662  1.00  0.00     0.144 C
HETATM   41  C20 UNL     1     -33.537 -13.336  -4.070  1.00  0.00     0.198 C
BRANCH  38  42
HETATM   42  O1  UNL     1     -30.594 -11.386  -5.158  1.00  0.00    -0.391 OA
ATOM     43  H1  UNL     1     -30.199 -11.649  -5.980  1.00  0.00     0.210 HD
ENDBRANCH  38  42
BRANCH  40  44
HETATM   44  N1  UNL     1     -33.403 -11.683  -5.817  1.00  0.00    -0.398 N
HETATM   45  C1  UNL     1     -34.719 -11.515  -6.139  1.00  0.00     0.112 C
ATOM     46  H1  UNL     1     -32.744 -11.430  -6.553  1.00  0.00     0.158 HD
ENDBRANCH  40  44
BRANCH  41  47
HETATM   47  O11 UNL     1     -33.154 -13.432  -2.715  1.00  0.00    -0.388 OA
ATOM     48  H11 UNL     1     -33.632 -12.768  -2.233  1.00  0.00     0.210 HD
ENDBRANCH  41  47
ENDBRANCH  34  35
ENDBRANCH   1  34
BRANCH   2  49
HETATM   49  N2  UNL     1     -32.160 -17.766  -5.886  1.00  0.00    -0.072 N
ATOM     50  H23 UNL     1     -31.941 -18.693  -6.252  1.00  0.00     0.274 HD
ATOM     51  H22 UNL     1     -33.008 -17.562  -6.416  1.00  0.00     0.274 HD
ATOM     52  H21 UNL     1     -31.422 -17.106  -6.131  1.00  0.00     0.274 HD
ENDBRANCH   2  49
TORSDOF 15
ENDMDL