MODEL 4
REMARK VINA RESULT: -8.037648560      2.927      3.591
REMARK  13 active torsions:
REMARK  status: ('A' for Active; 'I' for Inactive)
REMARK       I    between atoms: C1_4  and  N3_6
REMARK    1  A    between atoms: C4_10  and  C5_11
REMARK    2  A    between atoms: C5_11  and  O1_12
REMARK    3  A    between atoms: C5_11  and  N4_14
REMARK    4  A    between atoms: N4_14  and  O2_15
REMARK    5  A    between atoms: C6_19  and  C7_20
REMARK    6  A    between atoms: C7_20  and  C8_21
REMARK    7  A    between atoms: C7_20  and  C10_26
REMARK    8  A    between atoms: C8_21  and  C9_23
REMARK    9  A    between atoms: C9_23  and  O4_24
REMARK       I    between atoms: C10_26  and  N6_28
REMARK   10  A    between atoms: N6_28  and  N7_30
REMARK   11  A    between atoms: N7_30  and  C11_32
REMARK   12  A    between atoms: C14_39  and  S1_40
REMARK   13  A    between atoms: S1_40  and  N10_41
ROOT
HETATM    1  C7  UNL     1     -29.710 -18.087   1.668  1.00  0.00     0.218 C
ENDROOT
BRANCH   1   2
HETATM    2  C6  UNL     1     -29.902 -18.630   3.006  1.00  0.00     0.104 A
HETATM    3  N5  UNL     1     -31.059 -19.129   3.473  1.00  0.00    -0.345 N
HETATM    4  C4  UNL     1     -31.172 -19.601   4.722  1.00  0.00     0.061 A
ATOM      5  H5  UNL     1     -31.874 -19.150   2.859  1.00  0.00     0.167 HD
HETATM    6  C3  UNL     1     -30.093 -19.589   5.582  1.00  0.00     0.077 A
HETATM    7  C2  UNL     1     -28.910 -19.082   5.113  1.00  0.00     0.110 A
HETATM    8  N3  UNL     1     -27.898 -19.075   5.930  1.00  0.00    -0.317 N
HETATM    9  N14 UNL     1     -28.856 -18.630   3.872  1.00  0.00    -0.331 N
HETATM   10  C1  UNL     1     -26.684 -18.544   5.420  1.00  0.00     0.187 C
ATOM     11  H3  UNL     1     -27.971 -19.432   6.883  1.00  0.00     0.170 HD
HETATM   12  N1  UNL     1     -26.660 -17.291   5.109  1.00  0.00    -0.373 N
HETATM   13  N2  UNL     1     -25.537 -19.334   5.253  1.00  0.00    -0.064 NA
ATOM     14  H12 UNL     1     -25.788 -16.909   4.743  1.00  0.00     0.158 HD
ATOM     15  H11 UNL     1     -27.494 -16.716   5.231  1.00  0.00     0.158 HD
ATOM     16  H14 UNL     1     -27.967 -18.254   3.541  1.00  0.00     0.168 HD
BRANCH   4  17
HETATM   17  C5  UNL     1     -32.485 -20.123   5.189  1.00  0.00     0.288 C
BRANCH  17  18
HETATM   18  O1  UNL     1     -33.482 -19.186   5.028  1.00  0.00    -0.372 OA
ATOM     19  H1  UNL     1     -34.136 -19.257   5.713  1.00  0.00     0.212 HD
ENDBRANCH  17  18
BRANCH  17  20
HETATM   20  N4  UNL     1     -32.732 -21.384   4.546  1.00  0.00    -0.065 NA
BRANCH  20  21
HETATM   21  O2  UNL     1     -33.106 -21.207   3.241  1.00  0.00    -0.293 OA
ATOM     22  H2  UNL     1     -33.808 -20.572   3.170  1.00  0.00     0.238 HD
ENDBRANCH  20  21
ENDBRANCH  17  20
ENDBRANCH   4  17
ENDBRANCH   1   2
BRANCH   1  23
HETATM   23  C8  UNL     1     -29.076 -16.740   1.661  1.00  0.00     0.170 C
HETATM   24  O3  UNL     1     -29.732 -15.821   2.117  1.00  0.00    -0.294 OA
BRANCH  23  25
HETATM   25  C9  UNL     1     -27.729 -16.491   1.138  1.00  0.00     0.243 C
BRANCH  25  26
HETATM   26  O4  UNL     1     -26.731 -17.092   1.908  1.00  0.00    -0.394 OA
ATOM     27  H4  UNL     1     -25.928 -17.232   1.423  1.00  0.00     0.209 HD
ENDBRANCH  25  26
ENDBRANCH  23  25
ENDBRANCH   1  23
BRANCH   1  28
HETATM   28  C10 UNL     1     -30.935 -18.113   0.835  1.00  0.00     0.255 C
HETATM   29  O5  UNL     1     -31.364 -19.233   0.366  1.00  0.00    -0.270 OA
HETATM   30  N6  UNL     1     -31.705 -16.966   0.497  1.00  0.00    -0.255 N
ATOM     31  H6  UNL     1     -31.436 -16.044   0.837  1.00  0.00     0.190 HD
BRANCH  30  32
HETATM   32  N7  UNL     1     -32.827 -17.121  -0.300  1.00  0.00    -0.127 N
ATOM     33  H7  UNL     1     -32.660 -17.356  -1.279  1.00  0.00     0.205 HD
BRANCH  32  34
HETATM   34  C11 UNL     1     -34.047 -17.001   0.055  1.00  0.00     0.722 A
HETATM   35  N8  UNL     1     -34.827 -16.083  -0.571  1.00  0.00    -0.184 N
HETATM   36  C12 UNL     1     -36.117 -15.909  -0.237  1.00  0.00     0.200 A
ATOM     37  H8  UNL     1     -34.424 -15.512  -1.313  1.00  0.00     0.185 HD
HETATM   38  N9  UNL     1     -36.680 -16.643   0.736  1.00  0.00    -0.334 N
HETATM   39  C13 UNL     1     -35.918 -17.553   1.361  1.00  0.00     0.189 A
ATOM     40  H9  UNL     1     -37.659 -16.513   0.992  1.00  0.00     0.168 HD
HETATM   41  C14 UNL     1     -36.247 -18.423   2.378  1.00  0.00     0.211 A
HETATM   42  N13 UNL     1     -34.607 -17.737   1.028  1.00  0.00    -0.051 N
HETATM   43  N11 UNL     1     -35.132 -19.112   2.635  1.00  0.00    -0.270 N
HETATM   44  N12 UNL     1     -34.172 -18.687   1.823  1.00  0.00    -0.219 N
ATOM     45  H11 UNL     1     -35.034 -19.844   3.339  1.00  0.00     0.189 HD
ATOM     46  H12 UNL     1     -33.219 -19.052   1.817  1.00  0.00     0.209 HD
BRANCH  41  47
HETATM   47  S1  UNL     1     -37.782 -18.598   3.178  1.00  0.00     0.277 S
HETATM   48  O6  UNL     1     -38.731 -19.453   2.394  1.00  0.00    -0.199 OA
HETATM   49  O7  UNL     1     -38.407 -17.247   3.416  1.00  0.00    -0.199 OA
BRANCH  47  50
HETATM   50  N10 UNL     1     -37.491 -19.341   4.735  1.00  0.00    -0.323 N
ATOM     51 2H10 UNL     1     -37.443 -20.344   4.910  1.00  0.00     0.169 HD
ATOM     52 1H10 UNL     1     -37.382 -18.593   5.421  1.00  0.00     0.169 HD
ENDBRANCH  47  50
ENDBRANCH  41  47
ENDBRANCH  32  34
ENDBRANCH  30  32
ENDBRANCH   1  28
TORSDOF 13
ENDMDL