MODEL 5
REMARK VINA RESULT: -5.265178167      4.274      5.534
REMARK  18 active torsions:
REMARK  status: ('A' for Active; 'I' for Inactive)
REMARK    1  A    between atoms: O1_2  and  C2_3
REMARK    2  A    between atoms: C3_4  and  S1_5
REMARK    3  A    between atoms: C5_8  and  O3_9
REMARK    4  A    between atoms: O3_9  and  C6_10
REMARK    5  A    between atoms: C7_12  and  C8_13
REMARK    6  A    between atoms: C8_13  and  O5_14
REMARK    7  A    between atoms: C9_16  and  N1_17
REMARK    8  A    between atoms: C10_21  and  O6_22
REMARK    9  A    between atoms: O6_22  and  C11_23
REMARK   10  A    between atoms: C12_25  and  O8_26
REMARK   11  A    between atoms: C13_28  and  N2_29
REMARK   12  A    between atoms: C14_33  and  O9_34
REMARK   13  A    between atoms: C15_36  and  C16_37
REMARK   14  A    between atoms: C16_37  and  N3_38
REMARK   15  A    between atoms: N3_38  and  C17_40
REMARK   16  A    between atoms: C17_40  and  N4_42
REMARK   17  A    between atoms: N4_42  and  N5_44
REMARK   18  A    between atoms: C18_47  and  O10_48
ROOT
HETATM    1  C6  UNL     1     -34.090 -15.382  -2.150  1.00  0.00     0.298 C
HETATM    2  O4  UNL     1     -34.181 -16.239  -3.270  1.00  0.00    -0.347 OA
HETATM    3  C7  UNL     1     -33.660 -15.761  -4.428  1.00  0.00     0.181 C
HETATM    4  C9  UNL     1     -34.074 -14.368  -4.782  1.00  0.00     0.247 C
HETATM    5  C10 UNL     1     -33.831 -13.391  -3.642  1.00  0.00     0.193 C
HETATM    6  C15 UNL     1     -34.568 -14.025  -2.469  1.00  0.00     0.021 C
ENDROOT
BRANCH   5   7
HETATM    7  O6  UNL     1     -32.509 -13.139  -3.433  1.00  0.00    -0.346 OA
BRANCH   7   8
HETATM    8  C11 UNL     1     -32.085 -11.865  -3.659  1.00  0.00     0.294 C
HETATM    9  O7  UNL     1     -31.086 -11.413  -2.824  1.00  0.00    -0.327 OA
HETATM   10  C12 UNL     1     -30.847 -10.142  -3.364  1.00  0.00     0.293 C
HETATM   11  C13 UNL     1     -30.637 -10.456  -4.829  1.00  0.00     0.271 C
HETATM   12  C14 UNL     1     -31.535 -11.650  -5.058  1.00  0.00     0.208 C
BRANCH  10  13
HETATM   13  O8  UNL     1     -31.995  -9.386  -3.156  1.00  0.00    -0.369 OA
ATOM     14  H8  UNL     1     -31.865  -8.553  -3.594  1.00  0.00     0.212 HD
ENDBRANCH  10  13
BRANCH  11  15
HETATM   15  N2  UNL     1     -31.026  -9.333  -5.662  1.00  0.00    -0.068 N
ATOM     16  H23 UNL     1     -30.416  -8.529  -5.517  1.00  0.00     0.275 HD
ATOM     17  H22 UNL     1     -30.823  -9.507  -6.646  1.00  0.00     0.275 HD
ATOM     18  H21 UNL     1     -32.007  -9.093  -5.516  1.00  0.00     0.275 HD
ENDBRANCH  11  15
BRANCH  12  19
HETATM   19  O9  UNL     1     -30.720 -12.693  -5.474  1.00  0.00    -0.388 OA
ATOM     20  H9  UNL     1     -31.172 -13.528  -5.474  1.00  0.00     0.210 HD
ENDBRANCH  12  19
ENDBRANCH   7   8
ENDBRANCH   5   7
BRANCH   4  21
HETATM   21  N1  UNL     1     -33.575 -13.929  -6.034  1.00  0.00    -0.070 N
ATOM     22  H13 UNL     1     -33.947 -13.007  -6.267  1.00  0.00     0.274 HD
ATOM     23  H12 UNL     1     -32.583 -13.701  -5.968  1.00  0.00     0.274 HD
ATOM     24  H11 UNL     1     -33.743 -14.588  -6.794  1.00  0.00     0.274 HD
ENDBRANCH   4  21
BRANCH   6  25
HETATM   25  C16 UNL     1     -34.872 -13.111  -1.352  1.00  0.00     0.101 C
BRANCH  25  26
HETATM   26  N3  UNL     1     -34.970 -13.613  -0.054  1.00  0.00    -0.342 N
ATOM     27  H3  UNL     1     -34.880 -14.620   0.082  1.00  0.00     0.167 HD
BRANCH  26  28
HETATM   28  C17 UNL     1     -35.187 -12.804   1.077  1.00  0.00     0.190 C
HETATM   29  S2  UNL     1     -35.768 -11.259   0.902  1.00  0.00    -0.039 SA
BRANCH  28  30
HETATM   30  N4  UNL     1     -34.943 -13.206   2.391  1.00  0.00    -0.283 N
ATOM     31  H4  UNL     1     -34.480 -12.523   2.991  1.00  0.00     0.188 HD
BRANCH  30  32
HETATM   32  N5  UNL     1     -35.258 -14.430   2.982  1.00  0.00    -0.343 N
ATOM     33  H52 UNL     1     -35.220 -15.233   2.354  1.00  0.00     0.176 HD
ATOM     34  H51 UNL     1     -35.517 -14.607   3.953  1.00  0.00     0.176 HD
ENDBRANCH  30  32
ENDBRANCH  28  30
ENDBRANCH  26  28
ENDBRANCH  25  26
ENDBRANCH   6  25
BRANCH   3  35
HETATM   35  C8  UNL     1     -32.177 -16.026  -4.586  1.00  0.00     0.198 C
BRANCH  35  36
HETATM   36  O5  UNL     1     -31.872 -16.310  -5.892  1.00  0.00    -0.398 OA
ATOM     37  H5  UNL     1     -32.614 -16.711  -6.330  1.00  0.00     0.209 HD
ENDBRANCH  35  36
ENDBRANCH   3  35
BRANCH   1  38
HETATM   38  O3  UNL     1     -32.832 -15.541  -1.611  1.00  0.00    -0.325 OA
BRANCH  38  39
HETATM   39  C5  UNL     1     -32.798 -16.663  -0.846  1.00  0.00     0.296 C
HETATM   40  O2  UNL     1     -31.491 -16.946  -0.379  1.00  0.00    -0.340 OA
HETATM   41  C3  UNL     1     -31.720 -18.158   0.294  1.00  0.00     0.217 C
HETATM   42  C2  UNL     1     -33.024 -18.011   1.014  1.00  0.00     0.193 C
HETATM   43  C18 UNL     1     -33.534 -16.678   0.442  1.00  0.00     0.205 C
BRANCH  41  44
HETATM   44  S1  UNL     1     -30.355 -18.578   1.402  1.00  0.00    -0.139 SA
HETATM   45  C4  UNL     1     -29.287 -17.145   1.612  1.00  0.00     0.092 C
ENDBRANCH  41  44
BRANCH  42  46
HETATM   46  O1  UNL     1     -32.932 -17.995   2.378  1.00  0.00    -0.385 OA
HETATM   47  C1  UNL     1     -33.913 -18.887   2.871  1.00  0.00     0.202 C
ENDBRANCH  42  46
BRANCH  43  48
HETATM   48  O10 UNL     1     -33.125 -15.700   1.328  1.00  0.00    -0.388 OA
ATOM     49  H10 UNL     1     -33.911 -15.396   1.766  1.00  0.00     0.210 HD
ENDBRANCH  43  48
ENDBRANCH  38  39
ENDBRANCH   1  38
TORSDOF 18
ENDMDL