MODEL 4
REMARK VINA RESULT: -6.934769407      2.163      6.893
REMARK  16 active torsions:
REMARK  status: ('A' for Active; 'I' for Inactive)
REMARK    1  A    between atoms: N1_1  and  C1_5
REMARK    2  A    between atoms: C1_5  and  C2_6
REMARK    3  A    between atoms: C3_8  and  O2_9
REMARK    4  A    between atoms: O2_9  and  C4_10
REMARK    5  A    between atoms: C5_11  and  O3_12
REMARK    6  A    between atoms: C6_14  and  N2_15
REMARK    7  A    between atoms: N2_15  and  O4_16
REMARK    8  A    between atoms: O4_16  and  C7_17
REMARK    9  A    between atoms: C10_25  and  C11_26
REMARK   10  A    between atoms: C11_26  and  O7_27
REMARK   11  A    between atoms: C12_29  and  O8_30
REMARK   12  A    between atoms: O8_30  and  C13_31
REMARK   13  A    between atoms: C17_38  and  N5_39
REMARK   14  A    between atoms: C18_43  and  O9_44
REMARK   15  A    between atoms: C19_46  and  O10_47
REMARK   16  A    between atoms: C20_49  and  O11_50
ROOT
HETATM    1  C4  UNL     1     -32.553 -19.795   0.545  1.00  0.00     0.189 C
HETATM    2  C5  UNL     1     -31.250 -19.005   0.779  1.00  0.00     0.196 C
HETATM    3  C6  UNL     1     -31.044 -18.865   2.291  1.00  0.00     0.273 C
HETATM    4  O6  UNL     1     -31.537 -20.036   2.852  1.00  0.00    -0.355 OA
HETATM    5  C10 UNL     1     -32.927 -19.955   2.922  1.00  0.00     0.179 C
HETATM    6  C12 UNL     1     -33.493 -19.329   1.637  1.00  0.00     0.184 C
ENDROOT
BRANCH   1   7
HETATM    7  O2  UNL     1     -33.008 -19.559  -0.684  1.00  0.00    -0.348 OA
BRANCH   7   8
HETATM    8  C3  UNL     1     -32.413 -18.574  -1.442  1.00  0.00     0.292 C
HETATM    9  O1  UNL     1     -31.651 -19.018  -2.492  1.00  0.00    -0.349 OA
HETATM   10  C2  UNL     1     -32.090 -18.670  -3.742  1.00  0.00     0.181 C
HETATM   11  C20 UNL     1     -32.271 -17.192  -3.944  1.00  0.00     0.180 C
HETATM   12  C19 UNL     1     -32.498 -16.462  -2.636  1.00  0.00     0.183 C
HETATM   13  C18 UNL     1     -33.311 -17.421  -1.769  1.00  0.00     0.204 C
BRANCH  10  14
HETATM   14  C1  UNL     1     -31.085 -19.197  -4.746  1.00  0.00     0.264 C
BRANCH  14  15
HETATM   15  N1  UNL     1     -31.567 -19.149  -6.102  1.00  0.00    -0.077 N
ATOM     16  H13 UNL     1     -31.003 -19.742  -6.711  1.00  0.00     0.274 HD
ATOM     17  H12 UNL     1     -32.464 -19.629  -6.188  1.00  0.00     0.274 HD
ATOM     18  H11 UNL     1     -31.626 -18.199  -6.470  1.00  0.00     0.274 HD
ENDBRANCH  14  15
ENDBRANCH  10  14
BRANCH  11  19
HETATM   19  O11 UNL     1     -31.197 -16.588  -4.577  1.00  0.00    -0.390 OA
ATOM     20  H11 UNL     1     -31.444 -15.842  -5.110  1.00  0.00     0.210 HD
ENDBRANCH  11  19
BRANCH  12  21
HETATM   21  O10 UNL     1     -31.289 -16.142  -2.062  1.00  0.00    -0.390 OA
ATOM     22  H10 UNL     1     -30.840 -16.907  -1.722  1.00  0.00     0.210 HD
ENDBRANCH  12  21
BRANCH  13  23
HETATM   23  O9  UNL     1     -34.421 -17.761  -2.522  1.00  0.00    -0.388 OA
ATOM     24  H9  UNL     1     -35.201 -17.259  -2.316  1.00  0.00     0.210 HD
ENDBRANCH  13  23
ENDBRANCH   7   8
ENDBRANCH   1   7
BRANCH   2  25
HETATM   25  O3  UNL     1     -30.184 -19.748   0.275  1.00  0.00    -0.389 OA
ATOM     26  H3  UNL     1     -30.534 -20.473  -0.231  1.00  0.00     0.210 HD
ENDBRANCH   2  25
BRANCH   6  27
HETATM   27  O8  UNL     1     -34.737 -19.814   1.371  1.00  0.00    -0.371 OA
BRANCH  27  28
HETATM   28  C13 UNL     1     -35.785 -18.958   1.434  1.00  0.00     0.178 C
HETATM   29  C14 UNL     1     -35.480 -17.496   1.229  1.00  0.00     0.266 C
HETATM   30  N4  UNL     1     -36.594 -16.691   1.660  1.00  0.00    -0.073 N
HETATM   31  C15 UNL     1     -37.782 -17.441   1.959  1.00  0.00     0.234 C
ATOM     32  H42 UNL     1     -36.328 -16.111   2.456  1.00  0.00     0.277 HD
ATOM     33  H41 UNL     1     -36.794 -15.963   0.974  1.00  0.00     0.277 HD
HETATM   34  C16 UNL     1     -38.112 -18.464   0.922  1.00  0.00     0.063 C
HETATM   35  C17 UNL     1     -36.909 -19.265   0.461  1.00  0.00     0.215 C
BRANCH  35  36
HETATM   36  N5  UNL     1     -36.573 -18.745  -0.876  1.00  0.00    -0.072 N
ATOM     37  H53 UNL     1     -37.065 -19.246  -1.616  1.00  0.00     0.274 HD
ATOM     38  H52 UNL     1     -36.967 -17.818  -1.036  1.00  0.00     0.274 HD
ATOM     39  H51 UNL     1     -35.562 -18.760  -1.010  1.00  0.00     0.274 HD
ENDBRANCH  35  36
ENDBRANCH  27  28
ENDBRANCH   6  27
BRANCH   3  40
HETATM   40  N2  UNL     1     -29.640 -18.660   2.525  1.00  0.00    -0.061 NA
BRANCH  40  41
HETATM   41  O4  UNL     1     -29.363 -17.686   3.387  1.00  0.00    -0.223 OA
BRANCH  41  42
HETATM   42  C7  UNL     1     -28.970 -18.122   4.634  1.00  0.00     0.488 C
HETATM   43  N3  UNL     1     -29.119 -19.557   4.691  1.00  0.00    -0.021 N
HETATM   44  C8  UNL     1     -28.157 -19.986   5.682  1.00  0.00     0.264 C
ATOM     45  H32 UNL     1     -30.072 -19.868   4.876  1.00  0.00     0.283 HD
ATOM     46  H31 UNL     1     -29.020 -20.021   3.788  1.00  0.00     0.283 HD
HETATM   47  C9  UNL     1     -27.174 -18.868   5.725  1.00  0.00     0.200 C
HETATM   48  O5  UNL     1     -27.630 -17.854   4.891  1.00  0.00    -0.336 OA
ENDBRANCH  41  42
ENDBRANCH  40  41
ENDBRANCH   3  40
BRANCH   5  49
HETATM   49  C11 UNL     1     -33.260 -19.160   4.142  1.00  0.00     0.198 C
BRANCH  49  50
HETATM   50  O7  UNL     1     -34.569 -19.516   4.547  1.00  0.00    -0.398 OA
ATOM     51  H7  UNL     1     -34.962 -18.755   4.958  1.00  0.00     0.209 HD
ENDBRANCH  49  50
ENDBRANCH   5  49
TORSDOF 16
ENDMDL