MODEL 5
REMARK VINA RESULT: -8.183435988      4.009      7.774
REMARK  16 active torsions:
REMARK  status: ('A' for Active; 'I' for Inactive)
REMARK    1  A    between atoms: N1_1  and  C1_4
REMARK    2  A    between atoms: C3_8  and  C4_9
REMARK    3  A    between atoms: C4_9  and  N3_10
REMARK    4  A    between atoms: C5_13  and  C6_14
REMARK       I    between atoms: C6_14  and  N5_16
REMARK    5  A    between atoms: N5_16  and  N6_18
REMARK    6  A    between atoms: N6_18  and  C7_20
REMARK    7  A    between atoms: C8_23  and  N8_24
REMARK    8  A    between atoms: C9_29  and  N10_30
REMARK    9  A    between atoms: C11_36  and  O2_37
REMARK   10  A    between atoms: C12_39  and  C13_40
REMARK       I    between atoms: C13_40  and  N12_42
REMARK   11  A    between atoms: N12_42  and  O4_44
REMARK   12  A    between atoms: O4_44  and  C14_45
REMARK   13  A    between atoms: C14_45  and  C15_46
REMARK   14  A    between atoms: C15_46  and  O5_47
REMARK   15  A    between atoms: C15_46  and  C16_49
REMARK   16  A    between atoms: C16_49  and  O6_50
ROOT
HETATM    1  N3  UNL     1     -30.041 -19.460   5.113  1.00  0.00    -0.207 N
HETATM    2  N4  UNL     1     -28.905 -19.283   5.715  1.00  0.00    -0.275 N
ATOM      3  H4  UNL     1     -28.687 -19.641   6.645  1.00  0.00     0.189 HD
HETATM    4  C5  UNL     1     -28.037 -18.555   4.946  1.00  0.00     0.152 A
HETATM    5  C10 UNL     1     -28.741 -18.289   3.799  1.00  0.00     0.145 A
HETATM    6  C11 UNL     1     -28.734 -17.669   2.557  1.00  0.00     0.133 A
HETATM    7  C12 UNL     1     -29.962 -17.881   1.961  1.00  0.00     0.155 A
HETATM    8  N13 UNL     1     -30.652 -18.619   2.877  1.00  0.00    -0.270 N
ATOM      9  H13 UNL     1     -31.609 -18.946   2.740  1.00  0.00     0.189 HD
HETATM   10  N14 UNL     1     -29.951 -18.858   3.945  1.00  0.00    -0.174 N
ENDROOT
BRANCH   4  11
HETATM   11  C6  UNL     1     -26.708 -18.170   5.351  1.00  0.00     0.291 C
HETATM   12  O1  UNL     1     -26.529 -16.902   5.529  1.00  0.00    -0.264 OA
HETATM   13  N5  UNL     1     -25.596 -18.982   5.580  1.00  0.00    -0.250 N
ATOM     14  H5  UNL     1     -25.675 -19.992   5.464  1.00  0.00     0.191 HD
BRANCH  13  15
HETATM   15  N6  UNL     1     -24.346 -18.410   5.974  1.00  0.00    -0.128 N
ATOM     16  H6  UNL     1     -23.964 -17.597   5.492  1.00  0.00     0.205 HD
BRANCH  15  17
HETATM   17  C7  UNL     1     -23.718 -18.955   6.958  1.00  0.00     0.726 A
HETATM   18  N7  UNL     1     -22.797 -19.912   6.681  1.00  0.00    -0.020 N
HETATM   19  C8  UNL     1     -22.131 -20.495   7.681  1.00  0.00     0.705 A
ATOM     20  H7  UNL     1     -22.614 -20.184   5.715  1.00  0.00     0.203 HD
HETATM   21  N9  UNL     1     -22.327 -20.177   8.973  1.00  0.00    -0.022 N
HETATM   22  C9  UNL     1     -23.237 -19.233   9.249  1.00  0.00     0.705 A
ATOM     23  H9  UNL     1     -21.802 -20.638   9.716  1.00  0.00     0.203 HD
HETATM   24  N11 UNL     1     -23.915 -18.638   8.254  1.00  0.00    -0.020 N
ATOM     25  H11 UNL     1     -24.602 -17.921   8.486  1.00  0.00     0.203 HD
BRANCH  19  26
HETATM   26  N8  UNL     1     -21.255 -21.405   7.390  1.00  0.00    -0.234 N
ATOM     27  H82 UNL     1     -20.266 -21.190   7.512  1.00  0.00     0.174 HD
ATOM     28  H81 UNL     1     -21.588 -22.306   7.047  1.00  0.00     0.174 HD
ENDBRANCH  19  26
BRANCH  22  29
HETATM   29  N10 UNL     1     -23.432 -18.922  10.483  1.00  0.00    -0.234 N
ATOM     30 2H10 UNL     1     -22.660 -18.832  11.143  1.00  0.00     0.174 HD
ATOM     31 1H10 UNL     1     -24.391 -18.765  10.792  1.00  0.00     0.174 HD
ENDBRANCH  22  29
ENDBRANCH  15  17
ENDBRANCH  13  15
ENDBRANCH   4  11
BRANCH   1  32
HETATM   32  C4  UNL     1     -31.226 -20.183   5.603  1.00  0.00     0.213 C
BRANCH  32  33
HETATM   33  C3  UNL     1     -32.357 -19.895   4.680  1.00  0.00    -0.005 A
HETATM   34  C2  UNL     1     -33.272 -18.895   4.936  1.00  0.00     0.116 A
HETATM   35  N2  UNL     1     -34.285 -18.665   4.072  1.00  0.00    -0.202 N
HETATM   36  C1  UNL     1     -34.460 -19.375   2.942  1.00  0.00     0.675 A
ATOM     37  H2  UNL     1     -34.948 -17.920   4.287  1.00  0.00     0.183 HD
HETATM   38  N15 UNL     1     -33.566 -20.349   2.694  1.00  0.00    -0.202 N
HETATM   39  C17 UNL     1     -32.538 -20.625   3.516  1.00  0.00     0.116 A
ATOM     40  H15 UNL     1     -33.674 -20.903   1.844  1.00  0.00     0.183 HD
BRANCH  36  41
HETATM   41  N1  UNL     1     -35.428 -19.159   2.114  1.00  0.00    -0.234 N
ATOM     42  H12 UNL     1     -36.267 -19.737   2.149  1.00  0.00     0.174 HD
ATOM     43  H11 UNL     1     -35.404 -18.425   1.407  1.00  0.00     0.174 HD
ENDBRANCH  36  41
ENDBRANCH  32  33
ENDBRANCH   1  32
BRANCH   6  44
HETATM   44  O2  UNL     1     -27.702 -16.966   2.002  1.00  0.00    -0.356 OA
ATOM     45  H2  UNL     1     -26.974 -17.323   1.507  1.00  0.00     0.218 HD
ENDBRANCH   6  44
BRANCH   7  46
HETATM   46  C13 UNL     1     -30.495 -17.467   0.683  1.00  0.00     0.296 C
HETATM   47  O3  UNL     1     -29.981 -16.504   0.063  1.00  0.00    -0.264 OA
HETATM   48  N12 UNL     1     -31.598 -18.122   0.092  1.00  0.00    -0.229 N
ATOM     49  H12 UNL     1     -32.037 -18.908   0.573  1.00  0.00     0.198 HD
BRANCH  48  50
HETATM   50  O4  UNL     1     -32.086 -17.709  -1.125  1.00  0.00    -0.275 OA
BRANCH  50  51
HETATM   51  C14 UNL     1     -32.840 -18.735  -1.713  1.00  0.00     0.235 C
BRANCH  51  52
HETATM   52  C15 UNL     1     -32.809 -19.895  -0.729  1.00  0.00     0.167 C
BRANCH  52  53
HETATM   53  O5  UNL     1     -34.112 -20.306  -0.548  1.00  0.00    -0.391 OA
ATOM     54  H5  UNL     1     -34.138 -21.238  -0.729  1.00  0.00     0.210 HD
ENDBRANCH  52  53
BRANCH  52  55
HETATM   55  C16 UNL     1     -32.026 -21.016  -1.382  1.00  0.00     0.198 C
BRANCH  55  56
HETATM   56  O6  UNL     1     -30.746 -20.525  -1.655  1.00  0.00    -0.398 OA
ATOM     57  H6  UNL     1     -30.189 -20.769  -0.924  1.00  0.00     0.209 HD
ENDBRANCH  55  56
ENDBRANCH  52  55
ENDBRANCH  51  52
ENDBRANCH  50  51
ENDBRANCH  48  50
ENDBRANCH   7  46
TORSDOF 16
ENDMDL