MODEL 5
REMARK VINA RESULT: -6.146573219      1.244      3.412
REMARK  3 active torsions:
REMARK  status: ('A' for Active; 'I' for Inactive)
REMARK    1  A    between atoms: N3_4  and  C2_6
REMARK    2  A    between atoms: C3_7  and  C4_8
REMARK    3  A    between atoms: C6_15  and  C7_16
ROOT
HETATM    1  C2  UNL     1      13.806   8.755  20.296  1.00  0.00     0.140 C
HETATM    2  C3  UNL     1      13.237   9.731  19.247  1.00  0.00     0.168 C
HETATM    3  N4  UNL     1      13.236  11.029  19.890  1.00  0.00    -0.373 N
ATOM      4  H4  UNL     1      13.764  11.819  19.520  1.00  0.00     0.161 HD
HETATM    5  C5  UNL     1      12.447  11.127  21.072  1.00  0.00     0.172 C
HETATM    6  N5  UNL     1      12.303  10.067  21.766  1.00  0.00    -0.376 N
ATOM      7  H5  UNL     1      11.738  10.134  22.612  1.00  0.00     0.161 HD
HETATM    8  C6  UNL     1      12.875   8.783  21.451  1.00  0.00     0.140 C
ENDROOT
BRANCH   8   9
HETATM    9  C7  UNL     1      13.371   8.180  22.698  1.00  0.00    -0.034 A
HETATM   10  C8  UNL     1      14.731   8.130  22.912  1.00  0.00     0.009 A
HETATM   11  C9  UNL     1      15.266   7.565  24.065  1.00  0.00     0.001 A
HETATM   12  C10 UNL     1      14.419   7.042  25.013  1.00  0.00     0.000 A
HETATM   13  C11 UNL     1      13.054   7.076  24.828  1.00  0.00     0.001 A
HETATM   14  C12 UNL     1      12.545   7.655  23.653  1.00  0.00     0.009 A
ENDBRANCH   8   9
BRANCH   1  15
HETATM   15  N3  UNL     1      13.799   7.455  19.659  1.00  0.00    -0.358 N
HETATM   16  C1  UNL     1      14.754   6.636  19.552  1.00  0.00     0.197 C
HETATM   17  N1  UNL     1      14.484   5.413  18.873  1.00  0.00    -0.067 NA
HETATM   18  N2  UNL     1      16.077   6.862  20.077  1.00  0.00    -0.067 NA
ATOM     19  H3  UNL     1      12.914   7.165  19.245  1.00  0.00     0.162 HD
ENDBRANCH   1  15
BRANCH   2  20
HETATM   20  C4  UNL     1      14.012   9.730  17.999  1.00  0.00     0.258 C
HETATM   21  O1  UNL     1      15.212   9.556  18.051  1.00  0.00    -0.305 OA
ENDBRANCH   2  20
TORSDOF 3
ENDMDL