MODEL 5
REMARK VINA RESULT: -3.128290241      1.264      1.904
REMARK  3 active torsions:
REMARK  status: ('A' for Active; 'I' for Inactive)
REMARK       I    between atoms: N1_2  and  C3_4
REMARK       I    between atoms: C3_4  and  N2_6
REMARK    1  A    between atoms: N2_6  and  N3_8
REMARK       I    between atoms: N3_8  and  C4_10
REMARK    2  A    between atoms: N5_12  and  N6_14
REMARK    3  A    between atoms: C5_16  and  C6_17
ROOT
HETATM    1  N3  UNL     1      17.371  13.946  23.187  1.00  0.00    -0.268 N
ATOM      2  H3  UNL     1      16.647  14.483  23.664  1.00  0.00     0.190 HD
HETATM    3  C4  UNL     1      17.068  13.023  22.120  1.00  0.00     0.222 C
HETATM    4  N4  UNL     1      17.695  13.211  20.881  1.00  0.00    -0.061 NA
HETATM    5  N5  UNL     1      16.235  12.098  22.417  1.00  0.00    -0.273 N
ATOM      6  H5  UNL     1      15.827  12.040  23.351  1.00  0.00     0.189 HD
ENDROOT
BRANCH   1   7
HETATM    7  N2  UNL     1      18.720  14.056  23.521  1.00  0.00    -0.249 N
HETATM    8  C3  UNL     1      19.332  12.968  24.195  1.00  0.00     0.336 C
HETATM    9  N1  UNL     1      20.706  13.077  24.537  1.00  0.00    -0.342 N
HETATM   10  O1  UNL     1      18.655  11.941  24.472  1.00  0.00    -0.245 OA
HETATM   11  C1  UNL     1      21.390  12.009  25.221  1.00  0.00     0.154 C
HETATM   12  C2  UNL     1      21.416  14.285  24.187  1.00  0.00     0.154 C
ATOM     13  H2  UNL     1      19.252  14.895  23.287  1.00  0.00     0.192 HD
ENDBRANCH   1   7
BRANCH   5  14
HETATM   14  N6  UNL     1      15.900  11.173  21.431  1.00  0.00    -0.309 N
HETATM   15  C5  UNL     1      14.735  10.646  21.447  1.00  0.00     0.118 C
ATOM     16  H6  UNL     1      16.573  10.920  20.708  1.00  0.00     0.186 HD
BRANCH  15  17
HETATM   17  C6  UNL     1      14.365   9.682  20.434  1.00  0.00    -0.019 A
HETATM   18  C7  UNL     1      13.795  10.112  19.234  1.00  0.00     0.013 A
HETATM   19  C8  UNL     1      13.450   9.179  18.282  1.00  0.00     0.001 A
HETATM   20  C9  UNL     1      13.663   7.825  18.502  1.00  0.00     0.000 A
HETATM   21  C10 UNL     1      14.230   7.440  19.704  1.00  0.00     0.001 A
HETATM   22  C11 UNL     1      14.585   8.342  20.673  1.00  0.00     0.013 A
ENDBRANCH  15  17
ENDBRANCH   5  14
TORSDOF 3
ENDMDL