MODEL 2
REMARK VINA RESULT: -5.208529007      1.644      2.115
REMARK  2 active torsions:
REMARK  status: ('A' for Active; 'I' for Inactive)
REMARK    1  A    between atoms: C2_2  and  C3_3
REMARK    2  A    between atoms: C3_3  and  C4_4
REMARK       I    between atoms: N3_10  and  C6_12
REMARK       I    between atoms: C6_12  and  N4_13
ROOT
HETATM    1  C4  UNL     1      14.579   7.586  23.416  1.00  0.00     0.069 A
HETATM    2  N1  UNL     1      14.464   8.843  23.018  1.00  0.00    -0.296 N
ATOM      3  H1  UNL     1      14.615   9.603  23.682  1.00  0.00     0.187 HD
HETATM    4  N2  UNL     1      14.168   9.107  21.811  1.00  0.00    -0.279 N
ATOM      5  H2  UNL     1      14.078  10.073  21.495  1.00  0.00     0.189 HD
HETATM    6  C5  UNL     1      13.978   8.088  20.962  1.00  0.00     0.180 A
HETATM    7  N3  UNL     1      13.669   8.156  19.688  1.00  0.00    -0.169 N
ATOM      8  H3  UNL     1      13.551   7.297  19.151  1.00  0.00     0.186 HD
HETATM    9  C6  UNL     1      13.498   9.409  19.054  1.00  0.00     0.681 C
HETATM   10  N4  UNL     1      12.436  10.246  19.473  1.00  0.00    -0.166 N
ATOM     11  H4  UNL     1      12.619  11.178  19.845  1.00  0.00     0.186 HD
HETATM   12  C7  UNL     1      11.234   9.799  19.372  1.00  0.00     0.215 C
HETATM   13  N5  UNL     1      10.909   8.514  18.867  1.00  0.00    -0.066 NA
HETATM   14  N6  UNL     1      10.173  10.641  19.793  1.00  0.00    -0.066 NA
HETATM   15  N7  UNL     1      14.273   9.806  18.118  1.00  0.00    -0.230 N
ATOM     16  H7  UNL     1      14.111  10.718  17.689  1.00  0.00     0.177 HD
HETATM   17  C8  UNL     1      15.382   8.985  17.648  1.00  0.00     0.165 C
HETATM   18  S1  UNL     1      14.241   6.739  21.969  1.00  0.00    -0.037 SA
ENDROOT
BRANCH   1  19
HETATM   19  C3  UNL     1      14.919   7.065  24.794  1.00  0.00     0.066 C
BRANCH  19  20
HETATM   20  C2  UNL     1      13.677   6.303  25.254  1.00  0.00     0.002 C
HETATM   21  C1  UNL     1      12.566   7.317  25.363  1.00  0.00     0.005 C
ENDBRANCH  19  20
ENDBRANCH   1  19
TORSDOF 2
ENDMDL