MODEL 1
REMARK VINA RESULT: -4.563518254      0.000      0.000
REMARK  5 active torsions:
REMARK  status: ('A' for Active; 'I' for Inactive)
REMARK    1  A    between atoms: C2_2  and  C5_5
REMARK       I    between atoms: C5_5  and  N1_7
REMARK    2  A    between atoms: N1_7  and  C6_9
REMARK    3  A    between atoms: C6_9  and  C7_10
REMARK    4  A    between atoms: C7_10  and  N2_11
REMARK    5  A    between atoms: C8_15  and  C9_16
ROOT
HETATM    1  C7  UNL     1      13.937   8.066  23.144  1.00  0.00     0.159 A
HETATM    2  C8  UNL     1      14.527   7.397  24.341  1.00  0.00     0.123 A
HETATM    3  C10 UNL     1      14.768   6.794  23.012  1.00  0.00     0.002 A
HETATM    4  C11 UNL     1      16.150   6.922  22.410  1.00  0.00     0.018 C
HETATM    5  C12 UNL     1      13.993   5.606  22.527  1.00  0.00     0.018 C
ENDROOT
BRANCH   1   6
HETATM    6  C6  UNL     1      14.584   9.282  22.537  1.00  0.00     0.163 C
BRANCH   6   7
HETATM    7  N1  UNL     1      13.862   9.810  21.416  1.00  0.00    -0.358 N
HETATM    8  C5  UNL     1      13.993   9.187  20.165  1.00  0.00     0.225 C
HETATM    9  O1  UNL     1      14.736   8.164  19.993  1.00  0.00    -0.273 OA
ATOM     10  H1  UNL     1      13.261  10.627  21.525  1.00  0.00     0.162 HD
BRANCH   8  11
HETATM   11  C2  UNL     1      13.264   9.708  18.999  1.00  0.00     0.030 C
HETATM   12  C1  UNL     1      14.006   9.468  17.718  1.00  0.00     0.024 C
HETATM   13  C3  UNL     1      12.921  11.193  19.173  1.00  0.00     0.024 C
HETATM   14  C4  UNL     1      11.912   8.994  18.867  1.00  0.00     0.024 C
ENDBRANCH   8  11
ENDBRANCH   6   7
ENDBRANCH   1   6
BRANCH   1  15
HETATM   15  N2  UNL     1      12.498   7.947  23.029  1.00  0.00    -0.067 N
ATOM     16  H23 UNL     1      12.086   8.878  22.964  1.00  0.00     0.275 HD
ATOM     17  H22 UNL     1      12.263   7.571  22.110  1.00  0.00     0.275 HD
ATOM     18  H21 UNL     1      12.011   7.411  23.747  1.00  0.00     0.275 HD
ENDBRANCH   1  15
BRANCH   2  19
HETATM   19  C9  UNL     1      13.639   6.736  25.326  1.00  0.00     0.238 C
HETATM   20  N3  UNL     1      12.431   7.342  25.749  1.00  0.00    -0.062 NA
HETATM   21  O2  UNL     1      13.968   5.626  25.789  1.00  0.00    -0.276 OA
ENDBRANCH   2  19
TORSDOF 5
ENDMDL