MODEL 3
REMARK VINA RESULT: -5.622607997      1.183      1.383
REMARK  4 active torsions:
REMARK  status: ('A' for Active; 'I' for Inactive)
REMARK    1  A    between atoms: N4_14  and  C8_15
REMARK    2  A    between atoms: C8_15  and  C9_16
REMARK    3  A    between atoms: C9_16  and  C10_17
REMARK    4  A    between atoms: C10_17  and  N5_18
ROOT
HETATM    1  N1  UNL     1      10.176  10.032  19.266  1.00  0.00    -0.389 N
ATOM      2  H11 UNL     1      10.248   9.862  18.263  1.00  0.00     0.157 HD
ATOM      3  H12 UNL     1       9.373  10.396  19.780  1.00  0.00     0.157 HD
HETATM    4  C1  UNL     1      11.218   9.761  20.001  1.00  0.00     0.079 C
HETATM    5  N2  UNL     1      11.119   9.999  21.393  1.00  0.00    -0.378 N
ATOM      6  H2  UNL     1      10.488  10.751  21.671  1.00  0.00     0.160 HD
HETATM    7  C2  UNL     1      11.786   9.322  22.455  1.00  0.00     0.151 C
HETATM    8  C3  UNL     1      13.267   9.250  22.352  1.00  0.00     0.294 C
HETATM    9  N3  UNL     1      13.808   9.251  21.051  1.00  0.00     0.114 N
HETATM   10  C4  UNL     1      13.980  10.500  20.405  1.00  0.00     0.280 C
HETATM   11  C5  UNL     1      13.399  10.347  19.001  1.00  0.00     0.031 C
HETATM   12  C6  UNL     1      14.395   9.795  18.026  1.00  0.00     0.027 C
HETATM   13  C7  UNL     1      14.384   8.259  18.004  1.00  0.00     0.124 C
HETATM   14  N4  UNL     1      14.270   7.787  19.326  1.00  0.00    -0.363 N
HETATM   15  C11 UNL     1      13.225   8.311  20.135  1.00  0.00     0.335 C
HETATM   16  C12 UNL     1      12.374   9.237  19.261  1.00  0.00     0.111 C
ENDROOT
BRANCH  14  17
HETATM   17  C8  UNL     1      14.829   6.551  19.675  1.00  0.00     0.062 C
BRANCH  17  18
HETATM   18  C9  UNL     1      16.094   6.588  20.479  1.00  0.00     0.071 C
BRANCH  18  19
HETATM   19  C10 UNL     1      15.683   6.337  21.938  1.00  0.00     0.234 C
BRANCH  19  20
HETATM   20  N5  UNL     1      14.444   5.589  21.991  1.00  0.00    -0.079 N
ATOM     21  H53 UNL     1      14.485   4.835  22.676  1.00  0.00     0.274 HD
ATOM     22  H52 UNL     1      13.690   6.133  22.411  1.00  0.00     0.274 HD
ATOM     23  H51 UNL     1      14.195   5.248  21.063  1.00  0.00     0.274 HD
ENDBRANCH  19  20
ENDBRANCH  18  19
ENDBRANCH  17  18
ENDBRANCH  14  17
TORSDOF 4
ENDMDL