MODEL 5
REMARK VINA RESULT: -1.156800036      1.589      2.017
REMARK  6 active torsions:
REMARK  status: ('A' for Active; 'I' for Inactive)
REMARK    1  A    between atoms: C3_3  and  C4_4
REMARK    2  A    between atoms: C4_4  and  O1_5
REMARK    3  A    between atoms: O1_5  and  C5_6
REMARK    4  A    between atoms: C9_10  and  N1_11
REMARK    5  A    between atoms: C13_15  and  O2_16
REMARK    6  A    between atoms: C14_18  and  O3_19
ROOT
HETATM    1  C1  UNL     1      17.778   6.245  17.546  1.00  0.00     0.112 C
HETATM    2  C2  UNL     1      16.640   6.692  18.380  1.00  0.00    -0.107 C
HETATM    3  C3  UNL     1      15.704   7.047  19.050  1.00  0.00    -0.061 C
ENDROOT
BRANCH   3   4
HETATM    4  C4  UNL     1      14.596   7.462  19.870  1.00  0.00     0.172 C
HETATM    5  C8  UNL     1      14.685   8.917  20.264  1.00  0.00     0.062 C
HETATM    6  C9  UNL     1      13.510   9.489  20.230  1.00  0.00     0.144 C
HETATM    7  C13 UNL     1      12.511   8.477  19.827  1.00  0.00     0.208 C
HETATM    8  C14 UNL     1      13.335   7.534  18.990  1.00  0.00     0.204 C
BRANCH   4   9
HETATM    9  O1  UNL     1      14.319   6.693  20.947  1.00  0.00    -0.357 OA
BRANCH   9  10
HETATM   10  C5  UNL     1      14.964   6.957  22.108  1.00  0.00     0.116 C
HETATM   11  C6  UNL     1      14.017   6.549  23.250  1.00  0.00     0.039 C
HETATM   12  C7  UNL     1      16.237   6.197  22.340  1.00  0.00     0.039 C
ENDBRANCH   9  10
ENDBRANCH   4   9
BRANCH   6  13
HETATM   13  N1  UNL     1      13.139  10.841  20.524  1.00  0.00    -0.050 N
HETATM   14  C10 UNL     1      14.263  11.450  21.208  1.00  0.00     0.278 C
HETATM   15  C11 UNL     1      12.879  11.575  19.307  1.00  0.00     0.278 C
HETATM   16  C12 UNL     1      11.990  10.940  21.369  1.00  0.00     0.278 C
ENDBRANCH   6  13
BRANCH   7  17
HETATM   17  O2  UNL     1      11.448   9.025  19.120  1.00  0.00    -0.387 OA
ATOM     18  H2  UNL     1      10.743   9.319  19.686  1.00  0.00     0.210 HD
ENDBRANCH   7  17
BRANCH   8  19
HETATM   19  O3  UNL     1      13.660   8.109  17.777  1.00  0.00    -0.388 OA
ATOM     20  H3  UNL     1      14.394   8.701  17.897  1.00  0.00     0.210 HD
ENDBRANCH   8  19
ENDBRANCH   3   4
TORSDOF 6
ENDMDL