MODEL 3
REMARK VINA RESULT: -3.598355787      2.570      4.174
REMARK  5 active torsions:
REMARK  status: ('A' for Active; 'I' for Inactive)
REMARK    1  A    between atoms: C2_2  and  C3_3
REMARK    2  A    between atoms: C3_3  and  C4_4
REMARK    3  A    between atoms: N2_8  and  C6_9
REMARK    4  A    between atoms: C6_9  and  C7_10
REMARK    5  A    between atoms: C8_11  and  C9_12
ROOT
HETATM    1  C6  UNL     1      15.169   7.231  23.332  1.00  0.00     0.242 C
ENDROOT
BRANCH   1   2
HETATM    2  N2  UNL     1      14.702   7.617  22.003  1.00  0.00    -0.292 N
HETATM    3  N1  UNL     1      14.812   6.856  20.927  1.00  0.00    -0.309 N
HETATM    4  C5  UNL     1      14.295   7.471  19.848  1.00  0.00     0.115 A
ATOM      5  H1  UNL     1      15.233   5.927  20.916  1.00  0.00     0.186 HD
HETATM    6  C4  UNL     1      13.822   8.713  20.268  1.00  0.00    -0.024 A
HETATM    7  C13 UNL     1      14.099   8.757  21.619  1.00  0.00     0.119 A
BRANCH   6   8
HETATM    8  C3  UNL     1      13.170   9.730  19.402  1.00  0.00     0.041 C
BRANCH   8   9
HETATM    9  C2  UNL     1      11.660   9.776  19.637  1.00  0.00     0.000 C
HETATM   10  C1  UNL     1      11.302  10.759  20.710  1.00  0.00     0.005 C
ENDBRANCH   8   9
ENDBRANCH   6   8
ENDBRANCH   1   2
BRANCH   1  11
HETATM   11  C7  UNL     1      16.222   8.134  23.785  1.00  0.00    -0.079 C
HETATM   12  C8  UNL     1      17.084   8.892  24.169  1.00  0.00    -0.060 C
BRANCH  12  13
HETATM   13  C9  UNL     1      18.093   9.803  24.634  1.00  0.00     0.077 A
HETATM   14  C10 UNL     1      18.639  10.896  23.993  1.00  0.00     0.133 A
HETATM   15  N3  UNL     1      19.557  11.488  24.765  1.00  0.00    -0.305 N
HETATM   16  C11 UNL     1      20.345  12.679  24.415  1.00  0.00     0.177 C
HETATM   17  N4  UNL     1      19.613  10.797  25.892  1.00  0.00    -0.285 N
HETATM   18  C12 UNL     1      18.750   9.766  25.868  1.00  0.00     0.151 A
ATOM     19  H4  UNL     1      20.229  11.016  26.675  1.00  0.00     0.188 HD
HETATM   20  N5  UNL     1      18.477   8.778  26.842  1.00  0.00    -0.080 NA
ENDBRANCH  12  13
ENDBRANCH   1  11
TORSDOF 5
ENDMDL