MODEL 4
REMARK VINA RESULT: -4.256317549      2.064      3.659
REMARK  5 active torsions:
REMARK  status: ('A' for Active; 'I' for Inactive)
REMARK    1  A    between atoms: N1_2  and  C2_5
REMARK    2  A    between atoms: C2_5  and  C3_6
REMARK    3  A    between atoms: C3_6  and  C4_7
REMARK    4  A    between atoms: C4_7  and  C5_8
REMARK    5  A    between atoms: C5_8  and  N2_10
REMARK       I    between atoms: N3_13  and  C8_14
ROOT
HETATM    1  N2  UNL     1      13.575   8.809  20.843  1.00  0.00    -0.372 N
HETATM    2  C6  UNL     1      13.900   7.422  21.074  1.00  0.00     0.143 C
HETATM    3  C7  UNL     1      14.737   7.357  22.355  1.00  0.00     0.145 C
HETATM    4  N3  UNL     1      13.778   7.657  23.428  1.00  0.00    -0.353 N
HETATM    5  C8  UNL     1      13.780   6.951  24.648  1.00  0.00     0.184 C
HETATM    6  N4  UNL     1      14.790   6.993  25.427  1.00  0.00    -0.374 N
ATOM      7  H41 UNL     1      14.792   6.482  26.310  1.00  0.00     0.158 HD
ATOM      8  H42 UNL     1      15.610   7.542  25.166  1.00  0.00     0.158 HD
HETATM    9  N5  UNL     1      12.649   6.194  25.009  1.00  0.00    -0.064 NA
HETATM   10  C9  UNL     1      12.825   8.711  23.179  1.00  0.00     0.145 C
HETATM   11  C10 UNL     1      13.331   9.598  22.051  1.00  0.00     0.143 C
ENDROOT
BRANCH   1  12
HETATM   12  C5  UNL     1      13.484   9.421  19.587  1.00  0.00     0.075 C
HETATM   13  S1  UNL     1      12.686  10.859  19.515  1.00  0.00    -0.066 SA
BRANCH  12  14
HETATM   14  C4  UNL     1      14.020   8.918  18.336  1.00  0.00     0.071 C
BRANCH  14  15
HETATM   15  C3  UNL     1      15.460   8.608  18.257  1.00  0.00     0.034 C
BRANCH  15  16
HETATM   16  C2  UNL     1      15.824   7.199  18.658  1.00  0.00     0.232 C
BRANCH  16  17
HETATM   17  N1  UNL     1      17.036   6.798  17.970  1.00  0.00    -0.079 N
HETATM   18  C1  UNL     1      17.724   5.717  18.633  1.00  0.00     0.266 C
ATOM     19  H12 UNL     1      17.657   7.595  17.829  1.00  0.00     0.276 HD
ATOM     20  H11 UNL     1      16.843   6.565  16.996  1.00  0.00     0.276 HD
ENDBRANCH  16  17
ENDBRANCH  15  16
ENDBRANCH  14  15
ENDBRANCH  12  14
ENDBRANCH   1  12
TORSDOF 5
ENDMDL