MODEL 4
REMARK VINA RESULT: -4.634727783      1.155      2.706
REMARK  5 active torsions:
REMARK  status: ('A' for Active; 'I' for Inactive)
REMARK    1  A    between atoms: C2_2  and  C3_3
REMARK    2  A    between atoms: C3_3  and  C4_4
REMARK    3  A    between atoms: C4_4  and  N2_10
REMARK       I    between atoms: N1_5  and  C5_7
REMARK    4  A    between atoms: N2_10  and  N3_12
REMARK       I    between atoms: N3_12  and  C7_14
REMARK       I    between atoms: C7_14  and  N4_16
REMARK       I    between atoms: N4_16  and  C8_18
REMARK    5  A    between atoms: C8_18  and  C9_20
ROOT
HETATM    1  N2  UNL     1      15.393  11.079  21.020  1.00  0.00    -0.285 N
ATOM      2  H2  UNL     1      15.603  11.503  20.116  1.00  0.00     0.188 HD
ENDROOT
BRANCH   1   3
HETATM    3  C4  UNL     1      14.216  10.290  21.035  1.00  0.00     0.098 C
HETATM    4  N1  UNL     1      13.107  10.945  21.057  1.00  0.00    -0.316 N
HETATM    5  C5  UNL     1      11.804  10.514  21.100  1.00  0.00     0.218 C
ATOM      6  H1  UNL     1      13.216  11.959  21.039  1.00  0.00     0.170 HD
HETATM    7  C6  UNL     1      10.744  11.253  20.341  1.00  0.00     0.117 C
HETATM    8  O1  UNL     1      11.451   9.490  21.777  1.00  0.00    -0.274 OA
BRANCH   3   9
HETATM    9  C3  UNL     1      14.380   8.820  21.045  1.00  0.00     0.077 C
BRANCH   9  10
HETATM   10  C2  UNL     1      14.251   8.313  19.601  1.00  0.00     0.003 C
HETATM   11  C1  UNL     1      15.093   7.069  19.402  1.00  0.00     0.005 C
ENDBRANCH   9  10
ENDBRANCH   3   9
ENDBRANCH   1   3
BRANCH   1  12
HETATM   12  N3  UNL     1      16.294  11.372  21.998  1.00  0.00    -0.250 N
HETATM   13  C7  UNL     1      17.178  12.541  21.918  1.00  0.00     0.341 C
HETATM   14  O2  UNL     1      17.021  13.165  20.846  1.00  0.00    -0.245 OA
HETATM   15  N4  UNL     1      18.029  12.796  22.975  1.00  0.00    -0.278 N
HETATM   16  C8  UNL     1      18.532  14.375  22.491  1.00  0.00     0.225 C
ATOM     17  H4  UNL     1      18.280  12.230  23.785  1.00  0.00     0.173 HD
HETATM   18  O3  UNL     1      18.098  14.754  21.513  1.00  0.00    -0.273 OA
ATOM     19  H3  UNL     1      16.356  10.761  22.812  1.00  0.00     0.192 HD
BRANCH  16  20
HETATM   20  C9  UNL     1      19.445  14.956  23.462  1.00  0.00     0.099 C
HETATM   21  C10 UNL     1      18.817  16.289  23.906  1.00  0.00     0.014 C
ENDBRANCH  16  20
ENDBRANCH   1  12
TORSDOF 5
ENDMDL