MODEL 3
REMARK VINA RESULT: -6.103704808      0.890      1.062
REMARK  3 active torsions:
REMARK  status: ('A' for Active; 'I' for Inactive)
REMARK    1  A    between atoms: N2_4  and  N3_6
REMARK       I    between atoms: C3_8  and  N5_10
REMARK    2  A    between atoms: N5_10  and  C4_12
REMARK    3  A    between atoms: N6_14  and  C6_15
ROOT
HETATM    1  N3  UNL     1      16.593   6.150  20.442  1.00  0.00    -0.273 N
ATOM      2  H3  UNL     1      17.558   5.834  20.543  1.00  0.00     0.189 HD
HETATM    3  C3  UNL     1      16.188   6.689  19.332  1.00  0.00     0.203 C
HETATM    4  N4  UNL     1      17.043   6.865  18.221  1.00  0.00    -0.062 NA
HETATM    5  N5  UNL     1      14.850   7.120  19.239  1.00  0.00    -0.355 N
ATOM      6  H5  UNL     1      14.131   6.711  19.836  1.00  0.00     0.162 HD
ENDROOT
BRANCH   5   7
HETATM    7  C4  UNL     1      14.509   8.157  18.282  1.00  0.00     0.141 C
HETATM    8  C5  UNL     1      14.802   9.567  18.704  1.00  0.00     0.299 C
HETATM    9  N6  UNL     1      13.384   9.867  18.603  1.00  0.00     0.097 N
HETATM   10  C11 UNL     1      13.023   8.502  18.456  1.00  0.00     0.299 C
BRANCH   9  11
HETATM   11  C6  UNL     1      12.847  10.624  19.704  1.00  0.00     0.223 C
HETATM   12  C7  UNL     1      13.270  10.180  21.060  1.00  0.00     0.036 C
HETATM   13  C8  UNL     1      12.081  10.561  21.939  1.00  0.00     0.002 C
HETATM   14  C9  UNL     1      10.904  10.194  21.078  1.00  0.00     0.002 C
HETATM   15  C10 UNL     1      11.325  10.436  19.645  1.00  0.00     0.036 C
ENDBRANCH   9  11
ENDBRANCH   5   7
BRANCH   1  16
HETATM   16  N2  UNL     1      15.711   6.013  21.464  1.00  0.00    -0.289 N
HETATM   17  C2  UNL     1      15.307   6.626  22.433  1.00  0.00     0.103 C
HETATM   18  C1  UNL     1      15.790   7.991  22.824  1.00  0.00     0.086 C
HETATM   19  N1  UNL     1      14.300   6.041  23.290  1.00  0.00    -0.087 NA
ATOM     20  H2  UNL     1      15.238   5.112  21.399  1.00  0.00     0.188 HD
ENDBRANCH   1  16
TORSDOF 3
ENDMDL