MODEL 4
REMARK VINA RESULT: -6.691003780      2.440      6.017
REMARK  10 active torsions:
REMARK  status: ('A' for Active; 'I' for Inactive)
REMARK    1  A    between atoms: N1_1  and  C1_4
REMARK    2  A    between atoms: C2_10  and  C3_11
REMARK    3  A    between atoms: C4_14  and  N5_15
REMARK    4  A    between atoms: N5_15  and  C5_16
REMARK    5  A    between atoms: C5_16  and  O2_17
REMARK    6  A    between atoms: C5_16  and  C6_19
REMARK    7  A    between atoms: C6_19  and  N6_20
REMARK    8  A    between atoms: C9_27  and  C10_28
REMARK    9  A    between atoms: C10_28  and  O4_29
REMARK   10  A    between atoms: C11_31  and  N7_32
ROOT
HETATM    1  C3  UNL     1      24.906 -17.133  10.282  1.00  0.00     0.183 A
HETATM    2  N4  UNL     1      24.271 -16.002  10.523  1.00  0.00    -0.308 N
ATOM      3  H4  UNL     1      24.129 -15.352   9.749  1.00  0.00     0.170 HD
HETATM    4  C4  UNL     1      23.787 -15.651  11.781  1.00  0.00     0.207 A
HETATM    5  C7  UNL     1      24.014 -16.583  12.802  1.00  0.00     0.124 A
HETATM    6  C8  UNL     1      24.676 -17.749  12.515  1.00  0.00     0.096 A
HETATM    7  O3  UNL     1      25.085 -17.959  11.273  1.00  0.00    -0.293 OA
HETATM    8  C9  UNL     1      24.929 -18.754  13.565  1.00  0.00     0.109 C
HETATM    9  C11 UNL     1      25.025 -18.089  14.904  1.00  0.00     0.287 C
HETATM   10  C12 UNL     1      23.838 -17.227  15.133  1.00  0.00     0.253 C
HETATM   11  O5  UNL     1      23.090 -17.300  16.129  1.00  0.00    -0.271 OA
HETATM   12  N8  UNL     1      23.552 -16.248  14.121  1.00  0.00    -0.319 N
ATOM     13  H8  UNL     1      23.057 -15.379  14.323  1.00  0.00     0.169 HD
ENDROOT
BRANCH   1  14
HETATM   14  C2  UNL     1      25.404 -17.465   8.926  1.00  0.00     0.153 A
HETATM   15  C1  UNL     1      25.385 -16.720   7.777  1.00  0.00     0.154 A
HETATM   16  N2  UNL     1      25.955 -17.453   6.807  1.00  0.00    -0.224 N
HETATM   17  O1  UNL     1      26.302 -18.583   7.338  1.00  0.00    -0.155 OA
ATOM     18  H2  UNL     1      26.090 -17.173   5.835  1.00  0.00     0.198 HD
HETATM   19  N3  UNL     1      25.984 -18.612   8.597  1.00  0.00    -0.234 N
ATOM     20  H3  UNL     1      26.153 -19.393   9.232  1.00  0.00     0.197 HD
BRANCH  15  21
HETATM   21  N1  UNL     1      24.890 -15.524   7.702  1.00  0.00    -0.382 N
ATOM     22  H12 UNL     1      25.228 -14.810   7.058  1.00  0.00     0.157 HD
ATOM     23  H11 UNL     1      24.127 -15.116   8.241  1.00  0.00     0.157 HD
ENDBRANCH  15  21
ENDBRANCH   1  14
BRANCH   4  24
HETATM   24  N5  UNL     1      23.217 -14.623  11.964  1.00  0.00    -0.394 NA
BRANCH  24  25
HETATM   25  C5  UNL     1      22.289 -13.679  12.119  1.00  0.00     0.325 C
BRANCH  25  26
HETATM   26  O2  UNL     1      21.641 -13.620  13.379  1.00  0.00    -0.364 OA
ATOM     27  H2  UNL     1      21.669 -12.788  13.837  1.00  0.00     0.213 HD
ENDBRANCH  25  26
BRANCH  25  28
HETATM   28  C6  UNL     1      22.786 -12.227  11.931  1.00  0.00     0.297 C
BRANCH  28  29
HETATM   29  N6  UNL     1      21.769 -11.452  11.273  1.00  0.00    -0.074 N
ATOM     30  H63 UNL     1      22.138 -10.926  10.482  1.00  0.00     0.274 HD
ATOM     31  H62 UNL     1      21.107 -12.037  10.764  1.00  0.00     0.274 HD
ATOM     32  H61 UNL     1      21.305 -10.851  11.954  1.00  0.00     0.274 HD
ENDBRANCH  28  29
ENDBRANCH  25  28
ENDBRANCH  24  25
ENDBRANCH   4  24
BRANCH   8  33
HETATM   33  C10 UNL     1      26.150 -19.574  13.255  1.00  0.00     0.178 C
BRANCH  33  34
HETATM   34  O4  UNL     1      26.427 -20.341  14.398  1.00  0.00    -0.400 OA
ATOM     35  H4  UNL     1      26.174 -19.817  15.149  1.00  0.00     0.209 HD
ENDBRANCH  33  34
ENDBRANCH   8  33
BRANCH   9  36
HETATM   36  N7  UNL     1      26.266 -17.332  14.939  1.00  0.00    -0.066 N
ATOM     37  H73 UNL     1      27.006 -17.760  14.381  1.00  0.00     0.275 HD
ATOM     38  H72 UNL     1      26.206 -16.450  14.430  1.00  0.00     0.275 HD
ATOM     39  H71 UNL     1      26.530 -17.208  15.916  1.00  0.00     0.275 HD
ENDBRANCH   9  36
TORSDOF 10
ENDMDL