MODEL 1
REMARK VINA RESULT: -9.025342738      0.000      0.000
REMARK  6 active torsions:
REMARK  status: ('A' for Active; 'I' for Inactive)
REMARK    1  A    between atoms: C3_4  and  C4_5
REMARK    2  A    between atoms: C5_8  and  N3_9
REMARK       I    between atoms: N3_9  and  C6_11
REMARK    3  A    between atoms: N5_13  and  O1_15
REMARK    4  A    between atoms: N8_21  and  C7_22
REMARK    5  A    between atoms: C7_22  and  N9_23
REMARK    6  A    between atoms: C9_25  and  O2_26
ROOT
HETATM    1  C4  UNL     1      25.533 -18.005  13.626  1.00  0.00     0.261 C
HETATM    2  N2  UNL     1      24.997 -17.968  14.950  1.00  0.00    -0.197 N
ATOM      3  H2  UNL     1      25.495 -18.419  15.717  1.00  0.00     0.180 HD
HETATM    4  C5  UNL     1      23.878 -17.363  15.169  1.00  0.00     0.698 C
HETATM    5  N6  UNL     1      23.242 -16.760  14.070  1.00  0.00    -0.117 N
ATOM      6  H6  UNL     1      22.235 -16.604  14.103  1.00  0.00     0.207 HD
HETATM    7  N7  UNL     1      23.941 -16.373  12.951  1.00  0.00    -0.223 N
ATOM      8  H7  UNL     1      23.535 -15.771  12.235  1.00  0.00     0.209 HD
HETATM    9  N8  UNL     1      25.220 -16.852  12.863  1.00  0.00    -0.248 N
ENDROOT
BRANCH   4  10
HETATM   10  N3  UNL     1      23.285 -17.284  16.450  1.00  0.00    -0.161 N
HETATM   11  C6  UNL     1      21.974 -17.763  16.679  1.00  0.00     0.226 C
HETATM   12  N4  UNL     1      21.124 -17.245  17.690  1.00  0.00    -0.061 NA
HETATM   13  N5  UNL     1      21.551 -18.717  15.922  1.00  0.00    -0.240 N
ATOM     14  H5  UNL     1      22.174 -19.078  15.200  1.00  0.00     0.197 HD
ATOM     15  H3  UNL     1      23.811 -16.875  17.222  1.00  0.00     0.187 HD
BRANCH  13  16
HETATM   16  O1  UNL     1      20.300 -19.266  16.044  1.00  0.00    -0.287 OA
ATOM     17  H1  UNL     1      20.066 -20.107  15.666  1.00  0.00     0.244 HD
ENDBRANCH  13  16
ENDBRANCH   4  10
BRANCH   1  18
HETATM   18  C3  UNL     1      27.032 -18.065  13.781  1.00  0.00     0.020 A
HETATM   19  C2  UNL     1      27.719 -18.677  14.820  1.00  0.00     0.122 A
HETATM   20  N1  UNL     1      29.050 -18.525  14.614  1.00  0.00    -0.307 N
HETATM   21  C1  UNL     1      30.151 -18.987  15.419  1.00  0.00     0.177 C
HETATM   22  N11 UNL     1      29.189 -17.839  13.482  1.00  0.00    -0.310 N
HETATM   23  C11 UNL     1      27.987 -17.550  12.960  1.00  0.00     0.119 A
ATOM     24  H11 UNL     1      30.082 -17.571  13.069  1.00  0.00     0.186 HD
ENDBRANCH   1  18
BRANCH   9  25
HETATM   25  C7  UNL     1      25.833 -16.788  11.583  1.00  0.00     0.193 C
BRANCH  25  26
HETATM   26  N9  UNL     1      24.963 -16.557  10.478  1.00  0.00    -0.191 NA
HETATM   27  C8  UNL     1      24.869 -17.789   9.712  1.00  0.00     0.149 C
HETATM   28  C9  UNL     1      25.966 -17.626   8.681  1.00  0.00     0.149 C
HETATM   29  C10 UNL     1      25.981 -16.137   8.472  1.00  0.00     0.162 C
HETATM   30  N10 UNL     1      25.337 -15.561   9.610  1.00  0.00    -0.157 NA
BRANCH  28  31
HETATM   31  O2  UNL     1      25.619 -18.309   7.513  1.00  0.00    -0.393 OA
ATOM     32  H2  UNL     1      24.920 -17.846   7.067  1.00  0.00     0.210 HD
ENDBRANCH  28  31
ENDBRANCH  25  26
ENDBRANCH   9  25
TORSDOF 6
ENDMDL