MODEL 1
REMARK VINA RESULT: -8.945751584      0.000      0.000
REMARK  6 active torsions:
REMARK  status: ('A' for Active; 'I' for Inactive)
REMARK    1  A    between atoms: C6_14  and  N5_15
REMARK    2  A    between atoms: N5_15  and  C7_17
REMARK    3  A    between atoms: C7_17  and  C8_18
REMARK    4  A    between atoms: C7_17  and  C13_30
REMARK    5  A    between atoms: C8_18  and  C9_19
REMARK    6  A    between atoms: C9_19  and  N6_20
ROOT
HETATM    1  N5  UNL     1      24.693 -17.741  12.545  1.00  0.00    -0.360 N
ATOM      2  H5  UNL     1      24.527 -18.743  12.640  1.00  0.00     0.162 HD
ENDROOT
BRANCH   1   3
HETATM    3  C6  UNL     1      24.640 -17.149  11.282  1.00  0.00     0.143 A
HETATM    4  C1  UNL     1      23.860 -15.903  11.141  1.00  0.00     0.144 A
HETATM    5  N1  UNL     1      23.238 -15.372  12.159  1.00  0.00    -0.382 N
HETATM    6  N2  UNL     1      23.833 -15.322   9.856  1.00  0.00    -0.330 N
ATOM      7  H12 UNL     1      22.699 -14.511  12.061  1.00  0.00     0.157 HD
ATOM      8  H11 UNL     1      23.258 -15.792  13.088  1.00  0.00     0.157 HD
HETATM    9  C2  UNL     1      24.434 -15.811   8.849  1.00  0.00     0.123 A
ATOM     10  H2  UNL     1      23.302 -14.460   9.728  1.00  0.00     0.168 HD
HETATM   11  N3  UNL     1      24.344 -15.134   7.563  1.00  0.00    -0.085 NA
HETATM   12  C3  UNL     1      25.216 -17.039   8.944  1.00  0.00     0.088 A
HETATM   13  C4  UNL     1      26.601 -16.899   8.239  1.00  0.00     0.041 A
HETATM   14  C5  UNL     1      25.572 -17.829   7.741  1.00  0.00     0.041 A
HETATM   15  N4  UNL     1      25.223 -17.594  10.238  1.00  0.00    -0.357 N
ATOM     16  H4  UNL     1      25.757 -18.455  10.355  1.00  0.00     0.162 HD
ENDBRANCH   1   3
BRANCH   1  17
HETATM   17  C7  UNL     1      24.984 -16.936  13.734  1.00  0.00     0.177 C
BRANCH  17  18
HETATM   18  C8  UNL     1      26.505 -17.035  13.987  1.00  0.00     0.079 C
BRANCH  18  19
HETATM   19  C9  UNL     1      27.024 -18.294  13.533  1.00  0.00     0.071 C
BRANCH  19  20
HETATM   20  N6  UNL     1      27.332 -19.342  14.456  1.00  0.00    -0.318 N
HETATM   21  C10 UNL     1      26.313 -20.400  14.489  1.00  0.00     0.256 A
HETATM   22  N7  UNL     1      26.624 -21.434  15.422  1.00  0.00    -0.348 N
HETATM   23  C11 UNL     1      27.653 -21.514  16.170  1.00  0.00     0.191 A
ATOM     24  H7  UNL     1      25.947 -22.193  15.499  1.00  0.00     0.163 HD
HETATM   25  N8  UNL     1      27.833 -22.628  17.070  1.00  0.00    -0.063 NA
HETATM   26  N9  UNL     1      28.621 -20.494  16.115  1.00  0.00    -0.304 N
HETATM   27  C12 UNL     1      28.438 -19.483  15.295  1.00  0.00     0.198 A
ATOM     28  H9  UNL     1      29.453 -20.538  16.704  1.00  0.00     0.171 HD
HETATM   29  N10 UNL     1      29.422 -18.457  15.238  1.00  0.00    -0.063 NA
ENDBRANCH  19  20
ENDBRANCH  18  19
ENDBRANCH  17  18
BRANCH  17  30
HETATM   30  C13 UNL     1      24.159 -17.370  14.861  1.00  0.00     0.254 C
HETATM   31  N11 UNL     1      22.813 -16.984  14.978  1.00  0.00    -0.060 NA
HETATM   32  O1  UNL     1      24.644 -18.108  15.748  1.00  0.00    -0.275 OA
ENDBRANCH  17  30
ENDBRANCH   1  17
TORSDOF 6
ENDMDL