MODEL 5
REMARK VINA RESULT: -6.601553187      2.987      3.902
REMARK  8 active torsions:
REMARK  status: ('A' for Active; 'I' for Inactive)
REMARK    1  A    between atoms: N1_1  and  C1_4
REMARK    2  A    between atoms: C2_7  and  N3_8
REMARK    3  A    between atoms: C5_16  and  C6_17
REMARK    4  A    between atoms: C6_17  and  C7_19
REMARK    5  A    between atoms: C7_19  and  O2_20
REMARK    6  A    between atoms: C7_19  and  O3_22
REMARK    7  A    between atoms: C9_25  and  C10_26
REMARK    8  A    between atoms: C10_26  and  O4_27
ROOT
HETATM    1  N3  UNL     1      25.211 -18.221  12.312  1.00  0.00    -0.203 N
HETATM    2  C3  UNL     1      25.116 -18.996  11.098  1.00  0.00     0.164 C
HETATM    3  C4  UNL     1      24.753 -18.294   9.873  1.00  0.00     0.171 C
HETATM    4  N4  UNL     1      24.331 -16.924  10.115  1.00  0.00    -0.276 N
HETATM    5  N5  UNL     1      24.067 -16.025   9.147  1.00  0.00    -0.240 N
ATOM      6  H5  UNL     1      24.136 -16.187   8.142  1.00  0.00     0.208 HD
HETATM    7  N6  UNL     1      23.709 -14.911   9.723  1.00  0.00    -0.281 N
ATOM      8  H6  UNL     1      23.451 -14.056   9.230  1.00  0.00     0.188 HD
HETATM    9  C5  UNL     1      23.731 -15.054  11.054  1.00  0.00     0.127 A
HETATM   10  C8  UNL     1      24.132 -16.352  11.284  1.00  0.00     0.087 A
HETATM   11  C9  UNL     1      24.337 -17.073  12.558  1.00  0.00     0.179 C
ENDROOT
BRANCH   1  12
HETATM   12  C2  UNL     1      26.184 -18.623  13.268  1.00  0.00     0.710 A
HETATM   13  N2  UNL     1      27.341 -17.950  13.379  1.00  0.00    -0.021 N
HETATM   14  C1  UNL     1      28.303 -18.288  14.245  1.00  0.00     0.705 A
ATOM     15  H2  UNL     1      27.494 -17.143  12.774  1.00  0.00     0.203 HD
HETATM   16  N9  UNL     1      28.147 -19.333  15.053  1.00  0.00    -0.022 N
HETATM   17  C11 UNL     1      26.981 -20.040  14.965  1.00  0.00     0.705 A
ATOM     18  H9  UNL     1      28.874 -19.598  15.717  1.00  0.00     0.203 HD
HETATM   19  N7  UNL     1      26.022 -19.676  14.078  1.00  0.00    -0.021 N
HETATM   20  N8  UNL     1      26.847 -21.057  15.744  1.00  0.00    -0.234 N
ATOM     21  H7  UNL     1      25.158 -20.215  14.027  1.00  0.00     0.203 HD
ATOM     22  H82 UNL     1      25.976 -21.585  15.678  1.00  0.00     0.174 HD
ATOM     23  H81 UNL     1      27.568 -21.332  16.411  1.00  0.00     0.174 HD
BRANCH  14  24
HETATM   24  N1  UNL     1      29.418 -17.598  14.324  1.00  0.00    -0.234 N
ATOM     25  H12 UNL     1      29.441 -16.780  14.932  1.00  0.00     0.174 HD
ATOM     26  H11 UNL     1      30.243 -17.867  13.788  1.00  0.00     0.174 HD
ENDBRANCH  14  24
ENDBRANCH   1  12
BRANCH  11  27
HETATM   27  C10 UNL     1      23.111 -17.575  13.224  1.00  0.00     0.196 C
BRANCH  27  28
HETATM   28  O4  UNL     1      23.095 -17.139  14.573  1.00  0.00    -0.398 OA
ATOM     29  H4  UNL     1      22.701 -17.811  15.118  1.00  0.00     0.209 HD
ENDBRANCH  27  28
ENDBRANCH  11  27
BRANCH   9  30
HETATM   30  C6  UNL     1      23.374 -14.005  11.975  1.00  0.00     0.233 C
HETATM   31  O1  UNL     1      24.255 -13.530  12.735  1.00  0.00    -0.285 OA
BRANCH  30  32
HETATM   32  C7  UNL     1      22.002 -13.445  12.080  1.00  0.00     0.332 C
BRANCH  32  33
HETATM   33  O2  UNL     1      21.879 -12.312  11.293  1.00  0.00    -0.365 OA
ATOM     34  H2  UNL     1      20.968 -12.157  11.074  1.00  0.00     0.213 HD
ENDBRANCH  32  33
BRANCH  32  35
HETATM   35  O3  UNL     1      21.726 -13.073  13.390  1.00  0.00    -0.365 OA
ATOM     36  H3  UNL     1      22.503 -13.154  13.931  1.00  0.00     0.213 HD
ENDBRANCH  32  35
ENDBRANCH  30  32
ENDBRANCH   9  30
TORSDOF 8
ENDMDL