MODEL 5
REMARK VINA RESULT: -7.050489730      1.369      1.682
REMARK  12 active torsions:
REMARK  status: ('A' for Active; 'I' for Inactive)
REMARK    1  A    between atoms: N1_1  and  C1_4
REMARK    2  A    between atoms: N3_7  and  C2_8
REMARK    3  A    between atoms: C2_8  and  O1_9
REMARK    4  A    between atoms: O1_9  and  C3_10
REMARK    5  A    between atoms: C3_10  and  O2_11
REMARK    6  A    between atoms: C3_10  and  O3_13
REMARK    7  A    between atoms: C3_10  and  C4_15
REMARK    8  A    between atoms: C4_15  and  O4_16
REMARK    9  A    between atoms: C4_15  and  C5_18
REMARK   10  A    between atoms: C5_18  and  O5_19
REMARK   11  A    between atoms: C8_27  and  N6_28
REMARK   12  A    between atoms: N6_28  and  C9_29
ROOT
HETATM    1  C1  UNL     1      25.111 -18.784  11.513  1.00  0.00     0.133 A
HETATM    2  N2  UNL     1      24.571 -18.022  10.523  1.00  0.00    -0.279 N
ATOM      3  H2  UNL     1      24.614 -18.247   9.529  1.00  0.00     0.189 HD
HETATM    4  N3  UNL     1      23.987 -16.959  11.024  1.00  0.00    -0.250 N
HETATM    5  C6  UNL     1      24.138 -17.007  12.379  1.00  0.00     0.144 A
HETATM    6  N4  UNL     1      23.728 -16.169  13.321  1.00  0.00    -0.336 N
ATOM      7  H4  UNL     1      23.208 -15.325  13.081  1.00  0.00     0.168 HD
HETATM    8  C7  UNL     1      24.015 -16.460  14.598  1.00  0.00     0.184 A
HETATM    9  N5  UNL     1      24.690 -17.547  14.948  1.00  0.00    -0.326 N
ATOM     10  H5  UNL     1      24.877 -17.711  15.937  1.00  0.00     0.169 HD
HETATM   11  C8  UNL     1      25.153 -18.472  14.017  1.00  0.00     0.201 A
HETATM   12  C12 UNL     1      24.850 -18.163  12.696  1.00  0.00     0.113 A
ENDROOT
BRANCH   4  13
HETATM   13  C2  UNL     1      23.292 -15.953  10.282  1.00  0.00     0.325 C
BRANCH  13  14
HETATM   14  O1  UNL     1      23.459 -16.049   8.955  1.00  0.00    -0.309 OA
BRANCH  14  15
HETATM   15  C3  UNL     1      24.588 -15.665   8.336  1.00  0.00     0.309 C
BRANCH  15  16
HETATM   16  O2  UNL     1      25.604 -15.230   9.186  1.00  0.00    -0.341 OA
ATOM     17  H2  UNL     1      25.326 -15.037  10.074  1.00  0.00     0.215 HD
ENDBRANCH  15  16
BRANCH  15  18
HETATM   18  O3  UNL     1      24.387 -14.715   7.364  1.00  0.00    -0.341 OA
ATOM     19  H3  UNL     1      24.819 -13.888   7.545  1.00  0.00     0.215 HD
ENDBRANCH  15  18
BRANCH  15  20
HETATM   20  C4  UNL     1      25.112 -16.930   7.597  1.00  0.00     0.234 C
BRANCH  20  21
HETATM   21  O4  UNL     1      24.594 -16.915   6.306  1.00  0.00    -0.385 OA
ATOM     22  H4  UNL     1      25.323 -16.966   5.699  1.00  0.00     0.210 HD
ENDBRANCH  20  21
BRANCH  20  23
HETATM   23  C5  UNL     1      26.617 -16.891   7.534  1.00  0.00     0.204 C
BRANCH  23  24
HETATM   24  O5  UNL     1      27.085 -15.843   6.770  1.00  0.00    -0.398 OA
ATOM     25  H5  UNL     1      26.575 -15.716   5.979  1.00  0.00     0.209 HD
ENDBRANCH  23  24
ENDBRANCH  20  23
ENDBRANCH  15  20
ENDBRANCH  14  15
ENDBRANCH  13  14
ENDBRANCH   4  13
BRANCH   1  26
HETATM   26  N1  UNL     1      25.749 -19.885  11.355  1.00  0.00    -0.384 N
ATOM     27  H12 UNL     1      26.573 -20.186  11.875  1.00  0.00     0.157 HD
ATOM     28  H11 UNL     1      25.521 -20.619  10.685  1.00  0.00     0.157 HD
ENDBRANCH   1  26
BRANCH  11  29
HETATM   29  N6  UNL     1      25.756 -19.444  14.367  1.00  0.00    -0.352 NA
BRANCH  29  30
HETATM   30  C9  UNL     1      26.648 -20.230  14.982  1.00  0.00     0.253 C
HETATM   31  N7  UNL     1      27.906 -19.954  15.303  1.00  0.00    -0.349 N
HETATM   32  C10 UNL     1      28.552 -21.045  15.955  1.00  0.00     0.143 C
ATOM     33  H7  UNL     1      28.359 -19.062  15.106  1.00  0.00     0.163 HD
HETATM   34  C11 UNL     1      27.382 -21.918  16.451  1.00  0.00     0.143 C
HETATM   35  N8  UNL     1      26.430 -21.597  15.416  1.00  0.00    -0.349 N
ATOM     36  H8  UNL     1      25.719 -22.229  15.049  1.00  0.00     0.163 HD
ENDBRANCH  29  30
ENDBRANCH  11  29
TORSDOF 12
ENDMDL