MODEL 1
REMARK VINA RESULT: -5.899846932      0.000      0.000
REMARK  9 active torsions:
REMARK  status: ('A' for Active; 'I' for Inactive)
REMARK    1  A    between atoms: O1_2  and  C2_3
REMARK    2  A    between atoms: C2_3  and  O2_4
REMARK    3  A    between atoms: C2_3  and  C3_6
REMARK    4  A    between atoms: C4_7  and  N1_8
REMARK    5  A    between atoms: C6_13  and  N2_14
REMARK    6  A    between atoms: C7_18  and  O3_19
REMARK    7  A    between atoms: O3_19  and  C8_20
REMARK    8  A    between atoms: C11_33  and  O4_34
REMARK    9  A    between atoms: C11_33  and  N8_36
ROOT
HETATM    1  C3  UNL     1      25.228 -15.751  10.437  1.00  0.00     0.129 C
HETATM    2  C4  UNL     1      24.293 -14.919  11.229  1.00  0.00     0.199 C
HETATM    3  C5  UNL     1      23.678 -15.536  12.437  1.00  0.00     0.069 C
HETATM    4  C6  UNL     1      24.386 -16.702  13.017  1.00  0.00     0.219 C
HETATM    5  C7  UNL     1      25.316 -17.442  12.152  1.00  0.00     0.218 C
HETATM    6  C11 UNL     1      25.224 -17.219  10.660  1.00  0.00     0.168 C
ENDROOT
BRANCH   5   7
HETATM    7  O3  UNL     1      26.651 -17.063  12.537  1.00  0.00    -0.309 OA
BRANCH   7   8
HETATM    8  C8  UNL     1      27.413 -17.788  13.407  1.00  0.00     0.240 A
HETATM    9  N3  UNL     1      28.704 -17.547  13.699  1.00  0.00    -0.295 N
HETATM   10  C9  UNL     1      29.348 -18.348  14.587  1.00  0.00     0.209 A
ATOM     11  H3  UNL     1      29.195 -16.770  13.258  1.00  0.00     0.172 HD
HETATM   12  N4  UNL     1      30.693 -18.062  14.864  1.00  0.00    -0.062 NA
HETATM   13  N5  UNL     1      28.755 -19.376  15.192  1.00  0.00    -0.163 N
HETATM   14  C10 UNL     1      27.459 -19.624  14.903  1.00  0.00     0.681 A
ATOM     15  H5  UNL     1      29.266 -19.960  15.854  1.00  0.00     0.187 HD
HETATM   16  N6  UNL     1      26.836 -20.595  15.452  1.00  0.00    -0.234 N
HETATM   17  N7  UNL     1      26.826 -18.829  14.024  1.00  0.00    -0.155 N
ATOM     18  H62 UNL     1      27.317 -21.199  16.120  1.00  0.00     0.174 HD
ATOM     19  H61 UNL     1      25.857 -20.782  15.234  1.00  0.00     0.174 HD
ATOM     20  H7  UNL     1      25.847 -19.026  13.814  1.00  0.00     0.188 HD
ENDBRANCH   7   8
ENDBRANCH   5   7
BRANCH   4  21
HETATM   21  N2  UNL     1      23.440 -17.648  13.619  1.00  0.00    -0.072 N
ATOM     22  H23 UNL     1      22.555 -17.198  13.851  1.00  0.00     0.274 HD
ATOM     23  H22 UNL     1      23.096 -18.323  12.936  1.00  0.00     0.274 HD
ATOM     24  H21 UNL     1      23.851 -18.111  14.430  1.00  0.00     0.274 HD
ENDBRANCH   4  21
BRANCH   6  25
HETATM   25  O4  UNL     1      26.531 -17.626  10.213  1.00  0.00    -0.368 OA
ATOM     26  H4  UNL     1      26.765 -18.317  10.822  1.00  0.00     0.212 HD
ENDBRANCH   6  25
BRANCH   6  27
HETATM   27  N8  UNL     1      24.381 -18.052   9.950  1.00  0.00    -0.389 N
HETATM   28  C12 UNL     1      23.180 -18.591  10.378  1.00  0.00     0.145 C
HETATM   29  C13 UNL     1      25.077 -19.059   9.163  1.00  0.00     0.145 C
ENDBRANCH   6  27
BRANCH   1  30
HETATM   30  C2  UNL     1      25.236 -15.311   8.989  1.00  0.00     0.267 C
BRANCH  30  31
HETATM   31  O1  UNL     1      24.243 -15.904   8.215  1.00  0.00    -0.366 OA
HETATM   32  C1  UNL     1      24.728 -16.042   6.921  1.00  0.00     0.204 C
ENDBRANCH  30  31
BRANCH  30  33
HETATM   33  O2  UNL     1      26.428 -15.844   8.385  1.00  0.00    -0.371 OA
ATOM     34  H2  UNL     1      26.808 -15.066   7.996  1.00  0.00     0.212 HD
ENDBRANCH  30  33
ENDBRANCH   1  30
BRANCH   2  35
HETATM   35  N1  UNL     1      23.298 -14.215  10.418  1.00  0.00    -0.074 N
ATOM     36  H13 UNL     1      23.614 -14.134   9.451  1.00  0.00     0.274 HD
ATOM     37  H12 UNL     1      22.471 -14.795  10.280  1.00  0.00     0.274 HD
ATOM     38  H11 UNL     1      23.038 -13.301  10.788  1.00  0.00     0.274 HD
ENDBRANCH   2  35
TORSDOF 9
ENDMDL