MODEL 3
REMARK VINA RESULT: -8.154215843      3.246      7.061
REMARK  8 active torsions:
REMARK  status: ('A' for Active; 'I' for Inactive)
REMARK    1  A    between atoms: N1_1  and  C1_4
REMARK    2  A    between atoms: N3_8  and  C3_9
REMARK    3  A    between atoms: C3_9  and  C4_10
REMARK    4  A    between atoms: C4_10  and  N4_11
REMARK    5  A    between atoms: N4_11  and  N5_13
REMARK    6  A    between atoms: N5_13  and  N6_15
REMARK    7  A    between atoms: C5_17  and  C6_18
REMARK    8  A    between atoms: N10_29  and  N11_31
ROOT
HETATM    1  C4  UNL     1      24.687 -17.332  14.490  1.00  0.00     0.130 C
HETATM    2  N10 UNL     1      23.955 -17.007  15.498  1.00  0.00    -0.293 N
ATOM      3  H10 UNL     1      23.732 -16.017  15.606  1.00  0.00     0.187 HD
ENDROOT
BRANCH   1   4
HETATM    4  C3  UNL     1      25.088 -18.730  14.210  1.00  0.00     0.227 C
BRANCH   4   5
HETATM    5  N3  UNL     1      26.453 -18.980  14.654  1.00  0.00    -0.172 N
HETATM    6  C2  UNL     1      27.340 -17.940  14.618  1.00  0.00     0.218 A
HETATM    7  N2  UNL     1      28.609 -18.065  14.975  1.00  0.00    -0.187 N
HETATM    8  C1  UNL     1      29.040 -19.274  15.394  1.00  0.00     0.691 A
ATOM      9  H2  UNL     1      29.244 -17.268  14.934  1.00  0.00     0.185 HD
HETATM   10  N13 UNL     1      28.216 -20.320  15.449  1.00  0.00    -0.023 N
HETATM   11  C10 UNL     1      26.908 -20.156  15.071  1.00  0.00     0.693 A
ATOM     12  H13 UNL     1      28.553 -21.229  15.768  1.00  0.00     0.203 HD
HETATM   13  N12 UNL     1      26.174 -21.191  15.173  1.00  0.00    -0.234 N
ATOM     14 2H12 UNL     1      25.201 -21.068  14.891  1.00  0.00     0.174 HD
ATOM     15 1H12 UNL     1      26.524 -22.094  15.493  1.00  0.00     0.174 HD
BRANCH   8  16
HETATM   16  N1  UNL     1      30.280 -19.430  15.751  1.00  0.00    -0.234 N
ATOM     17  H12 UNL     1      30.999 -19.482  15.030  1.00  0.00     0.174 HD
ATOM     18  H11 UNL     1      30.518 -19.496  16.740  1.00  0.00     0.174 HD
ENDBRANCH   8  16
ENDBRANCH   4   5
ENDBRANCH   1   4
BRANCH   1  19
HETATM   19  N4  UNL     1      25.117 -16.305  13.625  1.00  0.00    -0.272 N
ATOM     20  H4  UNL     1      26.117 -16.125  13.530  1.00  0.00     0.190 HD
BRANCH  19  21
HETATM   21  N5  UNL     1      24.306 -15.601  12.965  1.00  0.00    -0.242 N
ATOM     22  H5  UNL     1      23.566 -15.087  13.442  1.00  0.00     0.208 HD
BRANCH  21  23
HETATM   23  N6  UNL     1      24.428 -15.531  11.587  1.00  0.00    -0.296 N
HETATM   24  C5  UNL     1      24.647 -16.582  10.885  1.00  0.00     0.129 C
ATOM     25  H6  UNL     1      24.341 -14.627  11.123  1.00  0.00     0.187 HD
BRANCH  24  26
HETATM   26  C6  UNL     1      24.765 -16.442   9.446  1.00  0.00     0.090 A
HETATM   27  C7  UNL     1      25.684 -17.217   8.751  1.00  0.00     0.137 A
HETATM   28  N7  UNL     1      26.485 -18.126   9.466  1.00  0.00    -0.081 NA
HETATM   29  N8  UNL     1      25.792 -17.085   7.410  1.00  0.00    -0.296 N
HETATM   30  C8  UNL     1      25.044 -16.228   6.695  1.00  0.00     0.328 A
ATOM     31  H8  UNL     1      26.473 -17.663   6.918  1.00  0.00     0.171 HD
HETATM   32  O1  UNL     1      25.169 -16.129   5.440  1.00  0.00    -0.247 OA
HETATM   33  N9  UNL     1      24.152 -15.476   7.364  1.00  0.00    -0.275 N
HETATM   34  C9  UNL     1      24.004 -15.567   8.706  1.00  0.00     0.264 A
ATOM     35  H9  UNL     1      23.571 -14.817   6.845  1.00  0.00     0.173 HD
HETATM   36  O2  UNL     1      23.160 -14.852   9.321  1.00  0.00    -0.267 OA
ENDBRANCH  24  26
ENDBRANCH  21  23
ENDBRANCH  19  21
ENDBRANCH   1  19
BRANCH   2  37
HETATM   37  N11 UNL     1      23.448 -17.864  16.439  1.00  0.00    -0.344 N
ATOM     38 2H11 UNL     1      24.000 -18.702  16.620  1.00  0.00     0.176 HD
ATOM     39 1H11 UNL     1      22.582 -17.739  16.964  1.00  0.00     0.176 HD
ENDBRANCH   2  37
TORSDOF 8
ENDMDL