MODEL 5
REMARK VINA RESULT: -8.792236560      1.476      5.458
REMARK  8 active torsions:
REMARK  status: ('A' for Active; 'I' for Inactive)
REMARK       I    between atoms: C1_2  and  N10_31
REMARK    1  A    between atoms: N2_3  and  N3_5
REMARK    2  A    between atoms: C2_7  and  N4_8
REMARK    3  A    between atoms: C2_7  and  C7_24
REMARK    4  A    between atoms: C3_10  and  C4_12
REMARK    5  A    between atoms: C6_21  and  O2_22
REMARK    6  A    between atoms: C7_24  and  O3_25
REMARK    7  A    between atoms: N9_27  and  O4_29
REMARK    8  A    between atoms: N10_31  and  N11_33
ROOT
HETATM    1  N3  UNL     1      25.224 -18.094  15.389  1.00  0.00    -0.279 N
ATOM      2  H3  UNL     1      24.978 -18.376  16.339  1.00  0.00     0.189 HD
HETATM    3  C2  UNL     1      24.276 -17.482  14.896  1.00  0.00     0.175 C
ENDROOT
BRANCH   3   4
HETATM    4  N4  UNL     1      24.315 -16.951  13.567  1.00  0.00    -0.324 N
HETATM    5  C3  UNL     1      24.369 -17.669  12.506  1.00  0.00     0.150 C
HETATM    6  N5  UNL     1      24.394 -19.073  12.562  1.00  0.00    -0.080 NA
ATOM      7  H4  UNL     1      24.298 -15.938  13.457  1.00  0.00     0.169 HD
BRANCH   5   8
HETATM    8  C4  UNL     1      24.406 -16.994  11.222  1.00  0.00     0.140 A
HETATM    9  N6  UNL     1      23.389 -16.191  10.822  1.00  0.00    -0.290 N
HETATM   10  N7  UNL     1      23.387 -15.561   9.667  1.00  0.00    -0.251 N
ATOM     11  H6  UNL     1      22.590 -16.071  11.445  1.00  0.00     0.187 HD
HETATM   12  C5  UNL     1      24.402 -15.662   8.779  1.00  0.00     0.340 A
ATOM     13  H7  UNL     1      22.587 -14.973   9.432  1.00  0.00     0.191 HD
HETATM   14  O1  UNL     1      24.413 -15.064   7.670  1.00  0.00    -0.245 OA
HETATM   15  N8  UNL     1      25.437 -16.446   9.126  1.00  0.00    -0.286 N
HETATM   16  C6  UNL     1      25.442 -17.103  10.326  1.00  0.00     0.176 A
ATOM     17  H8  UNL     1      26.226 -16.551   8.488  1.00  0.00     0.172 HD
BRANCH  16  18
HETATM   18  O2  UNL     1      26.525 -17.903  10.651  1.00  0.00    -0.344 OA
ATOM     19  H2  UNL     1      27.397 -17.526  10.627  1.00  0.00     0.219 HD
ENDBRANCH  16  18
ENDBRANCH   5   8
ENDBRANCH   3   4
BRANCH   3  20
HETATM   20  C7  UNL     1      23.007 -17.258  15.659  1.00  0.00     0.206 C
HETATM   21  N9  UNL     1      22.776 -17.812  16.784  1.00  0.00    -0.244 N
ATOM     22  H9  UNL     1      23.495 -18.428  17.161  1.00  0.00     0.196 HD
BRANCH  20  23
HETATM   23  O3  UNL     1      22.096 -16.402  15.064  1.00  0.00    -0.342 OA
ATOM     24  H3  UNL     1      22.171 -15.488  15.312  1.00  0.00     0.219 HD
ENDBRANCH  20  23
BRANCH  21  25
HETATM   25  O4  UNL     1      21.648 -17.647  17.516  1.00  0.00    -0.288 OA
ATOM     26  H4  UNL     1      20.959 -18.293  17.613  1.00  0.00     0.244 HD
ENDBRANCH  21  25
ENDBRANCH   3  20
BRANCH   1  27
HETATM   27  N2  UNL     1      26.409 -18.502  15.128  1.00  0.00    -0.271 N
HETATM   28  C1  UNL     1      27.081 -19.493  14.797  1.00  0.00     0.226 C
HETATM   29  N1  UNL     1      26.554 -20.799  14.556  1.00  0.00    -0.060 NA
HETATM   30  N10 UNL     1      28.513 -19.290  14.651  1.00  0.00    -0.212 N
ATOM     31  H10 UNL     1      29.180 -19.976  15.007  1.00  0.00     0.196 HD
ATOM     32  H2  UNL     1      27.045 -17.711  15.232  1.00  0.00     0.189 HD
BRANCH  30  33
HETATM   33  N11 UNL     1      28.946 -18.140  14.016  1.00  0.00    -0.036 N
HETATM   34  O5  UNL     1      28.320 -17.605  13.079  1.00  0.00    -0.516 OA
HETATM   35  O6  UNL     1      30.129 -17.552  14.436  1.00  0.00    -0.516 OA
ENDBRANCH  30  33
ENDBRANCH   1  27
TORSDOF 8
ENDMDL