MODEL 1
REMARK VINA RESULT: -6.562023350      0.000      0.000
REMARK  8 active torsions:
REMARK  status: ('A' for Active; 'I' for Inactive)
REMARK    1  A    between atoms: C3_6  and  N3_7
REMARK    2  A    between atoms: C5_9  and  N4_10
REMARK    3  A    between atoms: C6_14  and  O1_15
REMARK    4  A    between atoms: C9_20  and  N5_21
REMARK    5  A    between atoms: N5_21  and  N6_23
REMARK    6  A    between atoms: N6_23  and  N7_25
REMARK    7  A    between atoms: C10_30  and  C11_31
REMARK    8  A    between atoms: C11_31  and  N9_32
REMARK       I    between atoms: N9_32  and  C12_35
REMARK       I    between atoms: C12_35  and  N10_36
REMARK       I    between atoms: C12_35  and  N11_40
ROOT
HETATM    1  N1  UNL     1      25.754 -15.897   8.972  1.00  0.00    -0.190 NA
HETATM    2  C1  UNL     1      25.468 -16.148  10.087  1.00  0.00     0.119 C
HETATM    3  C2  UNL     1      25.130 -16.487  11.461  1.00  0.00     0.140 A
HETATM    4  N2  UNL     1      26.005 -16.978  12.310  1.00  0.00    -0.329 N
ATOM      5  H2  UNL     1      26.949 -17.195  11.990  1.00  0.00     0.168 HD
HETATM    6  C3  UNL     1      25.674 -17.199  13.599  1.00  0.00     0.157 A
HETATM    7  C9  UNL     1      24.393 -16.896  14.134  1.00  0.00     0.167 A
HETATM    8  N8  UNL     1      23.533 -16.419  13.219  1.00  0.00    -0.338 N
ATOM      9  H8  UNL     1      22.581 -16.195  13.509  1.00  0.00     0.167 HD
HETATM   10  C10 UNL     1      23.868 -16.234  11.977  1.00  0.00     0.074 A
ENDROOT
BRANCH  10  11
HETATM   11  C11 UNL     1      22.900 -15.991  10.858  1.00  0.00     0.296 C
BRANCH  11  12
HETATM   12  N9  UNL     1      23.110 -14.579  10.455  1.00  0.00    -0.017 N
HETATM   13  C12 UNL     1      22.843 -13.797  11.710  1.00  0.00     0.576 C
HETATM   14  N10 UNL     1      21.502 -13.705  12.121  1.00  0.00    -0.026 N
HETATM   15  N11 UNL     1      23.629 -12.615  11.823  1.00  0.00    -0.026 N
ATOM     16 3H10 UNL     1      20.934 -13.334  11.359  1.00  0.00     0.278 HD
ATOM     17 2H10 UNL     1      21.106 -14.642  12.210  1.00  0.00     0.278 HD
ATOM     18 1H10 UNL     1      21.320 -13.174  12.973  1.00  0.00     0.278 HD
ATOM     19 3H11 UNL     1      24.621 -12.833  11.739  1.00  0.00     0.278 HD
ATOM     20 2H11 UNL     1      23.513 -12.025  11.000  1.00  0.00     0.278 HD
ATOM     21 1H11 UNL     1      23.447 -12.084  12.675  1.00  0.00     0.278 HD
ATOM     22  H92 UNL     1      24.021 -14.395  10.033  1.00  0.00     0.282 HD
ATOM     23  H91 UNL     1      22.554 -14.285   9.652  1.00  0.00     0.282 HD
ENDBRANCH  11  12
ENDBRANCH  10  11
BRANCH   6  24
HETATM   24  N3  UNL     1      26.499 -18.135  14.331  1.00  0.00    -0.298 N
HETATM   25  C4  UNL     1      27.499 -17.585  15.246  1.00  0.00     0.169 C
HETATM   26  C5  UNL     1      28.741 -18.491  15.078  1.00  0.00     0.230 C
HETATM   27  C6  UNL     1      28.415 -19.811  15.743  1.00  0.00     0.159 C
HETATM   28  C7  UNL     1      27.095 -20.317  15.289  1.00  0.00     0.137 C
HETATM   29  C8  UNL     1      26.546 -19.522  14.142  1.00  0.00     0.228 C
HETATM   30  O2  UNL     1      26.188 -20.132  13.070  1.00  0.00    -0.273 OA
BRANCH  26  31
HETATM   31  N4  UNL     1      29.008 -18.762  13.660  1.00  0.00    -0.071 N
ATOM     32  H43 UNL     1      28.227 -19.246  13.216  1.00  0.00     0.274 HD
ATOM     33  H42 UNL     1      28.997 -17.906  13.105  1.00  0.00     0.274 HD
ATOM     34  H41 UNL     1      29.882 -19.274  13.543  1.00  0.00     0.274 HD
ENDBRANCH  26  31
BRANCH  27  35
HETATM   35  O1  UNL     1      29.363 -20.741  15.420  1.00  0.00    -0.393 OA
ATOM     36  H1  UNL     1      28.948 -21.512  15.051  1.00  0.00     0.210 HD
ENDBRANCH  27  35
ENDBRANCH   6  24
BRANCH   7  37
HETATM   37  N5  UNL     1      24.240 -16.962  15.525  1.00  0.00    -0.268 N
ATOM     38  H5  UNL     1      24.855 -16.375  16.088  1.00  0.00     0.190 HD
BRANCH  37  39
HETATM   39  N6  UNL     1      23.391 -17.699  16.162  1.00  0.00    -0.248 N
ATOM     40  H6  UNL     1      23.727 -18.516  16.674  1.00  0.00     0.207 HD
BRANCH  39  41
HETATM   41  N7  UNL     1      22.021 -17.405  16.168  1.00  0.00    -0.331 N
ATOM     42  H72 UNL     1      21.366 -18.163  16.364  1.00  0.00     0.178 HD
ATOM     43  H71 UNL     1      21.675 -16.464  15.981  1.00  0.00     0.178 HD
ENDBRANCH  39  41
ENDBRANCH  37  39
ENDBRANCH   7  37
TORSDOF 8
ENDMDL