MODEL 2
REMARK VINA RESULT: -6.380183484      2.836      6.361
REMARK  10 active torsions:
REMARK  status: ('A' for Active; 'I' for Inactive)
REMARK       I    between atoms: N1_2  and  C2_4
REMARK    1  A    between atoms: C2_4  and  C3_6
REMARK    2  A    between atoms: C4_9  and  N3_10
REMARK       I    between atoms: N3_10  and  C5_12
REMARK    3  A    between atoms: C5_12  and  C6_14
REMARK    4  A    between atoms: C7_15  and  N4_16
REMARK    5  A    between atoms: N4_16  and  O3_18
REMARK    6  A    between atoms: C8_21  and  N6_22
REMARK    7  A    between atoms: N7_25  and  N8_26
REMARK    8  A    between atoms: C10_32  and  C11_33
REMARK    9  A    between atoms: C11_33  and  O4_34
REMARK   10  A    between atoms: C11_33  and  O5_36
ROOT
HETATM    1  C3  UNL     1      25.211 -16.279   9.439  1.00  0.00     0.131 A
HETATM    2  N2  UNL     1      24.819 -15.228  10.243  1.00  0.00    -0.184 N
ATOM      3  H2  UNL     1      24.607 -14.329   9.811  1.00  0.00     0.184 HD
HETATM    4  C4  UNL     1      24.706 -15.351  11.572  1.00  0.00     0.708 A
HETATM    5  N5  UNL     1      24.987 -16.545  12.149  1.00  0.00     0.043 N
HETATM    6  C8  UNL     1      24.959 -16.936  13.438  1.00  0.00     0.735 A
HETATM    7  N7  UNL     1      25.330 -18.246  13.497  1.00  0.00    -0.025 N
HETATM    8  N9  UNL     1      25.572 -18.603  12.238  1.00  0.00    -0.247 N
ATOM      9  H9  UNL     1      25.874 -19.535  11.952  1.00  0.00     0.191 HD
HETATM   10  C9  UNL     1      25.372 -17.597  11.408  1.00  0.00     0.177 A
HETATM   11  C10 UNL     1      25.494 -17.486  10.013  1.00  0.00     0.076 A
ENDROOT
BRANCH   4  12
HETATM   12  N3  UNL     1      24.346 -14.400  12.334  1.00  0.00    -0.155 N
HETATM   13  C5  UNL     1      23.120 -13.728  12.318  1.00  0.00     0.260 C
HETATM   14  O2  UNL     1      22.090 -14.289  12.774  1.00  0.00    -0.268 OA
ATOM     15  H3  UNL     1      25.024 -14.094  13.032  1.00  0.00     0.187 HD
BRANCH  13  16
HETATM   16  C6  UNL     1      23.047 -12.376  11.769  1.00  0.00     0.094 C
HETATM   17  C7  UNL     1      21.920 -11.685  11.746  1.00  0.00     0.119 C
BRANCH  17  18
HETATM   18  N4  UNL     1      21.890 -10.373  11.204  1.00  0.00    -0.280 N
ATOM     19  H4  UNL     1      22.709  -9.777  11.317  1.00  0.00     0.193 HD
BRANCH  18  20
HETATM   20  O3  UNL     1      20.829  -9.890  10.551  1.00  0.00    -0.290 OA
ATOM     21  H3  UNL     1      19.967 -10.285  10.612  1.00  0.00     0.244 HD
ENDBRANCH  18  20
ENDBRANCH  17  18
ENDBRANCH  13  16
ENDBRANCH   4  12
BRANCH   1  22
HETATM   22  C2  UNL     1      25.257 -15.956   8.029  1.00  0.00     0.269 C
HETATM   23  N1  UNL     1      24.474 -16.494   6.995  1.00  0.00    -0.360 N
HETATM   24  C1  UNL     1      24.618 -16.067   5.597  1.00  0.00     0.149 C
ATOM     25  H1  UNL     1      23.781 -17.208   7.223  1.00  0.00     0.162 HD
HETATM   26  O1  UNL     1      26.115 -15.074   7.629  1.00  0.00    -0.266 OA
ENDBRANCH   1  22
BRANCH   6  27
HETATM   27  N6  UNL     1      24.644 -16.240  14.472  1.00  0.00    -0.230 N
ATOM     28  H62 UNL     1      25.218 -15.478  14.834  1.00  0.00     0.174 HD
ATOM     29  H61 UNL     1      23.819 -16.330  15.064  1.00  0.00     0.174 HD
ENDBRANCH   6  27
BRANCH  11  30
HETATM   30  C11 UNL     1      25.842 -18.700   9.237  1.00  0.00     0.294 C
BRANCH  30  31
HETATM   31  O4  UNL     1      26.564 -18.263   8.062  1.00  0.00    -0.367 OA
ATOM     32  H4  UNL     1      27.239 -18.910   7.891  1.00  0.00     0.213 HD
ENDBRANCH  30  31
BRANCH  30  33
HETATM   33  O5  UNL     1      24.722 -19.311   8.736  1.00  0.00    -0.367 OA
ATOM     34  H5  UNL     1      24.192 -18.705   8.232  1.00  0.00     0.213 HD
ENDBRANCH  30  33
ENDBRANCH  11  30
BRANCH   7  35
HETATM   35  N8  UNL     1      25.438 -19.051  14.631  1.00  0.00    -0.309 N
ATOM     36  H82 UNL     1      24.678 -19.357  15.239  1.00  0.00     0.179 HD
ATOM     37  H81 UNL     1      26.285 -19.457  15.029  1.00  0.00     0.179 HD
ENDBRANCH   7  35
TORSDOF 10
ENDMDL