MODEL 4
REMARK VINA RESULT: -7.958812423      2.721      7.534
REMARK  2 active torsions:
REMARK  status: ('A' for Active; 'I' for Inactive)
REMARK    1  A    between atoms: C4_7  and  N3_8
REMARK       I    between atoms: C5_10  and  N5_12
REMARK    2  A    between atoms: N5_12  and  C6_14
ROOT
HETATM    1  N1  UNL     1      23.036  23.067  34.674  1.00  0.00    -0.191 NA
HETATM    2  C1  UNL     1      23.576  24.064  34.884  1.00  0.00     0.105 C
HETATM    3  C2  UNL     1      24.256  25.304  35.170  1.00  0.00     0.117 A
HETATM    4  C3  UNL     1      24.737  25.758  36.379  1.00  0.00     0.181 A
HETATM    5  N2  UNL     1      24.628  25.025  37.600  1.00  0.00    -0.073 NA
HETATM    6  O1  UNL     1      25.275  26.924  36.172  1.00  0.00    -0.276 OA
HETATM    7  C4  UNL     1      25.185  27.281  34.891  1.00  0.00     0.174 A
HETATM    8  C11 UNL     1      24.540  26.280  34.204  1.00  0.00     0.120 A
HETATM    9  C12 UNL     1      24.219  26.189  32.798  1.00  0.00     0.105 C
HETATM   10  N7  UNL     1      23.978  26.099  31.671  1.00  0.00    -0.191 NA
ENDROOT
BRANCH   7  11
HETATM   11  N3  UNL     1      25.674  28.489  34.366  1.00  0.00    -0.310 N
HETATM   12  C5  UNL     1      25.091  29.546  34.049  1.00  0.00     0.190 C
HETATM   13  N4  UNL     1      23.701  29.701  34.189  1.00  0.00    -0.063 NA
HETATM   14  N5  UNL     1      25.843  30.634  33.531  1.00  0.00    -0.358 N
ATOM     15  H5  UNL     1      26.151  30.640  32.559  1.00  0.00     0.162 HD
ATOM     16  H3  UNL     1      26.683  28.505  34.218  1.00  0.00     0.170 HD
BRANCH  14  17
HETATM   17  C6  UNL     1      26.163  31.730  34.413  1.00  0.00     0.109 C
HETATM   18  C7  UNL     1      27.624  31.715  34.841  1.00  0.00     0.028 C
HETATM   19  C8  UNL     1      27.754  32.834  35.884  1.00  0.00     0.029 C
HETATM   20  C9  UNL     1      27.418  34.155  35.256  1.00  0.00     0.232 C
HETATM   21  N6  UNL     1      26.155  34.164  34.572  1.00  0.00    -0.073 N
HETATM   22  C10 UNL     1      25.953  33.056  33.688  1.00  0.00     0.257 C
ATOM     23  H62 UNL     1      25.388  34.229  35.241  1.00  0.00     0.277 HD
ATOM     24  H61 UNL     1      26.027  35.044  34.073  1.00  0.00     0.277 HD
ENDBRANCH  14  17
ENDBRANCH   7  11
TORSDOF 2
ENDMDL