MODEL 4
REMARK VINA RESULT: -6.618649921      2.205      2.596
REMARK  2 active torsions:
REMARK  status: ('A' for Active; 'I' for Inactive)
REMARK    1  A    between atoms: N2_5  and  C4_6
REMARK    2  A    between atoms: C9_18  and  N7_19
ROOT
HETATM    1  C4  UNL     1      27.143  31.565  34.727  1.00  0.00     0.141 A
HETATM    2  N3  UNL     1      26.086  30.826  34.240  1.00  0.00    -0.326 N
ATOM      3  H3  UNL     1      25.487  31.258  33.537  1.00  0.00     0.169 HD
HETATM    4  C5  UNL     1      25.799  29.591  34.626  1.00  0.00     0.123 A
HETATM    5  N4  UNL     1      24.777  28.929  34.128  1.00  0.00    -0.384 N
ATOM      6  H41 UNL     1      24.555  27.978  34.425  1.00  0.00     0.157 HD
ATOM      7  H42 UNL     1      24.192  29.382  33.426  1.00  0.00     0.157 HD
HETATM    8  C6  UNL     1      26.586  28.981  35.571  1.00  0.00     0.115 A
HETATM    9  C7  UNL     1      26.320  27.636  36.028  1.00  0.00     0.105 C
HETATM   10  N5  UNL     1      26.127  26.551  36.396  1.00  0.00    -0.191 NA
HETATM   11  C8  UNL     1      27.642  29.676  36.081  1.00  0.00     0.107 A
HETATM   12  N6  UNL     1      28.509  29.109  37.074  1.00  0.00    -0.098 NA
HETATM   13  C9  UNL     1      27.950  30.995  35.672  1.00  0.00     0.172 A
ENDROOT
BRANCH  13  14
HETATM   14  N7  UNL     1      29.042  31.632  36.293  1.00  0.00    -0.110 N
HETATM   15  O1  UNL     1      28.921  32.321  37.313  1.00  0.00    -0.532 OA
HETATM   16  O2  UNL     1      30.299  31.459  35.773  1.00  0.00    -0.532 OA
ENDBRANCH  13  14
BRANCH   1  17
HETATM   17  N2  UNL     1      27.311  32.882  34.246  1.00  0.00    -0.359 N
HETATM   18  C3  UNL     1      26.199  33.822  34.453  1.00  0.00     0.168 C
HETATM   19  C2  UNL     1      26.693  35.256  34.460  1.00  0.00     0.077 C
HETATM   20  N1  UNL     1      27.353  35.535  33.251  1.00  0.00    -0.394 N
HETATM   21  C1  UNL     1      27.976  36.795  33.104  1.00  0.00     0.148 C
HETATM   22  C11 UNL     1      27.878  34.458  32.513  1.00  0.00     0.141 C
HETATM   23  C10 UNL     1      28.423  33.412  33.532  1.00  0.00     0.144 C
ENDBRANCH   1  17
TORSDOF 2
ENDMDL