MODEL 3
REMARK VINA RESULT: -5.076995684      9.262     11.217
REMARK  4 active torsions:
REMARK  status: ('A' for Active; 'I' for Inactive)
REMARK    1  A    between atoms: C2_2  and  O1_3
REMARK    2  A    between atoms: C2_2  and  C3_5
REMARK    3  A    between atoms: C10_16  and  C11_17
REMARK    4  A    between atoms: C11_17  and  N3_18
ROOT
HETATM    1  C3  UNL     1      32.721  32.058  40.408  1.00  0.00     0.082 C
HETATM    2  C4  UNL     1      33.304  32.152  39.024  1.00  0.00     0.039 C
HETATM    3  C5  UNL     1      31.459  32.851  40.579  1.00  0.00     0.074 C
HETATM    4  C6  UNL     1      30.380  31.808  40.514  1.00  0.00     0.117 C
HETATM    5  C7  UNL     1      29.802  31.463  41.843  1.00  0.00     0.274 C
HETATM    6  N1  UNL     1      28.885  30.360  41.665  1.00  0.00    -0.055 N
ATOM      7  H11 UNL     1      28.587  29.979  42.563  1.00  0.00     0.278 HD
ATOM      8  H12 UNL     1      29.362  29.540  41.292  1.00  0.00     0.278 HD
HETATM    9  C8  UNL     1      27.748  30.726  40.845  1.00  0.00     0.298 C
HETATM   10  C9  UNL     1      26.873  31.692  41.508  1.00  0.00     0.093 C
HETATM   11  N2  UNL     1      26.162  32.446  42.035  1.00  0.00    -0.195 NA
HETATM   12  C10 UNL     1      28.172  31.246  39.490  1.00  0.00     0.066 C
HETATM   13  C12 UNL     1      29.289  32.226  39.560  1.00  0.00    -0.005 C
HETATM   14  C13 UNL     1      29.817  32.434  38.156  1.00  0.00     0.018 C
HETATM   15  C14 UNL     1      28.725  33.560  39.997  1.00  0.00     0.018 C
HETATM   16  O2  UNL     1      31.071  30.698  40.048  1.00  0.00    -0.272 OA
HETATM   17  N4  UNL     1      32.279  30.709  40.617  1.00  0.00    -0.087 NA
ENDROOT
BRANCH  12  18
HETATM   18  C11 UNL     1      28.478  30.120  38.526  1.00  0.00     0.238 C
BRANCH  18  19
HETATM   19  N3  UNL     1      28.056  28.843  39.060  1.00  0.00    -0.079 N
ATOM     20  H33 UNL     1      27.183  28.531  38.637  1.00  0.00     0.274 HD
ATOM     21  H32 UNL     1      28.662  28.086  38.745  1.00  0.00     0.274 HD
ATOM     22  H31 UNL     1      27.991  28.873  40.078  1.00  0.00     0.274 HD
ENDBRANCH  18  19
ENDBRANCH  12  18
BRANCH   1  23
HETATM   23  C2  UNL     1      33.769  32.499  41.400  1.00  0.00     0.140 C
HETATM   24  C1  UNL     1      33.695  31.524  42.580  1.00  0.00     0.041 C
BRANCH  23  25
HETATM   25  O1  UNL     1      33.523  33.761  41.884  1.00  0.00    -0.394 OA
ATOM     26  H1  UNL     1      33.037  33.671  42.695  1.00  0.00     0.210 HD
ENDBRANCH  23  25
ENDBRANCH   1  23
TORSDOF 4
ENDMDL