MODEL 2
REMARK VINA RESULT: -5.703094437      2.594      4.242
REMARK  2 active torsions:
REMARK  status: ('A' for Active; 'I' for Inactive)
REMARK    1  A    between atoms: C5_5  and  C6_6
REMARK    2  A    between atoms: C6_6  and  C7_7
ROOT
HETATM    1  C6  UNL     1      29.588  32.094  39.223  1.00  0.00     0.192 C
HETATM    2  N2  UNL     1      29.357  32.782  37.939  1.00  0.00    -0.330 N
ATOM      3  H2  UNL     1      29.553  33.782  37.902  1.00  0.00     0.165 HD
HETATM    4  C8  UNL     1      28.939  32.240  36.890  1.00  0.00     0.192 C
HETATM    5  N3  UNL     1      28.769  33.073  35.717  1.00  0.00    -0.063 NA
HETATM    6  N4  UNL     1      28.548  30.867  36.876  1.00  0.00    -0.305 N
ATOM      7  H4  UNL     1      28.226  30.433  36.011  1.00  0.00     0.171 HD
HETATM    8  C9  UNL     1      28.606  30.183  37.961  1.00  0.00     0.192 C
HETATM    9  N5  UNL     1      28.261  28.804  37.998  1.00  0.00    -0.063 NA
HETATM   10  N6  UNL     1      28.866  30.870  39.193  1.00  0.00    -0.330 N
ATOM     11  H6  UNL     1      28.524  30.473  40.068  1.00  0.00     0.165 HD
ENDROOT
BRANCH   1  12
HETATM   12  C5  UNL     1      29.255  33.119  40.259  1.00  0.00     0.046 C
HETATM   13  C4  UNL     1      28.373  32.599  41.345  1.00  0.00     0.019 C
HETATM   14  C2  UNL     1      27.495  33.763  41.822  1.00  0.00    -0.040 C
HETATM   15  C1  UNL     1      26.095  33.222  41.800  1.00  0.00     0.015 C
HETATM   16  C3  UNL     1      27.867  34.058  43.241  1.00  0.00     0.015 C
HETATM   17  C11 UNL     1      27.788  34.856  40.868  1.00  0.00    -0.040 C
HETATM   18  C10 UNL     1      28.227  34.120  39.626  1.00  0.00     0.019 C
HETATM   19  C12 UNL     1      26.557  35.680  40.518  1.00  0.00     0.015 C
HETATM   20  C13 UNL     1      28.868  35.817  41.238  1.00  0.00     0.015 C
ENDBRANCH   1  12
BRANCH   1  21
HETATM   21  C7  UNL     1      31.035  31.766  39.309  1.00  0.00     0.280 C
HETATM   22  N1  UNL     1      31.314  30.888  40.430  1.00  0.00    -0.058 NA
HETATM   23  O1  UNL     1      31.898  32.134  38.574  1.00  0.00    -0.272 OA
ENDBRANCH   1  21
TORSDOF 2
ENDMDL