MODEL 2
REMARK VINA RESULT: -7.793628662      3.048      4.904
REMARK  4 active torsions:
REMARK  status: ('A' for Active; 'I' for Inactive)
REMARK    1  A    between atoms: O1_2  and  C2_3
REMARK    2  A    between atoms: C2_3  and  C3_5
REMARK    3  A    between atoms: C5_10  and  N2_11
REMARK    4  A    between atoms: C6_16  and  N4_17
REMARK       I    between atoms: N4_17  and  C7_19
ROOT
HETATM    1  C3  UNL     1      27.510  29.503  36.889  1.00  0.00     0.116 A
HETATM    2  N1  UNL     1      26.787  28.354  36.726  1.00  0.00    -0.344 N
ATOM      3  H1  UNL     1      26.835  27.548  37.349  1.00  0.00     0.167 HD
HETATM    4  C4  UNL     1      26.016  28.429  35.649  1.00  0.00     0.092 A
HETATM    5  S1  UNL     1      24.889  27.378  34.881  1.00  0.00    -0.036 SA
HETATM    6  C5  UNL     1      24.204  28.073  33.488  1.00  0.00     0.145 A
HETATM    7  N3  UNL     1      24.647  29.311  33.218  1.00  0.00    -0.322 N
ATOM      8  H3  UNL     1      24.257  29.760  32.389  1.00  0.00     0.169 HD
HETATM    9  C6  UNL     1      25.538  30.020  33.910  1.00  0.00     0.124 A
HETATM   10  C8  UNL     1      26.202  29.651  35.046  1.00  0.00     0.050 A
HETATM   11  C9  UNL     1      27.152  30.305  35.855  1.00  0.00    -0.012 A
HETATM   12  C10 UNL     1      27.656  31.664  35.582  1.00  0.00     0.052 C
ENDROOT
BRANCH   9  13
HETATM   13  N4  UNL     1      25.825  31.218  33.460  1.00  0.00    -0.296 N
HETATM   14  C7  UNL     1      24.842  32.045  32.873  1.00  0.00     0.334 C
HETATM   15  N5  UNL     1      24.276  33.071  33.676  1.00  0.00    -0.040 NA
HETATM   16  O3  UNL     1      24.451  31.919  31.686  1.00  0.00    -0.251 OA
ATOM     17  H4  UNL     1      26.783  31.561  33.535  1.00  0.00     0.171 HD
ENDBRANCH   9  13
BRANCH   6  18
HETATM   18  N2  UNL     1      23.331  27.465  32.751  1.00  0.00    -0.380 N
ATOM     19  H22 UNL     1      22.925  26.565  33.005  1.00  0.00     0.158 HD
ATOM     20  H21 UNL     1      22.990  27.842  31.867  1.00  0.00     0.158 HD
ENDBRANCH   6  18
BRANCH   1  21
HETATM   21  C2  UNL     1      28.428  29.665  37.997  1.00  0.00     0.310 C
HETATM   22  O2  UNL     1      28.395  28.864  38.951  1.00  0.00    -0.258 OA
BRANCH  21  23
HETATM   23  O1  UNL     1      29.362  30.674  38.073  1.00  0.00    -0.321 OA
HETATM   24  C1  UNL     1      29.386  31.658  39.086  1.00  0.00     0.213 C
ENDBRANCH  21  23
ENDBRANCH   1  21
TORSDOF 4
ENDMDL