MODEL 2
REMARK VINA RESULT: -8.733452513      2.225      5.084
REMARK  4 active torsions:
REMARK  status: ('A' for Active; 'I' for Inactive)
REMARK    1  A    between atoms: C2_2  and  C3_3
REMARK    2  A    between atoms: C6_12  and  N3_13
REMARK    3  A    between atoms: N3_13  and  N4_15
REMARK    4  A    between atoms: C8_19  and  C9_20
ROOT
HETATM    1  C3  UNL     1      24.726  28.401  33.866  1.00  0.00     0.091 A
HETATM    2  O1  UNL     1      25.156  29.560  33.491  1.00  0.00    -0.292 OA
HETATM    3  C4  UNL     1      26.043  30.045  34.302  1.00  0.00     0.167 A
HETATM    4  N1  UNL     1      26.752  31.181  34.333  1.00  0.00    -0.288 N
ATOM      5  H1  UNL     1      26.637  31.873  33.592  1.00  0.00     0.172 HD
HETATM    6  C5  UNL     1      27.613  31.410  35.336  1.00  0.00     0.327 A
HETATM    7  O2  UNL     1      28.304  32.483  35.394  1.00  0.00    -0.247 OA
HETATM    8  N2  UNL     1      27.796  30.536  36.324  1.00  0.00    -0.293 N
ATOM      9  H2  UNL     1      28.458  30.746  37.071  1.00  0.00     0.172 HD
HETATM   10  C6  UNL     1      27.102  29.365  36.343  1.00  0.00     0.139 A
HETATM   11  C7  UNL     1      26.216  29.093  35.332  1.00  0.00     0.077 A
HETATM   12  C8  UNL     1      25.377  28.029  35.066  1.00  0.00     0.052 A
ENDROOT
BRANCH  12  13
HETATM   13  C9  UNL     1      25.085  26.820  35.813  1.00  0.00     0.118 A
HETATM   14  C10 UNL     1      24.075  25.926  35.896  1.00  0.00     0.116 A
HETATM   15  C11 UNL     1      24.376  24.938  36.842  1.00  0.00     0.268 A
HETATM   16  O3  UNL     1      23.661  23.956  37.167  1.00  0.00    -0.266 OA
HETATM   17  N5  UNL     1      25.585  25.303  37.293  1.00  0.00    -0.225 N
HETATM   18  O4  UNL     1      25.976  26.365  36.707  1.00  0.00    -0.234 OA
ATOM     19  H5  UNL     1      26.117  24.801  38.004  1.00  0.00     0.198 HD
ENDBRANCH  12  13
BRANCH   1  20
HETATM   20  C2  UNL     1      23.738  27.557  33.211  1.00  0.00     0.028 C
HETATM   21  C1  UNL     1      24.164  26.708  32.266  1.00  0.00     0.014 C
ENDBRANCH   1  20
BRANCH  10  22
HETATM   22  N3  UNL     1      27.253  28.558  37.318  1.00  0.00    -0.291 N
ATOM     23  H3  UNL     1      26.706  27.697  37.334  1.00  0.00     0.188 HD
BRANCH  22  24
HETATM   24  N4  UNL     1      28.140  28.812  38.362  1.00  0.00    -0.344 N
ATOM     25  H42 UNL     1      28.656  28.024  38.753  1.00  0.00     0.176 HD
ATOM     26  H41 UNL     1      28.283  29.750  38.738  1.00  0.00     0.176 HD
ENDBRANCH  22  24
ENDBRANCH  10  22
TORSDOF 4
ENDMDL