MODEL 5
REMARK VINA RESULT: -8.799115901      1.032      1.064
REMARK  6 active torsions:
REMARK  status: ('A' for Active; 'I' for Inactive)
REMARK    1  A    between atoms: C7_8  and  O1_9
REMARK    2  A    between atoms: C8_11  and  C9_12
REMARK       I    between atoms: C9_12  and  N2_14
REMARK    3  A    between atoms: N2_14  and  C10_16
REMARK    4  A    between atoms: C10_16  and  O3_17
REMARK    5  A    between atoms: C10_16  and  N3_19
REMARK    6  A    between atoms: N3_19  and  N4_21
ROOT
HETATM    1  C1  UNL     1      23.740  28.399  33.932  1.00  0.00     0.052 C
HETATM    2  C2  UNL     1      24.904  29.200  34.410  1.00  0.00    -0.009 A
HETATM    3  C3  UNL     1      25.018  30.487  33.928  1.00  0.00     0.083 A
HETATM    4  C4  UNL     1      26.064  31.268  34.336  1.00  0.00     0.001 A
HETATM    5  C5  UNL     1      26.982  30.764  35.212  1.00  0.00     0.087 A
HETATM    6  C6  UNL     1      28.108  31.572  35.664  1.00  0.00     0.103 C
HETATM    7  N1  UNL     1      28.995  32.224  36.018  1.00  0.00    -0.191 NA
HETATM    8  C7  UNL     1      26.860  29.453  35.699  1.00  0.00     0.103 A
HETATM    9  C8  UNL     1      25.818  28.629  35.314  1.00  0.00     0.075 A
HETATM   10  C11 UNL     1      25.913  32.579  33.658  1.00  0.00     0.070 C
HETATM   11  C12 UNL     1      25.108  32.198  32.434  1.00  0.00     0.180 C
HETATM   12  O4  UNL     1      24.219  31.237  33.029  1.00  0.00    -0.350 OA
ENDROOT
BRANCH   8  13
HETATM   13  O1  UNL     1      27.828  29.029  36.576  1.00  0.00    -0.358 OA
ATOM     14  H1  UNL     1      28.711  28.957  36.234  1.00  0.00     0.217 HD
ENDBRANCH   8  13
BRANCH   9  15
HETATM   15  C9  UNL     1      25.639  27.271  35.780  1.00  0.00     0.262 C
HETATM   16  O2  UNL     1      26.676  26.599  36.003  1.00  0.00    -0.267 OA
HETATM   17  N2  UNL     1      24.420  26.622  36.011  1.00  0.00    -0.287 N
ATOM     18  H2  UNL     1      23.577  27.168  35.830  1.00  0.00     0.172 HD
BRANCH  17  19
HETATM   19  C10 UNL     1      24.223  25.304  36.464  1.00  0.00     0.238 C
BRANCH  19  20
HETATM   20  O3  UNL     1      24.534  25.094  37.714  1.00  0.00    -0.331 OA
ATOM     21  H3  UNL     1      23.842  25.274  38.339  1.00  0.00     0.221 HD
ENDBRANCH  19  20
BRANCH  19  22
HETATM   22  N3  UNL     1      23.734  24.234  35.706  1.00  0.00    -0.272 N
ATOM     23  H3  UNL     1      23.688  23.294  36.098  1.00  0.00     0.190 HD
BRANCH  22  24
HETATM   24  N4  UNL     1      23.300  24.493  34.365  1.00  0.00    -0.342 N
ATOM     25  H42 UNL     1      23.942  24.349  33.586  1.00  0.00     0.176 HD
ATOM     26  H41 UNL     1      22.344  24.820  34.221  1.00  0.00     0.176 HD
ENDBRANCH  22  24
ENDBRANCH  19  22
ENDBRANCH  17  19
ENDBRANCH   9  15
TORSDOF 6
ENDMDL