MODEL 2
REMARK VINA RESULT: -6.370260694      1.191      1.371
REMARK  5 active torsions:
REMARK  status: ('A' for Active; 'I' for Inactive)
REMARK    1  A    between atoms: O1_2  and  C2_3
REMARK    2  A    between atoms: C2_3  and  C3_5
REMARK    3  A    between atoms: C3_5  and  O3_6
REMARK    4  A    between atoms: C8_12  and  N1_13
REMARK    5  A    between atoms: N1_13  and  C9_15
ROOT
HETATM    1  N1  UNL     1      25.243  30.479  34.690  1.00  0.00    -0.386 N
ATOM      2  H1  UNL     1      25.201  30.539  35.707  1.00  0.00     0.155 HD
ENDROOT
BRANCH   1   3
HETATM    3  C8  UNL     1      25.207  29.225  34.042  1.00  0.00     0.123 C
HETATM    4  C3  UNL     1      25.573  28.156  35.089  1.00  0.00     0.165 C
HETATM    5  C4  UNL     1      25.744  26.818  34.438  1.00  0.00     0.051 C
HETATM    6  C5  UNL     1      24.588  26.424  33.570  1.00  0.00     0.004 C
HETATM    7  C6  UNL     1      24.096  27.538  32.692  1.00  0.00     0.002 C
HETATM    8  C7  UNL     1      23.845  28.779  33.552  1.00  0.00     0.028 C
BRANCH   4   9
HETATM    9  C2  UNL     1      26.756  28.497  35.871  1.00  0.00     0.295 C
HETATM   10  O2  UNL     1      27.123  27.762  36.844  1.00  0.00    -0.262 OA
BRANCH   9  11
HETATM   11  O1  UNL     1      27.513  29.609  35.596  1.00  0.00    -0.324 OA
HETATM   12  C1  UNL     1      28.196  30.397  36.522  1.00  0.00     0.213 C
ENDBRANCH   9  11
ENDBRANCH   4   9
BRANCH   4  13
HETATM   13  O3  UNL     1      24.457  28.085  35.949  1.00  0.00    -0.377 OA
ATOM     14  H3  UNL     1      24.025  27.248  35.828  1.00  0.00     0.211 HD
ENDBRANCH   4  13
ENDBRANCH   1   3
BRANCH   1  15
HETATM   15  C9  UNL     1      25.337  31.649  33.905  1.00  0.00     0.309 C
HETATM   16  C10 UNL     1      24.032  32.184  33.368  1.00  0.00     0.289 C
HETATM   17  N2  UNL     1      24.459  33.491  32.848  1.00  0.00    -0.038 N
HETATM   18  C11 UNL     1      25.723  33.799  33.456  1.00  0.00     0.282 C
ATOM     19  H22 UNL     1      24.488  33.524  31.829  1.00  0.00     0.280 HD
ATOM     20  H21 UNL     1      23.761  34.222  32.985  1.00  0.00     0.280 HD
HETATM   21  C12 UNL     1      25.728  35.156  34.131  1.00  0.00     0.078 C
HETATM   22  C13 UNL     1      26.895  33.692  32.531  1.00  0.00     0.078 C
HETATM   23  N3  UNL     1      25.905  32.805  34.526  1.00  0.00    -0.019 N
ATOM     24  H32 UNL     1      25.512  33.057  35.433  1.00  0.00     0.282 HD
ATOM     25  H31 UNL     1      26.857  32.697  34.872  1.00  0.00     0.282 HD
ENDBRANCH   1  15
TORSDOF 5
ENDMDL