MODEL 1
REMARK VINA RESULT: -8.524492322      0.000      0.000
REMARK  4 active torsions:
REMARK  status: ('A' for Active; 'I' for Inactive)
REMARK    1  A    between atoms: S1_2  and  C2_3
REMARK    2  A    between atoms: C4_9  and  N3_10
REMARK    3  A    between atoms: C5_15  and  N5_16
REMARK    4  A    between atoms: C8_23  and  C9_24
ROOT
HETATM    1  N5  UNL     1      25.042  25.346  36.776  1.00  0.00    -0.126 N
ATOM      2  H5  UNL     1      25.808  25.203  37.433  1.00  0.00     0.197 HD
HETATM    3  C6  UNL     1      24.027  24.395  36.749  1.00  0.00     0.196 C
HETATM    4  N6  UNL     1      23.176  23.593  36.748  1.00  0.00    -0.171 NA
ENDROOT
BRANCH   1   5
HETATM    5  C5  UNL     1      25.080  26.383  36.036  1.00  0.00     0.693 A
HETATM    6  N4  UNL     1      24.252  26.487  34.989  1.00  0.00    -0.174 N
HETATM    7  C4  UNL     1      24.308  27.604  34.222  1.00  0.00     0.145 A
ATOM      8  H4  UNL     1      23.591  25.740  34.773  1.00  0.00     0.186 HD
HETATM    9  C3  UNL     1      25.196  28.615  34.505  1.00  0.00     0.120 A
HETATM   10  N2  UNL     1      25.241  29.736  33.754  1.00  0.00    -0.294 N
HETATM   11  C7  UNL     1      26.040  28.475  35.593  1.00  0.00     0.099 A
HETATM   12  N1  UNL     1      26.061  30.725  34.004  1.00  0.00    -0.293 N
ATOM     13  H2  UNL     1      24.610  29.816  32.957  1.00  0.00     0.187 HD
HETATM   14  C2  UNL     1      26.897  30.656  35.034  1.00  0.00     0.102 A
ATOM     15  H1  UNL     1      26.056  31.552  33.407  1.00  0.00     0.187 HD
HETATM   16  C8  UNL     1      26.908  29.519  35.858  1.00  0.00     0.093 A
HETATM   17  N7  UNL     1      25.970  27.361  36.345  1.00  0.00    -0.187 N
ATOM     18  H7  UNL     1      26.588  27.250  37.149  1.00  0.00     0.184 HD
BRANCH   7  19
HETATM   19  N3  UNL     1      23.545  27.775  33.198  1.00  0.00    -0.383 N
ATOM     20  H32 UNL     1      23.133  28.680  32.970  1.00  0.00     0.157 HD
ATOM     21  H31 UNL     1      23.365  26.954  32.620  1.00  0.00     0.157 HD
ENDBRANCH   7  19
BRANCH  14  22
HETATM   22  S1  UNL     1      27.995  32.044  35.325  1.00  0.00    -0.114 SA
HETATM   23  C1  UNL     1      27.869  33.179  33.919  1.00  0.00     0.097 C
ENDBRANCH  14  22
BRANCH  16  24
HETATM   24  C9  UNL     1      27.839  29.501  36.936  1.00  0.00     0.270 C
HETATM   25  N8  UNL     1      27.774  30.125  38.182  1.00  0.00    -0.057 NA
HETATM   26  O1  UNL     1      28.913  28.806  36.764  1.00  0.00    -0.271 OA
ENDBRANCH  16  24
ENDBRANCH   1   5
TORSDOF 4
ENDMDL