MODEL 1
REMARK VINA RESULT: -7.416596910      0.000      0.000
REMARK  5 active torsions:
REMARK  status: ('A' for Active; 'I' for Inactive)
REMARK    1  A    between atoms: O1_2  and  C2_3
REMARK    2  A    between atoms: C2_3  and  C3_5
REMARK    3  A    between atoms: C4_6  and  C5_7
REMARK    4  A    between atoms: C5_7  and  N1_10
REMARK    5  A    between atoms: C8_15  and  N2_16
ROOT
HETATM    1  C3  UNL     1      25.577  30.369  34.415  1.00  0.00     0.084 A
HETATM    2  C4  UNL     1      25.914  31.647  34.078  1.00  0.00     0.038 A
HETATM    3  S1  UNL     1      27.283  32.310  34.895  1.00  0.00    -0.073 SA
HETATM    4  C8  UNL     1      28.010  31.256  36.005  1.00  0.00     0.086 A
HETATM    5  C9  UNL     1      27.376  30.025  36.072  1.00  0.00     0.096 A
HETATM    6  C10 UNL     1      27.766  28.965  36.904  1.00  0.00     0.275 A
HETATM    7  O3  UNL     1      28.738  28.928  37.726  1.00  0.00    -0.266 OA
HETATM    8  N3  UNL     1      26.924  27.972  36.682  1.00  0.00    -0.265 N
ATOM      9  H3  UNL     1      26.950  27.061  37.140  1.00  0.00     0.190 HD
HETATM   10  N4  UNL     1      26.036  28.349  35.765  1.00  0.00    -0.296 N
ATOM     11  H4  UNL     1      25.274  27.770  35.412  1.00  0.00     0.187 HD
HETATM   12  C11 UNL     1      26.296  29.610  35.376  1.00  0.00     0.084 A
ENDROOT
BRANCH   2  13
HETATM   13  C5  UNL     1      25.231  32.522  33.074  1.00  0.00     0.150 C
HETATM   14  C6  UNL     1      24.295  33.514  33.674  1.00  0.00     0.052 C
HETATM   15  C7  UNL     1      26.409  33.417  32.508  1.00  0.00     0.052 C
BRANCH  13  16
HETATM   16  N1  UNL     1      24.782  31.860  31.891  1.00  0.00    -0.066 N
ATOM     17  H13 UNL     1      25.498  31.213  31.559  1.00  0.00     0.275 HD
ATOM     18  H12 UNL     1      24.037  31.202  32.120  1.00  0.00     0.275 HD
ATOM     19  H11 UNL     1      24.487  32.475  31.133  1.00  0.00     0.275 HD
ENDBRANCH  13  16
ENDBRANCH   2  13
BRANCH   1  20
HETATM   20  C2  UNL     1      24.416  29.767  33.782  1.00  0.00     0.296 C
HETATM   21  O2  UNL     1      23.225  30.064  33.975  1.00  0.00    -0.259 OA
BRANCH  20  22
HETATM   22  O1  UNL     1      24.561  28.748  32.850  1.00  0.00    -0.322 OA
HETATM   23  C1  UNL     1      24.030  27.437  33.044  1.00  0.00     0.213 C
ENDBRANCH  20  22
ENDBRANCH   1  20
BRANCH   4  24
HETATM   24  N2  UNL     1      29.042  31.581  36.703  1.00  0.00    -0.393 N
ATOM     25  H22 UNL     1      29.107  32.421  37.278  1.00  0.00     0.156 HD
ATOM     26  H21 UNL     1      29.889  31.014  36.736  1.00  0.00     0.156 HD
ENDBRANCH   4  24
TORSDOF 5
ENDMDL