MODEL 4
REMARK VINA RESULT: -7.276850764      3.747      5.931
REMARK  7 active torsions:
REMARK  status: ('A' for Active; 'I' for Inactive)
REMARK    1  A    between atoms: C2_2  and  C3_3
REMARK    2  A    between atoms: C6_9  and  O1_10
REMARK    3  A    between atoms: C6_9  and  C7_12
REMARK    4  A    between atoms: C7_12  and  N2_13
REMARK       I    between atoms: N2_13  and  C8_15
REMARK    5  A    between atoms: C8_15  and  C9_17
REMARK    6  A    between atoms: C9_17  and  C10_19
REMARK    7  A    between atoms: C11_25  and  N5_26
ROOT
HETATM    1  N2  UNL     1      26.135  28.725  35.459  1.00  0.00    -0.351 N
ATOM      2  H2  UNL     1      26.863  28.010  35.486  1.00  0.00     0.162 HD
HETATM    3  C8  UNL     1      24.807  28.347  35.129  1.00  0.00     0.294 C
HETATM    4  O2  UNL     1      23.929  29.237  35.101  1.00  0.00    -0.264 OA
ENDROOT
BRANCH   1   5
HETATM    5  C7  UNL     1      26.480  30.085  35.755  1.00  0.00     0.160 C
BRANCH   5   6
HETATM    6  C6  UNL     1      27.553  30.126  36.817  1.00  0.00     0.074 C
HETATM    7  C5  UNL     1      27.539  31.429  37.554  1.00  0.00     0.040 C
HETATM    8  C4  UNL     1      28.486  31.487  38.701  1.00  0.00     0.017 C
HETATM    9  C2  UNL     1      28.424  30.270  39.591  1.00  0.00    -0.012 C
HETATM   10  C1  UNL     1      29.450  30.324  40.695  1.00  0.00     0.021 C
HETATM   11  C13 UNL     1      28.605  29.046  38.719  1.00  0.00     0.017 C
HETATM   12  C12 UNL     1      27.393  28.991  37.813  1.00  0.00     0.040 C
BRANCH   9  13
HETATM   13  C3  UNL     1      27.077  30.166  40.219  1.00  0.00     0.062 C
HETATM   14  N1  UNL     1      26.970  29.447  41.271  1.00  0.00    -0.410 N
ATOM     15  H12 UNL     1      27.787  28.969  41.653  1.00  0.00     0.155 HD
ATOM     16  H11 UNL     1      26.048  29.376  41.701  1.00  0.00     0.155 HD
ENDBRANCH   9  13
BRANCH   6  17
HETATM   17  O1  UNL     1      28.788  29.926  36.188  1.00  0.00    -0.388 OA
ATOM     18  H1  UNL     1      28.785  29.116  35.692  1.00  0.00     0.210 HD
ENDBRANCH   6  17
ENDBRANCH   5   6
ENDBRANCH   1   5
BRANCH   3  19
HETATM   19  C9  UNL     1      24.458  26.953  34.827  1.00  0.00     0.271 C
HETATM   20  O3  UNL     1      24.329  26.623  33.639  1.00  0.00    -0.280 OA
BRANCH  19  21
HETATM   21  C10 UNL     1      24.273  26.010  35.897  1.00  0.00     0.157 A
HETATM   22  N3  UNL     1      24.916  25.906  37.081  1.00  0.00    -0.234 N
HETATM   23  O4  UNL     1      24.432  24.902  37.763  1.00  0.00    -0.155 OA
ATOM     24  H3  UNL     1      25.667  26.521  37.396  1.00  0.00     0.197 HD
HETATM   25  N4  UNL     1      23.483  24.314  37.087  1.00  0.00    -0.224 N
HETATM   26  C11 UNL     1      23.353  24.983  35.908  1.00  0.00     0.154 A
ATOM     27  H4  UNL     1      22.939  23.504  37.386  1.00  0.00     0.198 HD
BRANCH  26  28
HETATM   28  N5  UNL     1      22.523  24.716  34.963  1.00  0.00    -0.382 N
ATOM     29  H52 UNL     1      22.136  25.377  34.288  1.00  0.00     0.157 HD
ATOM     30  H51 UNL     1      22.136  23.794  34.758  1.00  0.00     0.157 HD
ENDBRANCH  26  28
ENDBRANCH  19  21
ENDBRANCH   3  19
TORSDOF 7
ENDMDL