MODEL 5
REMARK VINA RESULT: -7.438440593      1.430      1.607
REMARK  8 active torsions:
REMARK  status: ('A' for Active; 'I' for Inactive)
REMARK    1  A    between atoms: C2_2  and  C3_3
REMARK    2  A    between atoms: C3_3  and  O1_4
REMARK    3  A    between atoms: O1_4  and  C4_5
REMARK       I    between atoms: C4_5  and  N1_7
REMARK    4  A    between atoms: N1_7  and  N2_9
REMARK    5  A    between atoms: N2_9  and  C5_11
REMARK    6  A    between atoms: C5_11  and  O3_12
REMARK    7  A    between atoms: C5_11  and  C6_14
REMARK    8  A    between atoms: C8_18  and  C9_19
ROOT
HETATM    1  C6  UNL     1      25.972  29.033  35.927  1.00  0.00     0.069 A
HETATM    2  C7  UNL     1      27.120  29.351  36.657  1.00  0.00     0.104 A
HETATM    3  N3  UNL     1      27.837  28.520  37.604  1.00  0.00    -0.093 NA
HETATM    4  S1  UNL     1      27.510  30.918  36.206  1.00  0.00    -0.070 SA
HETATM    5  C8  UNL     1      26.225  31.208  35.080  1.00  0.00     0.069 A
HETATM    6  C10 UNL     1      25.532  30.034  35.109  1.00  0.00     0.082 A
HETATM    7  C11 UNL     1      24.321  29.875  34.251  1.00  0.00     0.102 C
HETATM    8  N6  UNL     1      23.364  29.776  33.559  1.00  0.00    -0.191 NA
ENDROOT
BRANCH   1   9
HETATM    9  C5  UNL     1      25.400  27.681  36.151  1.00  0.00     0.169 C
BRANCH   9  10
HETATM   10  N2  UNL     1      24.106  27.288  36.439  1.00  0.00    -0.275 N
ATOM     11  H2  UNL     1      23.535  27.866  37.057  1.00  0.00     0.189 HD
BRANCH  10  12
HETATM   12  N1  UNL     1      23.549  26.092  35.891  1.00  0.00    -0.243 N
HETATM   13  C4  UNL     1      23.603  24.887  36.611  1.00  0.00     0.379 C
HETATM   14  O2  UNL     1      24.164  24.888  37.760  1.00  0.00    -0.237 OA
ATOM     15  H1  UNL     1      23.109  26.113  34.971  1.00  0.00     0.192 HD
BRANCH  13  16
HETATM   16  O1  UNL     1      23.099  23.669  36.193  1.00  0.00    -0.299 OA
BRANCH  16  17
HETATM   17  C3  UNL     1      22.555  23.534  34.874  1.00  0.00     0.207 C
BRANCH  17  18
HETATM   18  C2  UNL     1      23.565  23.776  33.839  1.00  0.00    -0.011 C
HETATM   19  C1  UNL     1      23.246  24.434  32.737  1.00  0.00     0.009 C
ENDBRANCH  17  18
ENDBRANCH  16  17
ENDBRANCH  13  16
ENDBRANCH  10  12
ENDBRANCH   9  10
BRANCH   9  20
HETATM   20  O3  UNL     1      26.217  26.667  36.075  1.00  0.00    -0.344 OA
ATOM     21  H3  UNL     1      26.361  26.257  36.920  1.00  0.00     0.219 HD
ENDBRANCH   9  20
ENDBRANCH   1   9
BRANCH   5  22
HETATM   22  C9  UNL     1      26.042  32.469  34.338  1.00  0.00     0.128 C
HETATM   23  N4  UNL     1      25.024  33.127  34.239  1.00  0.00    -0.387 N
ATOM     24  H42 UNL     1      24.200  32.766  34.720  1.00  0.00     0.157 HD
ATOM     25  H41 UNL     1      24.896  33.999  33.726  1.00  0.00     0.157 HD
HETATM   26  N5  UNL     1      27.227  32.990  33.645  1.00  0.00    -0.082 NA
ENDBRANCH   5  22
TORSDOF 8
ENDMDL