MODEL 4
REMARK VINA RESULT: -8.008686757      2.102      4.170
REMARK  4 active torsions:
REMARK  status: ('A' for Active; 'I' for Inactive)
REMARK    1  A    between atoms: O1_2  and  C2_3
REMARK    2  A    between atoms: C5_6  and  C6_7
REMARK    3  A    between atoms: C7_10  and  N1_11
REMARK    4  A    between atoms: C8_13  and  C9_14
ROOT
HETATM    1  C2  UNL     1      25.182  32.279  33.803  1.00  0.00     0.143 A
HETATM    2  C3  UNL     1      26.000  31.782  34.782  1.00  0.00    -0.002 A
HETATM    3  C4  UNL     1      26.928  32.663  35.537  1.00  0.00     0.052 C
HETATM    4  C5  UNL     1      25.956  30.434  35.066  1.00  0.00     0.093 A
HETATM    5  C7  UNL     1      25.101  29.620  34.371  1.00  0.00     0.125 A
HETATM    6  N4  UNL     1      24.300  30.099  33.414  1.00  0.00    -0.306 N
ATOM      7  H4  UNL     1      23.668  29.482  32.903  1.00  0.00     0.170 HD
HETATM    8  C13 UNL     1      24.348  31.412  33.143  1.00  0.00     0.281 A
HETATM    9  O5  UNL     1      23.570  31.835  32.226  1.00  0.00    -0.265 OA
ENDROOT
BRANCH   5  10
HETATM   10  N1  UNL     1      25.094  28.218  34.707  1.00  0.00    -0.352 N
HETATM   11  C8  UNL     1      24.305  27.432  34.088  1.00  0.00     0.095 C
ATOM     12  H1  UNL     1      25.714  27.859  35.433  1.00  0.00     0.166 HD
BRANCH  11  13
HETATM   13  C9  UNL     1      24.285  25.991  34.419  1.00  0.00     0.171 C
HETATM   14  C10 UNL     1      24.159  25.202  33.157  1.00  0.00     0.058 C
HETATM   15  C11 UNL     1      23.089  24.163  33.158  1.00  0.00     0.126 C
HETATM   16  N2  UNL     1      22.953  23.547  34.463  1.00  0.00    -0.356 N
HETATM   17  C12 UNL     1      22.826  24.442  35.570  1.00  0.00     0.213 C
ATOM     18  H2  UNL     1      22.948  22.535  34.585  1.00  0.00     0.163 HD
HETATM   19  N3  UNL     1      22.389  24.025  36.700  1.00  0.00    -0.365 N
HETATM   20  O4  UNL     1      23.204  25.769  35.328  1.00  0.00    -0.312 OA
ATOM     21  H32 UNL     1      22.114  23.059  36.876  1.00  0.00     0.159 HD
ATOM     22  H31 UNL     1      22.298  24.664  37.490  1.00  0.00     0.159 HD
ENDBRANCH  11  13
ENDBRANCH   5  10
BRANCH   4  23
HETATM   23  C6  UNL     1      26.839  29.880  36.126  1.00  0.00     0.213 C
HETATM   24  O2  UNL     1      26.317  29.281  37.088  1.00  0.00    -0.644 OA
HETATM   25  O3  UNL     1      28.218  30.039  36.022  1.00  0.00    -0.644 OA
ENDBRANCH   4  23
BRANCH   1  26
HETATM   26  O1  UNL     1      25.176  33.598  33.474  1.00  0.00    -0.350 OA
HETATM   27  C1  UNL     1      24.253  34.556  33.941  1.00  0.00     0.210 C
ENDBRANCH   1  26
TORSDOF 4
ENDMDL