MODEL 2
REMARK VINA RESULT: -6.072456463      2.373      5.171
REMARK  6 active torsions:
REMARK  status: ('A' for Active; 'I' for Inactive)
REMARK    1  A    between atoms: C2_2  and  N1_3
REMARK    2  A    between atoms: C4_6  and  C5_7
REMARK    3  A    between atoms: C5_7  and  C6_8
REMARK    4  A    between atoms: C7_9  and  C8_10
REMARK    5  A    between atoms: C8_10  and  N3_11
REMARK    6  A    between atoms: C9_15  and  N4_16
REMARK       I    between atoms: N6_21  and  C10_22
ROOT
HETATM    1  C6  UNL     1      26.493  30.935  35.331  1.00  0.00     0.055 A
HETATM    2  C7  UNL     1      25.594  29.892  35.099  1.00  0.00     0.037 A
HETATM    3  C9  UNL     1      24.436  30.436  34.569  1.00  0.00     0.124 A
HETATM    4  N5  UNL     1      24.643  31.749  34.489  1.00  0.00    -0.276 N
ATOM      5  H5  UNL     1      23.962  32.420  34.134  1.00  0.00     0.189 HD
HETATM    6  N6  UNL     1      25.865  32.075  34.936  1.00  0.00    -0.226 N
HETATM    7  C10 UNL     1      26.326  33.415  34.926  1.00  0.00     0.238 C
HETATM    8  C11 UNL     1      25.458  34.527  34.428  1.00  0.00     0.119 C
HETATM    9  O1  UNL     1      27.454  33.738  35.323  1.00  0.00    -0.272 OA
ENDROOT
BRANCH   1  10
HETATM   10  C5  UNL     1      27.850  30.783  35.864  1.00  0.00     0.120 C
BRANCH  10  11
HETATM   11  C4  UNL     1      28.018  31.015  37.295  1.00  0.00     0.059 A
HETATM   12  C3  UNL     1      27.994  30.160  38.333  1.00  0.00     0.143 A
HETATM   13  N1  UNL     1      28.162  30.846  39.507  1.00  0.00    -0.311 N
HETATM   14  N2  UNL     1      27.833  28.752  38.286  1.00  0.00    -0.080 NA
HETATM   15  C12 UNL     1      28.286  32.129  39.154  1.00  0.00     0.179 A
HETATM   16  N7  UNL     1      28.203  32.254  37.834  1.00  0.00    -0.333 N
HETATM   17  S1  UNL     1      28.514  33.419  40.172  1.00  0.00    -0.040 SA
ATOM     18  H7  UNL     1      28.266  33.129  37.313  1.00  0.00     0.168 HD
BRANCH  13  19
HETATM   19  C2  UNL     1      28.203  30.352  40.846  1.00  0.00     0.128 C
HETATM   20  C1  UNL     1      26.840  30.183  41.468  1.00  0.00     0.027 C
ENDBRANCH  13  19
ENDBRANCH  10  11
ENDBRANCH   1  10
BRANCH   2  21
HETATM   21  C8  UNL     1      25.743  28.447  35.340  1.00  0.00     0.274 C
BRANCH  21  22
HETATM   22  N3  UNL     1      25.238  28.106  36.673  1.00  0.00    -0.075 N
ATOM     23  H33 UNL     1      25.574  28.753  37.387  1.00  0.00     0.274 HD
ATOM     24  H32 UNL     1      24.239  28.291  36.762  1.00  0.00     0.274 HD
ATOM     25  H31 UNL     1      25.468  27.138  36.896  1.00  0.00     0.274 HD
ENDBRANCH  21  22
ENDBRANCH   2  21
BRANCH   3  26
HETATM   26  N4  UNL     1      23.359  29.825  34.212  1.00  0.00    -0.384 N
ATOM     27  H42 UNL     1      23.271  29.195  33.415  1.00  0.00     0.157 HD
ATOM     28  H41 UNL     1      22.438  29.863  34.649  1.00  0.00     0.157 HD
ENDBRANCH   3  26
TORSDOF 6
ENDMDL