MODEL 2
REMARK VINA RESULT: -5.934435334      1.239      1.745
REMARK  8 active torsions:
REMARK  status: ('A' for Active; 'I' for Inactive)
REMARK    1  A    between atoms: N1_2  and  C2_3
REMARK    2  A    between atoms: N1_2  and  C8_13
REMARK    3  A    between atoms: C2_3  and  C3_4
REMARK    4  A    between atoms: C3_4  and  O1_8
REMARK    5  A    between atoms: O1_8  and  C4_9
REMARK    6  A    between atoms: C9_16  and  N4_17
REMARK    7  A    between atoms: C10_22  and  N6_23
REMARK    8  A    between atoms: C11_26  and  N7_27
ROOT
HETATM    1  C8  UNL     1      27.798  29.324  37.142  1.00  0.00     0.156 A
HETATM    2  N3  UNL     1      26.941  28.288  37.127  1.00  0.00    -0.174 N
ATOM      3  H3  UNL     1      27.156  27.462  37.684  1.00  0.00     0.186 HD
HETATM    4  C9  UNL     1      25.808  28.305  36.399  1.00  0.00     0.679 A
HETATM    5  N5  UNL     1      25.457  29.353  35.641  1.00  0.00    -0.175 N
ATOM      6  H5  UNL     1      24.593  29.340  35.099  1.00  0.00     0.186 HD
HETATM    7  C10 UNL     1      26.271  30.420  35.612  1.00  0.00     0.151 A
HETATM    8  C11 UNL     1      27.440  30.417  36.355  1.00  0.00     0.191 A
ENDROOT
BRANCH   1   9
HETATM    9  N1  UNL     1      29.001  29.383  37.879  1.00  0.00    -0.362 N
HETATM   10  C1  UNL     1      30.182  28.743  37.271  1.00  0.00     0.152 C
BRANCH   9  11
HETATM   11  C2  UNL     1      29.209  29.979  39.157  1.00  0.00     0.207 C
BRANCH  11  12
HETATM   12  C3  UNL     1      27.918  30.096  39.865  1.00  0.00     0.130 C
HETATM   13  N2  UNL     1      27.315  29.073  40.267  1.00  0.00    -0.382 N
ATOM     14  H22 UNL     1      27.704  28.143  40.112  1.00  0.00     0.158 HD
ATOM     15  H21 UNL     1      26.424  29.154  40.755  1.00  0.00     0.158 HD
BRANCH  12  16
HETATM   16  O1  UNL     1      27.399  31.338  40.072  1.00  0.00    -0.328 OA
BRANCH  16  17
HETATM   17  C4  UNL     1      27.514  32.126  41.195  1.00  0.00     0.058 C
HETATM   18  C5  UNL     1      26.230  32.341  41.962  1.00  0.00     0.045 C
HETATM   19  C6  UNL     1      28.646  31.835  42.119  1.00  0.00     0.045 C
HETATM   20  C7  UNL     1      27.846  33.541  40.630  1.00  0.00     0.045 C
ENDBRANCH  16  17
ENDBRANCH  12  16
ENDBRANCH  11  12
ENDBRANCH   9  11
ENDBRANCH   1   9
BRANCH   8  21
HETATM   21  N7  UNL     1      28.304  31.525  36.304  1.00  0.00    -0.108 N
HETATM   22  O2  UNL     1      28.212  32.469  37.077  1.00  0.00    -0.531 OA
HETATM   23  O3  UNL     1      29.304  31.539  35.328  1.00  0.00    -0.531 OA
ENDBRANCH   8  21
BRANCH   4  24
HETATM   24  N4  UNL     1      25.025  27.277  36.434  1.00  0.00    -0.234 N
ATOM     25  H42 UNL     1      25.312  26.463  36.977  1.00  0.00     0.174 HD
ATOM     26  H41 UNL     1      24.147  27.307  35.917  1.00  0.00     0.174 HD
ENDBRANCH   4  24
BRANCH   7  27
HETATM   27  N6  UNL     1      25.955  31.436  34.895  1.00  0.00    -0.383 N
ATOM     28  H62 UNL     1      26.418  31.608  34.002  1.00  0.00     0.157 HD
ATOM     29  H61 UNL     1      25.234  32.078  35.224  1.00  0.00     0.157 HD
ENDBRANCH   7  27
TORSDOF 8
ENDMDL