MODEL 1
REMARK VINA RESULT: -7.061698818      0.000      0.000
REMARK  6 active torsions:
REMARK  status: ('A' for Active; 'I' for Inactive)
REMARK    1  A    between atoms: C3_3  and  O1_4
REMARK    2  A    between atoms: C4_6  and  N1_7
REMARK    3  A    between atoms: N1_7  and  C5_8
REMARK    4  A    between atoms: C5_8  and  C6_9
REMARK    5  A    between atoms: C6_9  and  N2_10
REMARK    6  A    between atoms: C11_17  and  N5_18
ROOT
HETATM    1  C1  UNL     1      27.751  28.789  38.159  1.00  0.00     0.054 C
HETATM    2  C2  UNL     1      27.125  29.285  36.886  1.00  0.00     0.003 A
HETATM    3  C3  UNL     1      26.179  28.437  36.293  1.00  0.00     0.116 A
HETATM    4  C4  UNL     1      25.413  28.843  35.199  1.00  0.00     0.165 A
HETATM    5  C9  UNL     1      25.591  30.125  34.706  1.00  0.00     0.116 A
HETATM    6  N3  UNL     1      24.793  30.575  33.600  1.00  0.00    -0.097 NA
HETATM    7  C10 UNL     1      26.521  30.939  35.297  1.00  0.00     0.101 A
HETATM    8  N4  UNL     1      26.636  32.228  34.771  1.00  0.00    -0.098 NA
HETATM    9  C11 UNL     1      27.315  30.539  36.392  1.00  0.00     0.067 A
ENDROOT
BRANCH   9  10
HETATM   10  N5  UNL     1      28.467  31.309  36.745  1.00  0.00    -0.355 N
HETATM   11  C12 UNL     1      29.764  31.171  36.143  1.00  0.00     0.126 C
HETATM   12  C13 UNL     1      30.924  30.914  37.047  1.00  0.00     0.047 C
HETATM   13  C14 UNL     1      30.668  31.630  38.359  1.00  0.00     0.236 C
HETATM   14  N6  UNL     1      29.821  32.728  38.093  1.00  0.00    -0.059 N
HETATM   15  C15 UNL     1      28.436  32.349  37.768  1.00  0.00     0.357 C
ATOM     16  H62 UNL     1      29.839  33.390  38.868  1.00  0.00     0.279 HD
ATOM     17  H61 UNL     1      30.214  33.313  37.356  1.00  0.00     0.279 HD
ENDBRANCH   9  10
BRANCH   3  18
HETATM   18  O1  UNL     1      26.036  27.170  36.840  1.00  0.00    -0.357 OA
ATOM     19  H1  UNL     1      25.173  26.775  36.795  1.00  0.00     0.218 HD
ENDBRANCH   3  18
BRANCH   4  20
HETATM   20  N1  UNL     1      24.629  27.976  34.535  1.00  0.00    -0.415 NA
BRANCH  20  21
HETATM   21  C5  UNL     1      23.939  27.249  33.981  1.00  0.00     0.185 C
BRANCH  21  22
HETATM   22  C6  UNL     1      24.349  25.769  33.920  1.00  0.00     0.330 C
BRANCH  22  23
HETATM   23  N2  UNL     1      23.187  24.984  34.162  1.00  0.00     0.085 N
HETATM   24  C7  UNL     1      23.166  23.741  33.449  1.00  0.00     0.309 C
HETATM   25  C8  UNL     1      23.037  24.819  35.596  1.00  0.00     0.309 C
ENDBRANCH  22  23
ENDBRANCH  21  22
ENDBRANCH  20  21
ENDBRANCH   4  20
TORSDOF 6
ENDMDL