MODEL 4
REMARK VINA RESULT: -7.676017975      2.913      4.527
REMARK  4 active torsions:
REMARK  status: ('A' for Active; 'I' for Inactive)
REMARK    1  A    between atoms: C6_9  and  N3_10
REMARK    2  A    between atoms: N3_10  and  N4_12
REMARK    3  A    between atoms: N4_12  and  C7_14
REMARK    4  A    between atoms: C10_23  and  C11_24
ROOT
HETATM    1  C7  UNL     1      28.192  29.314  38.054  1.00  0.00     0.143 A
HETATM    2  N5  UNL     1      27.392  29.505  39.142  1.00  0.00    -0.317 N
ATOM      3  H5  UNL     1      26.471  29.067  39.176  1.00  0.00     0.170 HD
HETATM    4  C8  UNL     1      27.807  30.263  40.168  1.00  0.00     0.180 A
HETATM    5  S1  UNL     1      26.838  30.486  41.474  1.00  0.00    -0.040 SA
HETATM    6  N6  UNL     1      29.013  30.858  40.166  1.00  0.00    -0.299 N
ATOM      7  H6  UNL     1      29.307  31.431  40.957  1.00  0.00     0.171 HD
HETATM    8  C9  UNL     1      29.811  30.691  39.126  1.00  0.00     0.266 A
HETATM    9  O1  UNL     1      30.953  31.243  39.101  1.00  0.00    -0.267 OA
HETATM   10  C10 UNL     1      29.435  29.912  38.024  1.00  0.00     0.142 A
ENDROOT
BRANCH   1  11
HETATM   11  N4  UNL     1      27.759  28.522  36.962  1.00  0.00    -0.284 N
ATOM     12  H4  UNL     1      28.437  28.219  36.261  1.00  0.00     0.188 HD
BRANCH  11  13
HETATM   13  N3  UNL     1      26.424  28.152  36.829  1.00  0.00    -0.295 N
ATOM     14  H3  UNL     1      26.001  27.677  37.626  1.00  0.00     0.187 HD
BRANCH  13  15
HETATM   15  C6  UNL     1      25.599  28.365  35.714  1.00  0.00     0.095 A
HETATM   16  C2  UNL     1      25.548  29.535  34.987  1.00  0.00     0.052 A
HETATM   17  C1  UNL     1      26.362  30.745  35.276  1.00  0.00     0.072 C
HETATM   18  N1  UNL     1      24.645  29.390  33.978  1.00  0.00    -0.301 N
HETATM   19  N2  UNL     1      24.139  28.169  34.062  1.00  0.00    -0.299 N
ATOM     20  H1  UNL     1      24.401  30.096  33.283  1.00  0.00     0.187 HD
HETATM   21  C3  UNL     1      23.144  27.598  33.188  1.00  0.00     0.177 C
HETATM   22  C4  UNL     1      24.715  27.518  35.129  1.00  0.00     0.054 A
HETATM   23  C5  UNL     1      24.376  26.141  35.501  1.00  0.00     0.072 C
ENDBRANCH  13  15
ENDBRANCH  11  13
ENDBRANCH   1  11
BRANCH  10  24
HETATM   24  C11 UNL     1      30.347  29.756  36.909  1.00  0.00     0.274 C
HETATM   25  N7  UNL     1      30.296  30.686  35.836  1.00  0.00    -0.057 NA
HETATM   26  O2  UNL     1      31.166  28.834  36.871  1.00  0.00    -0.271 OA
ENDBRANCH  10  24
TORSDOF 4
ENDMDL