MODEL 4
REMARK VINA RESULT: -6.728925093      2.638      3.533
REMARK  6 active torsions:
REMARK  status: ('A' for Active; 'I' for Inactive)
REMARK    1  A    between atoms: O1_2  and  C2_3
REMARK    2  A    between atoms: C2_3  and  C3_5
REMARK    3  A    between atoms: N2_8  and  C4_9
REMARK    4  A    between atoms: C5_12  and  N4_13
REMARK    5  A    between atoms: C7_20  and  N6_21
REMARK    6  A    between atoms: N6_21  and  C8_23
ROOT
HETATM    1  C4  UNL     1      26.557  28.822  36.742  1.00  0.00     0.170 A
HETATM    2  N3  UNL     1      26.152  27.530  36.575  1.00  0.00    -0.173 N
ATOM      3  H3  UNL     1      26.486  26.827  37.236  1.00  0.00     0.186 HD
HETATM    4  C5  UNL     1      25.337  27.138  35.587  1.00  0.00     0.680 A
HETATM    5  N5  UNL     1      24.905  28.073  34.722  1.00  0.00    -0.154 N
ATOM      6  H5  UNL     1      24.285  27.780  33.966  1.00  0.00     0.187 HD
HETATM    7  C6  UNL     1      25.244  29.366  34.797  1.00  0.00     0.290 A
HETATM    8  O3  UNL     1      24.827  30.231  33.975  1.00  0.00    -0.265 OA
HETATM    9  C7  UNL     1      26.102  29.739  35.851  1.00  0.00     0.144 A
ENDROOT
BRANCH   1  10
HETATM   10  N2  UNL     1      27.389  29.173  37.832  1.00  0.00    -0.274 N
HETATM   11  N1  UNL     1      26.966  29.489  39.102  1.00  0.00    -0.295 N
HETATM   12  C3  UNL     1      27.692  30.206  39.891  1.00  0.00     0.101 C
ATOM     13  H1  UNL     1      26.060  29.150  39.427  1.00  0.00     0.187 HD
HETATM   14  C13 UNL     1      29.028  30.702  39.448  1.00  0.00     0.066 C
HETATM   15  C12 UNL     1      29.708  29.676  38.576  1.00  0.00     0.028 C
HETATM   16  C11 UNL     1      28.800  29.209  37.518  1.00  0.00     0.151 C
BRANCH  12  17
HETATM   17  C2  UNL     1      27.236  30.529  41.216  1.00  0.00     0.306 C
HETATM   18  O2  UNL     1      26.710  29.627  41.917  1.00  0.00    -0.258 OA
BRANCH  17  19
HETATM   19  O1  UNL     1      27.343  31.785  41.771  1.00  0.00    -0.322 OA
HETATM   20  C1  UNL     1      26.214  32.598  42.047  1.00  0.00     0.213 C
ENDBRANCH  17  19
ENDBRANCH  12  17
ENDBRANCH   1  10
BRANCH   9  21
HETATM   21  N6  UNL     1      26.487  31.095  35.886  1.00  0.00    -0.379 N
ATOM     22  H6  UNL     1      25.966  31.731  36.490  1.00  0.00     0.160 HD
BRANCH  21  23
HETATM   23  C8  UNL     1      27.583  31.629  35.109  1.00  0.00     0.074 C
HETATM   24  C9  UNL     1      27.047  32.656  34.101  1.00  0.00     0.031 C
HETATM   25  C10 UNL     1      28.701  32.244  35.850  1.00  0.00     0.031 C
ENDBRANCH  21  23
ENDBRANCH   9  21
BRANCH   4  26
HETATM   26  N4  UNL     1      25.008  25.894  35.514  1.00  0.00    -0.234 N
ATOM     27  H42 UNL     1      24.059  25.553  35.666  1.00  0.00     0.174 HD
ATOM     28  H41 UNL     1      25.731  25.209  35.294  1.00  0.00     0.174 HD
ENDBRANCH   4  26
TORSDOF 6
ENDMDL