MODEL 4
REMARK VINA RESULT: -6.566079411      2.782      4.362
REMARK  8 active torsions:
REMARK  status: ('A' for Active; 'I' for Inactive)
REMARK    1  A    between atoms: N1_2  and  C2_4
REMARK    2  A    between atoms: C4_8  and  N3_9
REMARK    3  A    between atoms: C5_12  and  N4_13
REMARK    4  A    between atoms: N4_13  and  C7_15
REMARK    5  A    between atoms: C8_17  and  C9_18
REMARK    6  A    between atoms: C9_18  and  C10_19
REMARK    7  A    between atoms: C10_19  and  O2_20
REMARK    8  A    between atoms: N5_22  and  O3_24
ROOT
HETATM    1  C2  UNL     1      23.846  28.174  33.857  1.00  0.00     0.146 A
HETATM    2  N2  UNL     1      24.647  27.883  34.875  1.00  0.00    -0.333 N
ATOM      3  H2  UNL     1      24.634  26.955  35.297  1.00  0.00     0.168 HD
HETATM    4  C3  UNL     1      25.454  28.809  35.327  1.00  0.00     0.097 A
HETATM    5  C4  UNL     1      26.364  28.721  36.371  1.00  0.00     0.085 A
HETATM    6  C5  UNL     1      27.163  29.823  36.735  1.00  0.00     0.088 A
HETATM    7  C8  UNL     1      27.093  31.007  36.105  1.00  0.00     0.047 A
HETATM    8  N6  UNL     1      26.190  31.082  35.074  1.00  0.00    -0.350 N
ATOM      9  H6  UNL     1      26.095  31.957  34.559  1.00  0.00     0.166 HD
HETATM   10  C11 UNL     1      25.432  30.034  34.728  1.00  0.00     0.107 A
HETATM   11  S1  UNL     1      24.225  29.800  33.510  1.00  0.00    -0.034 SA
ENDROOT
BRANCH   7  12
HETATM   12  C9  UNL     1      27.815  32.261  36.381  1.00  0.00     0.145 C
BRANCH  12  13
HETATM   13  C10 UNL     1      29.055  32.402  35.598  1.00  0.00     0.141 C
HETATM   14  N5  UNL     1      30.206  32.617  36.228  1.00  0.00    -0.251 N
ATOM     15  H5  UNL     1      31.075  32.716  35.702  1.00  0.00     0.196 HD
BRANCH  13  16
HETATM   16  O2  UNL     1      29.052  32.316  34.237  1.00  0.00    -0.348 OA
ATOM     17  H2  UNL     1      29.723  31.834  33.768  1.00  0.00     0.219 HD
ENDBRANCH  13  16
BRANCH  14  18
HETATM   18  O3  UNL     1      30.203  32.704  37.610  1.00  0.00    -0.288 OA
ATOM     19  H3  UNL     1      30.970  32.410  38.088  1.00  0.00     0.244 HD
ENDBRANCH  14  18
ENDBRANCH  12  13
ENDBRANCH   7  12
BRANCH   6  20
HETATM   20  N4  UNL     1      28.094  29.623  37.803  1.00  0.00    -0.326 N
HETATM   21  C6  UNL     1      27.757  29.889  39.173  1.00  0.00     0.159 C
BRANCH  20  22
HETATM   22  C7  UNL     1      29.400  29.190  37.481  1.00  0.00     0.355 C
HETATM   23  O1  UNL     1      30.413  29.886  37.798  1.00  0.00    -0.283 OA
ENDBRANCH  20  22
ENDBRANCH   6  20
BRANCH   5  24
HETATM   24  N3  UNL     1      26.521  27.622  37.053  1.00  0.00    -0.395 N
ATOM     25  H32 UNL     1      26.696  26.767  36.525  1.00  0.00     0.156 HD
ATOM     26  H31 UNL     1      26.470  27.611  38.071  1.00  0.00     0.156 HD
ENDBRANCH   5  24
BRANCH   1  27
HETATM   27  N1  UNL     1      22.975  27.448  33.236  1.00  0.00    -0.375 N
HETATM   28  C1  UNL     1      23.361  26.246  32.516  1.00  0.00     0.148 C
ATOM     29  H1  UNL     1      21.993  27.725  33.252  1.00  0.00     0.161 HD
ENDBRANCH   1  27
TORSDOF 8
ENDMDL