MODEL 4
REMARK VINA RESULT: -5.106878769      4.945      6.291
REMARK  3 active torsions:
REMARK  status: ('A' for Active; 'I' for Inactive)
REMARK    1  A    between atoms: N1_1  and  C1_4
REMARK    2  A    between atoms: N3_11  and  N4_12
REMARK    3  A    between atoms: N6_17  and  O1_18
ROOT
HETATM    1  C1  UNL     1      11.275  30.057   5.014  1.00  0.00     0.132 A
HETATM    2  N2  UNL     1      10.295  31.019   5.000  1.00  0.00    -0.351 N
ATOM      3  H2  UNL     1      10.020  31.449   5.883  1.00  0.00     0.166 HD
HETATM    4  C2  UNL     1       9.688  31.416   3.883  1.00  0.00     0.092 A
HETATM    5  C3  UNL     1       9.987  30.898   2.647  1.00  0.00     0.053 A
HETATM    6  C4  UNL     1      10.968  29.927   2.618  1.00  0.00     0.118 A
HETATM    7  C5  UNL     1      11.612  29.504   3.788  1.00  0.00     0.150 A
HETATM    8  N3  UNL     1      12.498  28.569   3.435  1.00  0.00    -0.181 N
HETATM    9  N5  UNL     1      12.425  28.400   2.106  1.00  0.00    -0.194 N
ATOM     10  H5  UNL     1      12.990  27.746   1.564  1.00  0.00     0.213 HD
HETATM   11  N6  UNL     1      11.515  29.205   1.609  1.00  0.00    -0.145 N
ENDROOT
BRANCH   1  12
HETATM   12  N1  UNL     1      11.815  29.725   6.117  1.00  0.00    -0.383 N
ATOM     13  H12 UNL     1      12.764  29.984   6.388  1.00  0.00     0.157 HD
ATOM     14  H11 UNL     1      11.289  29.166   6.788  1.00  0.00     0.157 HD
ENDBRANCH   1  12
BRANCH   8  15
HETATM   15  N4  UNL     1      13.357  27.869   4.241  1.00  0.00    -0.322 N
ATOM     16  H42 UNL     1      13.235  27.779   5.250  1.00  0.00     0.179 HD
ATOM     17  H41 UNL     1      14.201  27.362   3.973  1.00  0.00     0.179 HD
ENDBRANCH   8  15
BRANCH  11  18
HETATM   18  O1  UNL     1      11.131  29.343   0.277  1.00  0.00    -0.266 OA
ATOM     19  H1  UNL     1      11.447  28.776  -0.416  1.00  0.00     0.247 HD
ENDBRANCH  11  18
TORSDOF 3
ENDMDL