MODEL 5
REMARK VINA RESULT: -5.099272690      2.168      4.116
REMARK  1 active torsions:
REMARK  status: ('A' for Active; 'I' for Inactive)
REMARK    1  A    between atoms: N1_1  and  C1_4
ROOT
HETATM    1  C1  UNL     1      10.719  30.336   3.097  1.00  0.00     0.132 A
HETATM    2  N2  UNL     1      11.527  29.264   3.274  1.00  0.00    -0.337 N
ATOM      3  H2  UNL     1      11.772  28.680   2.474  1.00  0.00     0.168 HD
HETATM    4  C2  UNL     1      12.015  28.958   4.497  1.00  0.00     0.183 A
HETATM    5  N3  UNL     1      11.675  29.741   5.532  1.00  0.00    -0.337 N
ATOM      6  H3  UNL     1      12.046  29.503   6.452  1.00  0.00     0.168 HD
HETATM    7  C3  UNL     1      10.874  30.825   5.436  1.00  0.00     0.134 A
HETATM    8  C4  UNL     1      10.393  31.114   4.176  1.00  0.00     0.135 A
HETATM    9  N4  UNL     1       9.615  32.119   3.862  1.00  0.00    -0.298 N
ATOM     10  H4  UNL     1       9.351  32.199   2.880  1.00  0.00     0.187 HD
HETATM   11  N5  UNL     1       9.096  33.113   4.736  1.00  0.00    -0.334 N
ATOM     12  H5  UNL     1       8.173  33.488   4.516  1.00  0.00     0.180 HD
HETATM   13  C5  UNL     1       9.752  33.635   5.899  1.00  0.00     0.159 C
HETATM   14  C6  UNL     1       9.924  32.569   6.952  1.00  0.00     0.142 C
HETATM   15  N6  UNL     1      10.667  31.424   6.537  1.00  0.00    -0.373 N
ATOM     16  H6  UNL     1      11.152  30.977   7.316  1.00  0.00     0.161 HD
ENDROOT
BRANCH   1  17
HETATM   17  N1  UNL     1      10.265  30.611   1.920  1.00  0.00    -0.383 N
ATOM     18  H12 UNL     1      10.335  31.555   1.540  1.00  0.00     0.157 HD
ATOM     19  H11 UNL     1       9.829  29.878   1.361  1.00  0.00     0.157 HD
ENDBRANCH   1  17
TORSDOF 1
ENDMDL