MODEL 5
REMARK VINA RESULT: -4.423706734      7.105      8.845
REMARK  0 active torsions:
REMARK  status: ('A' for Active; 'I' for Inactive)
ROOT
HETATM    1  N1  UNL     1      15.724  24.320   3.349  1.00  0.00    -0.088 NA
HETATM    2  C1  UNL     1      14.542  25.110   3.303  1.00  0.00     0.093 C
HETATM    3  N2  UNL     1      14.528  26.250   3.782  1.00  0.00    -0.377 N
ATOM      4  H2  UNL     1      15.431  26.504   4.182  1.00  0.00     0.160 HD
HETATM    5  C2  UNL     1      13.581  27.292   3.917  1.00  0.00     0.164 C
HETATM    6  C3  UNL     1      14.001  28.611   3.332  1.00  0.00     0.075 C
HETATM    7  N3  UNL     1      13.254  29.112   2.252  1.00  0.00    -0.396 N
ATOM      8  H3  UNL     1      13.098  30.113   2.133  1.00  0.00     0.159 HD
HETATM    9  C4  UNL     1      12.716  28.153   1.321  1.00  0.00     0.163 C
HETATM   10  C5  UNL     1      13.818  27.334   0.750  1.00  0.00     0.079 C
HETATM   11  N4  UNL     1      13.703  25.949   0.711  1.00  0.00    -0.381 N
ATOM     12  H4  UNL     1      14.315  25.443   0.070  1.00  0.00     0.164 HD
HETATM   13  C6  UNL     1      12.819  25.201   1.478  1.00  0.00     0.067 C
HETATM   14  C7  UNL     1      13.373  24.496   2.669  1.00  0.00     0.117 C
ENDROOT
TORSDOF 0
ENDMDL