MODEL 2
REMARK VINA RESULT: -5.585275163      0.031      1.022
REMARK  2 active torsions:
REMARK  status: ('A' for Active; 'I' for Inactive)
REMARK    1  A    between atoms: C3_5  and  N2_6
REMARK    2  A    between atoms: N2_6  and  C4_8
ROOT
HETATM    1  N2  UNL     1      10.276  31.166   8.439  1.00  0.00    -0.020 N
ATOM      2  H2  UNL     1       9.556  30.528   8.780  1.00  0.00     0.203 HD
ENDROOT
BRANCH   1   3
HETATM    3  C3  UNL     1      10.112  31.862   7.204  1.00  0.00     0.688 C
HETATM    4  N1  UNL     1       9.710  33.085   7.160  1.00  0.00    -0.226 N
HETATM    5  C2  UNL     1       9.541  33.798   5.915  1.00  0.00     0.139 C
ATOM      6  H1  UNL     1       9.504  33.566   8.035  1.00  0.00     0.177 HD
HETATM    7  C1  UNL     1       9.160  32.818   4.832  1.00  0.00     0.040 C
HETATM    8  C5  UNL     1      10.335  31.841   4.706  1.00  0.00     0.139 C
HETATM    9  N7  UNL     1      10.408  31.164   6.004  1.00  0.00    -0.226 N
ATOM     10  H7  UNL     1      10.673  30.181   6.046  1.00  0.00     0.177 HD
ENDBRANCH   1   3
BRANCH   1  11
HETATM   11  C4  UNL     1      11.368  31.367   9.116  1.00  0.00     0.728 A
HETATM   12  N3  UNL     1      11.561  31.253  10.442  1.00  0.00    -0.115 N
HETATM   13  N4  UNL     1      12.816  31.547  10.727  1.00  0.00    -0.213 N
ATOM     14  H3  UNL     1      10.850  30.982  11.121  1.00  0.00     0.207 HD
HETATM   15  N5  UNL     1      13.445  31.852   9.609  1.00  0.00    -0.213 N
ATOM     16  H4  UNL     1      13.231  31.539  11.659  1.00  0.00     0.210 HD
HETATM   17  N6  UNL     1      12.564  31.743   8.632  1.00  0.00    -0.115 N
ATOM     18  H5  UNL     1      14.425  32.121   9.517  1.00  0.00     0.210 HD
ATOM     19  H6  UNL     1      12.763  31.919   7.646  1.00  0.00     0.207 HD
ENDBRANCH   1  11
TORSDOF 2
ENDMDL