MODEL 4
REMARK VINA RESULT: -5.169571250      4.441      6.231
REMARK  0 active torsions:
REMARK  status: ('A' for Active; 'I' for Inactive)
ROOT
HETATM    1  N1  UNL     1       8.057  32.548   7.094  1.00  0.00    -0.233 N
ATOM      2  H11 UNL     1       7.696  32.930   7.968  1.00  0.00     0.174 HD
ATOM      3  H12 UNL     1       7.309  32.643   6.408  1.00  0.00     0.174 HD
HETATM    4  C1  UNL     1       9.244  32.077   7.030  1.00  0.00     0.700 A
HETATM    5  N2  UNL     1       9.728  31.565   5.857  1.00  0.00    -0.130 N
ATOM      6  H2  UNL     1       9.226  31.509   4.971  1.00  0.00     0.205 HD
HETATM    7  N3  UNL     1      10.954  31.157   6.081  1.00  0.00    -0.274 N
ATOM      8  H3  UNL     1      11.559  30.729   5.380  1.00  0.00     0.189 HD
HETATM    9  C2  UNL     1      11.308  31.383   7.371  1.00  0.00     0.124 A
HETATM   10  N4  UNL     1      10.231  31.953   7.936  1.00  0.00    -0.106 N
HETATM   11  C3  UNL     1      10.253  32.331   9.309  1.00  0.00     0.212 A
HETATM   12  N5  UNL     1       9.116  32.936   9.919  1.00  0.00    -0.062 NA
HETATM   13  N6  UNL     1      11.314  32.117   9.982  1.00  0.00    -0.363 N
ATOM     14  H6  UNL     1      11.282  32.404  10.960  1.00  0.00     0.162 HD
HETATM   15  C4  UNL     1      12.534  31.532   9.552  1.00  0.00     0.130 A
HETATM   16  C5  UNL     1      12.559  31.111   8.122  1.00  0.00     0.099 A
ENDROOT
TORSDOF 0
ENDMDL