MODEL 5
REMARK VINA RESULT: -4.289624603      1.582      3.186
REMARK  1 active torsions:
REMARK  status: ('A' for Active; 'I' for Inactive)
REMARK    1  A    between atoms: N4_11  and  N5_12
ROOT
HETATM    1  N1  UNL     1      10.401  30.582   5.136  1.00  0.00    -0.082 NA
HETATM    2  C1  UNL     1      10.882  31.238   6.302  1.00  0.00     0.129 C
HETATM    3  N2  UNL     1      11.738  30.674   7.031  1.00  0.00    -0.376 N
ATOM      4  H2  UNL     1      12.036  29.750   6.719  1.00  0.00     0.160 HD
HETATM    5  C2  UNL     1      12.351  31.140   8.230  1.00  0.00     0.140 C
HETATM    6  C3  UNL     1      11.548  30.943   9.474  1.00  0.00     0.138 C
HETATM    7  N3  UNL     1      10.886  32.126   9.861  1.00  0.00    -0.396 N
ATOM      8  H3  UNL     1      11.397  32.850  10.367  1.00  0.00     0.158 HD
HETATM    9  C4  UNL     1       9.532  32.314   9.554  1.00  0.00     0.102 C
HETATM   10  C5  UNL     1       8.966  31.655   8.368  1.00  0.00     0.132 C
HETATM   11  N4  UNL     1       9.078  32.460   7.221  1.00  0.00    -0.281 N
HETATM   12  C6  UNL     1      10.330  32.580   6.595  1.00  0.00     0.159 C
ENDROOT
BRANCH  11  13
HETATM   13  N5  UNL     1       8.170  33.458   7.046  1.00  0.00    -0.339 N
ATOM     14  H52 UNL     1       7.288  33.234   6.586  1.00  0.00     0.177 HD
ATOM     15  H51 UNL     1       8.510  34.419   7.021  1.00  0.00     0.177 HD
ENDBRANCH  11  13
TORSDOF 1
ENDMDL