MODEL 3
REMARK VINA RESULT: -5.027086738      1.317      2.258
REMARK  2 active torsions:
REMARK  status: ('A' for Active; 'I' for Inactive)
REMARK    1  A    between atoms: N1_1  and  C1_4
REMARK    2  A    between atoms: N4_10  and  O1_11
ROOT
HETATM    1  C1  UNL     1      10.183  31.396   5.530  1.00  0.00     0.692 A
HETATM    2  N2  UNL     1      11.206  30.956   6.278  1.00  0.00    -0.131 N
ATOM      3  H2  UNL     1      11.990  30.503   5.808  1.00  0.00     0.205 HD
HETATM    4  N3  UNL     1      11.251  31.079   7.595  1.00  0.00    -0.266 N
ATOM      5  H3  UNL     1      12.061  30.718   8.098  1.00  0.00     0.189 HD
HETATM    6  C2  UNL     1      10.260  31.664   8.288  1.00  0.00     0.194 A
HETATM    7  N4  UNL     1      10.030  31.925   9.585  1.00  0.00    -0.198 N
HETATM    8  C3  UNL     1       8.843  32.540   9.660  1.00  0.00     0.217 A
HETATM    9  N5  UNL     1       8.300  32.681   8.418  1.00  0.00    -0.333 N
ATOM     10  H5  UNL     1       7.401  33.118   8.215  1.00  0.00     0.168 HD
HETATM   11  C4  UNL     1       9.131  32.154   7.502  1.00  0.00     0.170 A
HETATM   12  N6  UNL     1       9.157  31.992   6.168  1.00  0.00    -0.172 N
ATOM     13  H6  UNL     1       8.369  32.334   5.617  1.00  0.00     0.186 HD
ENDROOT
BRANCH   1  14
HETATM   14  N1  UNL     1      10.178  31.254   4.229  1.00  0.00    -0.233 N
ATOM     15  H12 UNL     1       9.869  30.384   3.797  1.00  0.00     0.174 HD
ATOM     16  H11 UNL     1      10.480  32.006   3.610  1.00  0.00     0.174 HD
ENDBRANCH   1  14
BRANCH   7  17
HETATM   17  O1  UNL     1      10.814  31.645  10.676  1.00  0.00    -0.280 OA
ATOM     18  H1  UNL     1      10.555  31.336  11.537  1.00  0.00     0.245 HD
ENDBRANCH   7  17
TORSDOF 2
ENDMDL