MODEL 2
REMARK VINA RESULT: -5.483774985      2.028      3.282
REMARK  2 active torsions:
REMARK  status: ('A' for Active; 'I' for Inactive)
REMARK    1  A    between atoms: N1_1  and  C1_4
REMARK    2  A    between atoms: N2_7  and  O1_8
ROOT
HETATM    1  C1  UNL     1       9.023  32.563   8.625  1.00  0.00     0.127 A
HETATM    2  C2  UNL     1       8.294  32.893   7.467  1.00  0.00     0.069 A
HETATM    3  C3  UNL     1       8.803  32.607   6.221  1.00  0.00     0.146 A
HETATM    4  N2  UNL     1       9.995  32.013   6.068  1.00  0.00    -0.062 N
HETATM    5  C4  UNL     1      10.673  31.708   7.212  1.00  0.00     0.733 A
HETATM    6  N3  UNL     1      11.880  31.116   7.390  1.00  0.00    -0.127 N
ATOM      7  H3  UNL     1      12.497  30.791   6.646  1.00  0.00     0.206 HD
HETATM    8  N4  UNL     1      12.122  31.029   8.673  1.00  0.00    -0.258 N
ATOM      9  H4  UNL     1      12.963  30.622   9.082  1.00  0.00     0.190 HD
HETATM   10  C5  UNL     1      11.100  31.555   9.378  1.00  0.00     0.231 A
HETATM   11  N5  UNL     1      11.046  31.619  10.782  1.00  0.00    -0.061 NA
HETATM   12  N6  UNL     1      10.203  31.973   8.444  1.00  0.00    -0.100 N
ENDROOT
BRANCH   1  13
HETATM   13  N1  UNL     1       8.519  32.842   9.731  1.00  0.00    -0.384 N
ATOM     14  H12 UNL     1       7.956  32.207  10.298  1.00  0.00     0.157 HD
ATOM     15  H11 UNL     1       8.677  33.777  10.107  1.00  0.00     0.157 HD
ENDBRANCH   1  13
BRANCH   4  16
HETATM   16  O1  UNL     1      10.533  31.714   4.852  1.00  0.00    -0.270 OA
ATOM     17  H1  UNL     1      11.454  31.825   4.646  1.00  0.00     0.245 HD
ENDBRANCH   4  16
TORSDOF 2
ENDMDL