MODEL 5
REMARK VINA RESULT: -4.864468701      1.352      2.308
REMARK  2 active torsions:
REMARK  status: ('A' for Active; 'I' for Inactive)
REMARK    1  A    between atoms: N1_1  and  C1_4
REMARK    2  A    between atoms: N5_13  and  O1_14
ROOT
HETATM    1  C1  UNL     1       9.732  31.994   5.382  1.00  0.00     0.131 A
HETATM    2  C2  UNL     1      10.808  31.446   6.049  1.00  0.00     0.155 A
HETATM    3  N2  UNL     1      10.828  31.468   7.394  1.00  0.00    -0.193 N
ATOM      4  H2  UNL     1      11.627  31.063   7.882  1.00  0.00     0.183 HD
HETATM    5  C3  UNL     1       9.826  32.009   8.119  1.00  0.00     0.746 A
HETATM    6  N3  UNL     1       8.778  32.542   7.465  1.00  0.00    -0.015 N
HETATM    7  N4  UNL     1       7.930  33.006   8.391  1.00  0.00    -0.257 N
ATOM      8  H4  UNL     1       7.041  33.466   8.198  1.00  0.00     0.190 HD
HETATM    9  C4  UNL     1       8.432  32.773   9.609  1.00  0.00     0.251 A
HETATM   10  N5  UNL     1       9.613  32.151   9.442  1.00  0.00    -0.043 N
HETATM   11  N6  UNL     1       8.748  32.526   6.149  1.00  0.00    -0.248 N
ATOM     12  H6  UNL     1       7.940  32.936   5.680  1.00  0.00     0.191 HD
ENDROOT
BRANCH   1  13
HETATM   13  N1  UNL     1       9.629  32.017   4.091  1.00  0.00    -0.383 N
ATOM     14  H12 UNL     1      10.457  32.177   3.517  1.00  0.00     0.157 HD
ATOM     15  H11 UNL     1       8.747  31.882   3.596  1.00  0.00     0.157 HD
ENDBRANCH   1  13
BRANCH  10  16
HETATM   16  O1  UNL     1      10.473  31.725  10.414  1.00  0.00    -0.268 OA
ATOM     17  H1  UNL     1      10.584  32.149  11.257  1.00  0.00     0.246 HD
ENDBRANCH  10  16
TORSDOF 2
ENDMDL