MODEL 3
REMARK VINA RESULT: -5.132281595      1.879      2.965
REMARK  2 active torsions:
REMARK  status: ('A' for Active; 'I' for Inactive)
REMARK    1  A    between atoms: N1_1  and  C1_4
REMARK    2  A    between atoms: N3_7  and  O1_8
ROOT
HETATM    1  C1  UNL     1      11.858  30.887   7.393  1.00  0.00     0.694 A
HETATM    2  N2  UNL     1      12.089  31.026   8.709  1.00  0.00    -0.104 N
ATOM      3  H2  UNL     1      12.972  30.676   9.079  1.00  0.00     0.208 HD
HETATM    4  N3  UNL     1      11.251  31.582   9.544  1.00  0.00    -0.128 N
HETATM    5  C2  UNL     1      10.081  32.052   9.086  1.00  0.00     0.193 A
HETATM    6  C3  UNL     1       9.801  31.929   7.732  1.00  0.00     0.165 A
HETATM    7  N4  UNL     1      10.694  31.348   6.903  1.00  0.00    -0.172 N
ATOM      8  H4  UNL     1      10.486  31.259   5.908  1.00  0.00     0.186 HD
HETATM    9  N5  UNL     1       8.557  32.437   7.290  1.00  0.00    -0.371 N
ATOM     10  H5  UNL     1       8.461  32.631   6.292  1.00  0.00     0.161 HD
HETATM   11  C4  UNL     1       7.424  32.701   8.118  1.00  0.00     0.141 C
HETATM   12  C5  UNL     1       7.722  32.795   9.576  1.00  0.00     0.141 C
HETATM   13  N6  UNL     1       9.106  32.671   9.912  1.00  0.00    -0.368 N
ATOM     14  H6  UNL     1       9.415  33.052  10.807  1.00  0.00     0.161 HD
ENDROOT
BRANCH   1  15
HETATM   15  N1  UNL     1      12.717  30.326   6.583  1.00  0.00    -0.233 N
ATOM     16  H12 UNL     1      13.563  29.905   6.966  1.00  0.00     0.174 HD
ATOM     17  H11 UNL     1      12.578  30.290   5.573  1.00  0.00     0.174 HD
ENDBRANCH   1  15
BRANCH   4  18
HETATM   18  O1  UNL     1      11.501  31.718  10.896  1.00  0.00    -0.266 OA
ATOM     19  H1  UNL     1      11.838  31.015  11.440  1.00  0.00     0.247 HD
ENDBRANCH   4  18
TORSDOF 2
ENDMDL