MODEL 5
REMARK VINA RESULT: -8.107325267      2.090      5.842
REMARK  1 active torsions:
REMARK  status: ('A' for Active; 'I' for Inactive)
REMARK    1  A    between atoms: O1_1  and  C1_3
ROOT
HETATM    1  C1  UNL     1      16.741 -10.468  44.405  1.00  0.00     0.066 A
HETATM    2  C2  UNL     1      15.706 -10.054  43.632  1.00  0.00     0.039 A
HETATM    3  C3  UNL     1      15.980  -9.258  42.540  1.00  0.00     0.034 A
HETATM    4  C4  UNL     1      17.263  -8.882  42.222  1.00  0.00     0.051 A
HETATM    5  C5  UNL     1      18.321  -9.320  43.032  1.00  0.00     0.022 A
HETATM    6  C6  UNL     1      18.072 -10.114  44.125  1.00  0.00     0.052 A
HETATM    7  C7  UNL     1      19.621  -8.955  42.733  1.00  0.00     0.064 A
HETATM    8  N1  UNL     1      20.820  -9.187  43.271  1.00  0.00    -0.321 N
HETATM    9  C8  UNL     1      21.239  -9.876  44.329  1.00  0.00     0.097 A
HETATM   10  C9  UNL     1      22.591  -9.950  44.668  1.00  0.00     0.018 A
HETATM   11  C10 UNL     1      23.553  -9.320  43.931  1.00  0.00     0.004 A
HETATM   12  C11 UNL     1      23.121  -8.606  42.835  1.00  0.00     0.030 A
HETATM   13  C12 UNL     1      21.769  -8.549  42.520  1.00  0.00     0.040 A
HETATM   14  C13 UNL     1      21.186  -7.891  41.477  1.00  0.00     0.046 A
HETATM   15  C14 UNL     1      19.823  -8.105  41.550  1.00  0.00     0.021 A
HETATM   16  C15 UNL     1      18.753  -7.720  40.814  1.00  0.00     0.051 A
HETATM   17  C16 UNL     1      19.005  -6.926  39.720  1.00  0.00     0.031 A
HETATM   18  C17 UNL     1      17.962  -6.508  38.941  1.00  0.00     0.004 A
HETATM   19  C18 UNL     1      16.697  -6.904  39.292  1.00  0.00     0.018 A
HETATM   20  C19 UNL     1      16.462  -7.702  40.394  1.00  0.00     0.097 A
HETATM   21  N2  UNL     1      17.513  -8.092  41.135  1.00  0.00    -0.321 N
ENDROOT
BRANCH   1  22
HETATM   22  O1  UNL     1      16.514 -11.277  45.524  1.00  0.00    -0.361 OA
ATOM     23  H1  UNL     1      15.715 -11.784  45.601  1.00  0.00     0.217 HD
ENDBRANCH   1  22
TORSDOF 1
ENDMDL