MODEL 4
REMARK VINA RESULT: -8.410838798      3.816      7.421
REMARK  1 active torsions:
REMARK  status: ('A' for Active; 'I' for Inactive)
REMARK    1  A    between atoms: O1_1  and  C1_3
ROOT
HETATM    1  C1  UNL     1      24.919  -5.973  42.809  1.00  0.00     0.066 A
HETATM    2  C2  UNL     1      25.668  -7.101  43.058  1.00  0.00     0.037 A
HETATM    3  C3  UNL     1      25.112  -8.352  43.153  1.00  0.00     0.016 A
HETATM    4  C4  UNL     1      23.765  -8.503  42.995  1.00  0.00    -0.007 A
HETATM    5  C5  UNL     1      23.365  -9.848  43.075  1.00  0.00     0.109 C
HETATM    6  N1  UNL     1      22.320 -10.336  42.349  1.00  0.00    -0.331 N
HETATM    7  C6  UNL     1      22.293 -11.570  41.819  1.00  0.00     0.097 A
HETATM    8  C7  UNL     1      21.135 -11.702  41.085  1.00  0.00     0.020 A
HETATM    9  C8  UNL     1      20.382 -10.524  41.137  1.00  0.00     0.032 A
HETATM   10  C9  UNL     1      21.120  -9.680  41.927  1.00  0.00     0.051 A
HETATM   11  C10 UNL     1      20.770  -8.412  42.287  1.00  0.00     0.031 A
HETATM   12  C11 UNL     1      19.480  -7.975  42.349  1.00  0.00     0.005 A
HETATM   13  C12 UNL     1      18.264  -8.555  42.166  1.00  0.00     0.014 A
HETATM   14  C13 UNL     1      17.121  -7.777  42.344  1.00  0.00     0.001 A
HETATM   15  C14 UNL     1      17.192  -6.461  42.696  1.00  0.00     0.002 A
HETATM   16  C15 UNL     1      18.436  -5.870  42.887  1.00  0.00     0.030 A
HETATM   17  C16 UNL     1      19.559  -6.645  42.709  1.00  0.00     0.043 A
HETATM   18  N2  UNL     1      20.858  -6.266  42.872  1.00  0.00    -0.354 N
ATOM     19  H2  UNL     1      21.197  -5.341  43.137  1.00  0.00     0.166 HD
HETATM   20  C17 UNL     1      21.591  -7.337  42.619  1.00  0.00     0.057 A
HETATM   21  C18 UNL     1      22.986  -7.374  42.744  1.00  0.00     0.006 A
HETATM   22  C19 UNL     1      23.540  -6.109  42.646  1.00  0.00     0.051 A
ENDROOT
BRANCH   1  23
HETATM   23  O1  UNL     1      25.523  -4.736  42.721  1.00  0.00    -0.361 OA
ATOM     24  H1  UNL     1      25.113  -3.970  43.107  1.00  0.00     0.217 HD
ENDBRANCH   1  23
TORSDOF 1
ENDMDL