MODEL 2
REMARK VINA RESULT: -9.048542519      2.861      9.208
REMARK  4 active torsions:
REMARK  status: ('A' for Active; 'I' for Inactive)
REMARK    1  A    between atoms: C4_5  and  C5_6
REMARK    2  A    between atoms: C6_7  and  C7_8
REMARK    3  A    between atoms: C12_14  and  C13_15
REMARK    4  A    between atoms: C14_16  and  C15_17
ROOT
HETATM    1  N1  UNL     1      19.721  -8.161  44.346  1.00  0.00    -0.101 NA
HETATM    2  C1  UNL     1      19.180  -8.041  43.044  1.00  0.00     0.065 A
HETATM    3  C2  UNL     1      17.843  -8.214  42.807  1.00  0.00     0.029 A
HETATM    4  C3  UNL     1      17.342  -8.091  41.526  1.00  0.00     0.022 A
HETATM    5  C4  UNL     1      18.164  -7.793  40.460  1.00  0.00     0.019 A
HETATM    6  C11 UNL     1      19.500  -7.624  40.727  1.00  0.00     0.043 A
HETATM    7  C12 UNL     1      20.028  -7.743  42.004  1.00  0.00     0.043 A
ENDROOT
BRANCH   7   8
HETATM    8  C13 UNL     1      21.419  -7.570  42.298  1.00  0.00    -0.059 C
HETATM    9  C14 UNL     1      22.607  -7.431  42.529  1.00  0.00    -0.061 C
BRANCH   9  10
HETATM   10  C15 UNL     1      24.013  -7.246  42.787  1.00  0.00     0.018 A
HETATM   11  C16 UNL     1      24.550  -5.986  42.659  1.00  0.00     0.020 A
HETATM   12  C17 UNL     1      25.911  -5.793  42.907  1.00  0.00     0.001 A
HETATM   13  C18 UNL     1      26.726  -6.842  43.278  1.00  0.00     0.000 A
HETATM   14  C19 UNL     1      26.197  -8.108  43.410  1.00  0.00     0.001 A
HETATM   15  C20 UNL     1      24.842  -8.277  43.158  1.00  0.00     0.020 A
ENDBRANCH   9  10
ENDBRANCH   7   8
BRANCH   5  16
HETATM   16  C5  UNL     1      17.585  -7.677  39.152  1.00  0.00    -0.061 C
HETATM   17  C6  UNL     1      17.115  -7.570  38.047  1.00  0.00    -0.054 C
BRANCH  17  18
HETATM   18  C7  UNL     1      16.531  -7.459  36.714  1.00  0.00     0.058 A
HETATM   19  C8  UNL     1      16.234  -8.479  35.847  1.00  0.00     0.028 A
HETATM   20  C9  UNL     1      15.698  -8.142  34.667  1.00  0.00     0.009 A
HETATM   21  C10 UNL     1      15.491  -6.809  34.424  1.00  0.00     0.051 A
HETATM   22  S1  UNL     1      16.054  -6.072  35.856  1.00  0.00    -0.093 SA
ENDBRANCH  17  18
ENDBRANCH   5  16
TORSDOF 4
ENDMDL