MODEL 3
REMARK VINA RESULT: -9.935265947      2.207      6.899
REMARK  1 active torsions:
REMARK  status: ('A' for Active; 'I' for Inactive)
REMARK    1  A    between atoms: N1_1  and  C1_5
ROOT
HETATM    1  C1  UNL     1      19.913  -8.966  43.337  1.00  0.00     0.267 C
HETATM    2  C2  UNL     1      18.966  -8.783  42.173  1.00  0.00    -0.015 A
HETATM    3  C3  UNL     1      17.960  -9.675  41.958  1.00  0.00     0.011 A
HETATM    4  C4  UNL     1      17.097  -9.528  40.870  1.00  0.00     0.013 A
HETATM    5  C5  UNL     1      17.269  -8.466  40.007  1.00  0.00    -0.025 A
HETATM    6  C6  UNL     1      16.416  -8.309  38.919  1.00  0.00     0.012 A
HETATM    7  C7  UNL     1      16.591  -7.249  38.062  1.00  0.00     0.001 A
HETATM    8  C8  UNL     1      17.590  -6.327  38.241  1.00  0.00     0.001 A
HETATM    9  C9  UNL     1      18.441  -6.475  39.317  1.00  0.00     0.013 A
HETATM   10  C10 UNL     1      18.271  -7.548  40.193  1.00  0.00    -0.019 A
HETATM   11  C11 UNL     1      19.120  -7.719  41.291  1.00  0.00    -0.034 A
HETATM   12  C12 UNL     1      20.204  -6.790  41.604  1.00  0.00     0.080 C
HETATM   13  C13 UNL     1      21.432  -7.552  41.950  1.00  0.00    -0.028 A
HETATM   14  C14 UNL     1      22.687  -7.219  41.445  1.00  0.00     0.023 A
HETATM   15  C15 UNL     1      23.782  -7.959  41.833  1.00  0.00    -0.009 A
HETATM   16  C16 UNL     1      25.060  -7.666  41.356  1.00  0.00     0.014 A
HETATM   17  C17 UNL     1      26.151  -8.412  41.751  1.00  0.00     0.001 A
HETATM   18  C18 UNL     1      25.969  -9.462  42.628  1.00  0.00     0.002 A
HETATM   19  C19 UNL     1      24.696  -9.733  43.087  1.00  0.00     0.030 A
HETATM   20  C20 UNL     1      23.587  -9.003  42.710  1.00  0.00     0.042 A
HETATM   21  N2  UNL     1      22.343  -9.313  43.193  1.00  0.00    -0.356 N
ATOM     22  H2  UNL     1      22.231 -10.093  43.842  1.00  0.00     0.166 HD
HETATM   23  C21 UNL     1      21.285  -8.606  42.825  1.00  0.00     0.051 A
ENDROOT
BRANCH   1  24
HETATM   24  N1  UNL     1      19.532  -8.201  44.485  1.00  0.00    -0.066 N
ATOM     25  H13 UNL     1      18.814  -7.518  44.247  1.00  0.00     0.275 HD
ATOM     26  H12 UNL     1      19.006  -8.771  45.147  1.00  0.00     0.275 HD
ATOM     27  H11 UNL     1      20.327  -7.752  44.940  1.00  0.00     0.275 HD
ENDBRANCH   1  24
TORSDOF 1
ENDMDL