MODEL 2
REMARK VINA RESULT: -9.370243981      1.461      1.461
REMARK  1 active torsions:
REMARK  status: ('A' for Active; 'I' for Inactive)
REMARK    1  A    between atoms: N1_2  and  C2_4
ROOT
HETATM    1  C2  UNL     1      18.114  -9.340  41.915  1.00  0.00     0.058 A
HETATM    2  C3  UNL     1      19.462  -9.453  42.341  1.00  0.00     0.047 A
HETATM    3  C4  UNL     1      19.797  -9.984  43.543  1.00  0.00     0.060 A
HETATM    4  N2  UNL     1      18.812 -10.411  44.343  1.00  0.00    -0.354 N
ATOM      5  H2  UNL     1      19.051 -10.813  45.250  1.00  0.00     0.166 HD
HETATM    6  C5  UNL     1      17.512 -10.326  43.988  1.00  0.00     0.045 A
HETATM    7  C6  UNL     1      16.547 -10.795  44.883  1.00  0.00     0.030 A
HETATM    8  C7  UNL     1      15.202 -10.750  44.606  1.00  0.00     0.002 A
HETATM    9  C8  UNL     1      14.866 -10.211  43.385  1.00  0.00     0.001 A
HETATM   10  C9  UNL     1      15.799  -9.738  42.478  1.00  0.00     0.016 A
HETATM   11  C10 UNL     1      17.146  -9.798  42.786  1.00  0.00     0.018 A
HETATM   12  C11 UNL     1      21.238  -9.777  43.284  1.00  0.00     0.020 A
HETATM   13  C12 UNL     1      22.564  -9.879  43.681  1.00  0.00     0.029 A
HETATM   14  C13 UNL     1      23.547  -9.433  42.836  1.00  0.00    -0.009 A
HETATM   15  C14 UNL     1      24.866  -9.521  43.202  1.00  0.00     0.014 A
HETATM   16  C15 UNL     1      25.890  -9.084  42.385  1.00  0.00     0.001 A
HETATM   17  C16 UNL     1      25.547  -8.545  41.165  1.00  0.00     0.002 A
HETATM   18  C17 UNL     1      24.221  -8.462  40.808  1.00  0.00     0.030 A
HETATM   19  C18 UNL     1      23.184  -8.897  41.620  1.00  0.00     0.043 A
HETATM   20  N3  UNL     1      21.882  -8.807  41.252  1.00  0.00    -0.354 N
ATOM     21  H3  UNL     1      21.647  -8.406  40.344  1.00  0.00     0.166 HD
HETATM   22  C19 UNL     1      20.879  -9.242  42.068  1.00  0.00     0.060 A
ENDROOT
BRANCH   1  23
HETATM   23  N1  UNL     1      17.902  -8.857  40.833  1.00  0.00    -0.374 N
HETATM   24  C1  UNL     1      17.827  -7.795  40.000  1.00  0.00     0.118 C
ATOM     25  H1  UNL     1      17.650  -9.654  40.248  1.00  0.00     0.164 HD
ENDBRANCH   1  23
TORSDOF 1
ENDMDL