MODEL 4
REMARK VINA RESULT: -8.078902669      3.397      6.143
REMARK  1 active torsions:
REMARK  status: ('A' for Active; 'I' for Inactive)
REMARK    1  A    between atoms: C10_12  and  O2_13
ROOT
HETATM    1  O1  UNL     1      18.911  -5.789  43.225  1.00  0.00    -0.247 OA
HETATM    2  S1  UNL     1      19.503  -6.951  42.206  1.00  0.00     0.086 S
HETATM    3  C1  UNL     1      20.128  -8.350  43.048  1.00  0.00     0.047 A
HETATM    4  C2  UNL     1      21.478  -8.305  43.204  1.00  0.00     0.022 A
HETATM    5  C3  UNL     1      22.182  -9.341  43.812  1.00  0.00     0.002 A
HETATM    6  C4  UNL     1      21.448 -10.419  44.254  1.00  0.00     0.001 A
HETATM    7  C5  UNL     1      20.086 -10.512  44.121  1.00  0.00     0.014 A
HETATM    8  C6  UNL     1      19.436  -9.473  43.520  1.00  0.00    -0.005 A
HETATM    9  C7  UNL     1      17.999  -9.692  43.472  1.00  0.00    -0.013 A
HETATM   10  C8  UNL     1      17.567 -10.377  44.576  1.00  0.00     0.016 A
HETATM   11  C9  UNL     1      16.217 -10.651  44.678  1.00  0.00     0.037 A
HETATM   12  C10 UNL     1      15.309 -10.258  43.717  1.00  0.00     0.066 A
HETATM   13  C11 UNL     1      15.751  -9.563  42.604  1.00  0.00     0.049 A
HETATM   14  C12 UNL     1      17.091  -9.279  42.475  1.00  0.00    -0.011 A
HETATM   15  C13 UNL     1      17.359  -8.544  41.269  1.00  0.00    -0.005 A
HETATM   16  C14 UNL     1      16.517  -8.931  40.259  1.00  0.00     0.014 A
HETATM   17  C15 UNL     1      16.667  -8.262  39.046  1.00  0.00     0.001 A
HETATM   18  C16 UNL     1      17.586  -7.269  38.822  1.00  0.00     0.002 A
HETATM   19  C17 UNL     1      18.421  -6.905  39.869  1.00  0.00     0.022 A
HETATM   20  C18 UNL     1      18.304  -7.540  41.071  1.00  0.00     0.047 A
ENDROOT
BRANCH  12  21
HETATM   21  O2  UNL     1      13.940 -10.551  43.847  1.00  0.00    -0.361 OA
ATOM     22  H2  UNL     1      13.277  -9.937  43.554  1.00  0.00     0.217 HD
ENDBRANCH  12  21
TORSDOF 1
ENDMDL