MODEL 3
REMARK VINA RESULT: -8.554644852      1.310      5.625
REMARK  0 active torsions:
REMARK  status: ('A' for Active; 'I' for Inactive)
ROOT
HETATM    1  C1  UNL     1      16.105 -11.144  43.546  1.00  0.00     0.056 C
HETATM    2  C2  UNL     1      16.966 -10.207  42.766  1.00  0.00    -0.020 A
HETATM    3  C3  UNL     1      16.490  -9.472  41.701  1.00  0.00     0.026 A
HETATM    4  C4  UNL     1      17.210  -8.602  40.945  1.00  0.00    -0.020 A
HETATM    5  C5  UNL     1      16.524  -7.961  39.910  1.00  0.00     0.029 A
HETATM    6  C6  UNL     1      17.127  -7.056  39.066  1.00  0.00     0.089 A
HETATM    7  N1  UNL     1      18.410  -6.788  39.250  1.00  0.00    -0.364 N
ATOM      8  H1  UNL     1      18.869  -6.120  38.631  1.00  0.00     0.165 HD
HETATM    9  C7  UNL     1      19.127  -7.371  40.227  1.00  0.00     0.062 A
HETATM   10  C8  UNL     1      20.459  -7.043  40.358  1.00  0.00     0.147 A
HETATM   11  N2  UNL     1      21.242  -7.581  41.309  1.00  0.00    -0.263 N
HETATM   12  N3  UNL     1      22.518  -7.428  41.627  1.00  0.00    -0.293 N
ATOM     13  H3  UNL     1      23.164  -6.808  41.140  1.00  0.00     0.187 HD
HETATM   14  C9  UNL     1      22.845  -8.197  42.674  1.00  0.00     0.061 A
HETATM   15  C10 UNL     1      24.057  -8.374  43.360  1.00  0.00     0.032 A
HETATM   16  C11 UNL     1      24.058  -9.255  44.413  1.00  0.00     0.002 A
HETATM   17  C12 UNL     1      22.922  -9.936  44.780  1.00  0.00     0.001 A
HETATM   18  C13 UNL     1      21.715  -9.749  44.083  1.00  0.00     0.016 A
HETATM   19  C14 UNL     1      21.695  -8.877  43.035  1.00  0.00     0.022 A
HETATM   20  C15 UNL     1      20.707  -8.467  42.156  1.00  0.00     0.086 A
HETATM   21  C16 UNL     1      19.375  -8.822  42.058  1.00  0.00     0.048 A
HETATM   22  S1  UNL     1      18.613  -9.945  43.099  1.00  0.00    -0.092 SA
HETATM   23  C17 UNL     1      18.544  -8.287  41.092  1.00  0.00     0.022 A
ENDROOT
TORSDOF 0
ENDMDL