MODEL 2
REMARK VINA RESULT: -8.723933743      0.240      3.699
REMARK  2 active torsions:
REMARK  status: ('A' for Active; 'I' for Inactive)
REMARK    1  A    between atoms: C7_8  and  N2_9
REMARK    2  A    between atoms: N2_9  and  C8_11
ROOT
HETATM    1  N1  UNL     1      18.020  -4.486  35.500  1.00  0.00    -0.191 NA
HETATM    2  C1  UNL     1      17.610  -5.577  35.615  1.00  0.00     0.102 C
HETATM    3  C2  UNL     1      17.101  -6.917  35.762  1.00  0.00     0.071 A
HETATM    4  C3  UNL     1      16.972  -7.668  34.628  1.00  0.00     0.025 A
HETATM    5  C4  UNL     1      16.490  -8.953  34.733  1.00  0.00     0.002 A
HETATM    6  C5  UNL     1      16.155  -9.439  35.962  1.00  0.00     0.002 A
HETATM    7  C6  UNL     1      16.286  -8.682  37.101  1.00  0.00     0.031 A
HETATM    8  C7  UNL     1      16.773  -7.364  37.049  1.00  0.00     0.053 A
ENDROOT
BRANCH   8   9
HETATM    9  N2  UNL     1      16.929  -6.557  38.101  1.00  0.00    -0.354 N
ATOM     10  H2  UNL     1      17.806  -6.084  37.883  1.00  0.00     0.166 HD
BRANCH   9  11
HETATM   11  C8  UNL     1      16.632  -6.071  39.151  1.00  0.00     0.058 A
HETATM   12  C9  UNL     1      17.462  -6.342  40.266  1.00  0.00     0.018 A
HETATM   13  C10 UNL     1      18.567  -7.150  40.078  1.00  0.00     0.016 A
HETATM   14  C14 UNL     1      17.205  -5.830  41.511  1.00  0.00     0.045 A
HETATM   15  C11 UNL     1      19.375  -7.416  41.152  1.00  0.00     0.001 A
HETATM   16  C12 UNL     1      19.149  -6.921  42.417  1.00  0.00     0.002 A
HETATM   17  C13 UNL     1      18.042  -6.120  42.569  1.00  0.00     0.030 A
HETATM   18  N3  UNL     1      16.134  -5.044  41.697  1.00  0.00    -0.355 N
HETATM   19  C15 UNL     1      15.311  -4.751  40.690  1.00  0.00     0.045 A
ATOM     20  H3  UNL     1      15.946  -4.664  42.625  1.00  0.00     0.166 HD
HETATM   21  C16 UNL     1      14.235  -3.937  40.971  1.00  0.00     0.030 A
HETATM   22  C20 UNL     1      15.551  -5.259  39.406  1.00  0.00     0.018 A
HETATM   23  C17 UNL     1      13.357  -3.602  39.971  1.00  0.00     0.002 A
HETATM   24  C18 UNL     1      13.581  -4.090  38.724  1.00  0.00     0.001 A
HETATM   25  C19 UNL     1      14.668  -4.918  38.422  1.00  0.00     0.016 A
ENDBRANCH   9  11
ENDBRANCH   8   9
TORSDOF 2
ENDMDL