MODEL 3
REMARK VINA RESULT: -8.419131139      2.517      3.989
REMARK  0 active torsions:
REMARK  status: ('A' for Active; 'I' for Inactive)
ROOT
HETATM    1  C1  UNL     1      21.480  -7.032  41.746  1.00  0.00     0.165 C
HETATM    2  N1  UNL     1      20.643  -8.200  41.718  1.00  0.00    -0.320 N
HETATM    3  S1  UNL     1      21.392  -9.696  41.340  1.00  0.00    -0.023 SA
HETATM    4  C2  UNL     1      20.032 -10.692  41.437  1.00  0.00     0.084 A
HETATM    5  C3  UNL     1      19.027  -9.810  41.766  1.00  0.00     0.029 A
HETATM    6  C4  UNL     1      17.705 -10.249  41.943  1.00  0.00     0.073 A
HETATM    7  N2  UNL     1      17.349 -11.547  41.803  1.00  0.00    -0.352 N
ATOM      8  H2  UNL     1      18.073 -12.223  41.560  1.00  0.00     0.166 HD
HETATM    9  C5  UNL     1      16.090 -11.994  41.968  1.00  0.00     0.059 A
HETATM   10  C6  UNL     1      15.501 -13.215  41.885  1.00  0.00     0.032 A
HETATM   11  C7  UNL     1      14.175 -13.076  42.155  1.00  0.00     0.005 A
HETATM   12  C8  UNL     1      13.884 -11.752  42.420  1.00  0.00     0.032 A
HETATM   13  C9  UNL     1      15.041 -11.031  42.318  1.00  0.00     0.059 A
HETATM   14  N3  UNL     1      15.424  -9.768  42.447  1.00  0.00    -0.352 N
ATOM     15  H3  UNL     1      14.725  -9.067  42.689  1.00  0.00     0.166 HD
HETATM   16  C10 UNL     1      16.700  -9.373  42.270  1.00  0.00     0.072 A
HETATM   17  C11 UNL     1      17.040  -8.051  42.417  1.00  0.00     0.005 A
HETATM   18  C12 UNL     1      15.984  -7.196  42.751  1.00  0.00     0.014 A
HETATM   19  C13 UNL     1      16.285  -5.867  42.906  1.00  0.00     0.001 A
HETATM   20  C14 UNL     1      17.538  -5.366  42.751  1.00  0.00     0.001 A
HETATM   21  C15 UNL     1      18.578  -6.259  42.414  1.00  0.00     0.014 A
HETATM   22  C16 UNL     1      18.343  -7.602  42.244  1.00  0.00     0.005 A
HETATM   23  C17 UNL     1      19.380  -8.512  41.905  1.00  0.00     0.064 A
ENDROOT
TORSDOF 0
ENDMDL