MODEL 2
REMARK VINA RESULT: -5.060173813      2.737      6.114
REMARK  11 active torsions:
REMARK  status: ('A' for Active; 'I' for Inactive)
REMARK    1  A    between atoms: C7_7  and  O1_8
REMARK    2  A    between atoms: O1_8  and  C8_9
REMARK    3  A    between atoms: C8_9  and  C9_10
REMARK    4  A    between atoms: C9_10  and  C10_11
REMARK    5  A    between atoms: C9_10  and  C12_24
REMARK    6  A    between atoms: N4_20  and  N5_21
REMARK    7  A    between atoms: C12_24  and  N6_25
REMARK    8  A    between atoms: C12_24  and  C13_29
REMARK    9  A    between atoms: C13_29  and  O2_30
REMARK   10  A    between atoms: C13_29  and  C14_32
REMARK   11  A    between atoms: C16_37  and  N9_38
ROOT
HETATM    1  C9  UNL     1      57.479   8.261  28.972  1.00  0.00     0.115 C
ENDROOT
BRANCH   1   2
HETATM    2  C8  UNL     1      57.404   8.291  27.485  1.00  0.00     0.190 C
BRANCH   2   3
HETATM    3  O1  UNL     1      56.693   7.453  26.788  1.00  0.00    -0.350 OA
BRANCH   3   4
HETATM    4  C7  UNL     1      56.244   6.283  26.478  1.00  0.00     0.074 A
HETATM    5  C2  UNL     1      54.899   5.975  26.817  1.00  0.00    -0.029 A
HETATM    6  C1  UNL     1      54.128   7.033  27.503  1.00  0.00     0.051 C
HETATM    7  C3  UNL     1      54.311   4.777  26.542  1.00  0.00     0.009 A
HETATM    8  C4  UNL     1      55.000   3.770  25.905  1.00  0.00     0.001 A
HETATM    9  C5  UNL     1      56.294   4.026  25.562  1.00  0.00     0.003 A
HETATM   10  C6  UNL     1      56.906   5.231  25.832  1.00  0.00     0.037 A
ENDBRANCH   3   4
ENDBRANCH   2   3
ENDBRANCH   1   2
BRANCH   1  11
HETATM   11  C10 UNL     1      58.835   8.417  29.531  1.00  0.00     0.144 A
HETATM   12  N1  UNL     1      59.317   8.092  30.737  1.00  0.00    -0.272 N
HETATM   13  N2  UNL     1      60.577   8.401  30.818  1.00  0.00    -0.129 N
ATOM     14  H1  UNL     1      58.773   7.662  31.486  1.00  0.00     0.189 HD
HETATM   15  C11 UNL     1      60.954   8.945  29.653  1.00  0.00     0.712 A
ATOM     16  H2  UNL     1      61.177   8.255  31.631  1.00  0.00     0.205 HD
HETATM   17  N3  UNL     1      62.146   9.385  29.338  1.00  0.00    -0.232 N
HETATM   18  N4  UNL     1      59.892   8.960  28.853  1.00  0.00    -0.077 N
ATOM     19  H32 UNL     1      62.960   9.373  29.952  1.00  0.00     0.174 HD
ATOM     20  H31 UNL     1      62.433   9.798  28.452  1.00  0.00     0.174 HD
BRANCH  18  21
HETATM   21  N5  UNL     1      59.900   9.453  27.556  1.00  0.00    -0.323 N
ATOM     22  H52 UNL     1      59.535   8.948  26.750  1.00  0.00     0.178 HD
ATOM     23  H51 UNL     1      60.258  10.353  27.237  1.00  0.00     0.178 HD
ENDBRANCH  18  21
ENDBRANCH   1  11
BRANCH   1  24
HETATM   24  C12 UNL     1      56.588   9.343  29.574  1.00  0.00     0.230 C
BRANCH  24  25
HETATM   25  N6  UNL     1      56.362   9.079  30.945  1.00  0.00    -0.071 N
ATOM     26  H63 UNL     1      56.771   8.191  31.235  1.00  0.00     0.274 HD
ATOM     27  H62 UNL     1      56.904   9.698  31.548  1.00  0.00     0.274 HD
ATOM     28  H61 UNL     1      55.364   9.125  31.150  1.00  0.00     0.274 HD
ENDBRANCH  24  25
BRANCH  24  29
HETATM   29  C13 UNL     1      56.878  10.723  29.202  1.00  0.00     0.191 C
BRANCH  29  30
HETATM   30  O2  UNL     1      57.063  11.552  30.340  1.00  0.00    -0.388 OA
ATOM     31  H2  UNL     1      56.755  12.438  30.189  1.00  0.00     0.210 HD
ENDBRANCH  29  30
BRANCH  29  32
HETATM   32  C14 UNL     1      56.047  11.416  28.206  1.00  0.00     0.082 A
HETATM   33  C15 UNL     1      56.581  12.574  27.586  1.00  0.00     0.146 A
HETATM   34  N7  UNL     1      57.880  13.023  27.916  1.00  0.00    -0.081 NA
HETATM   35  N8  UNL     1      55.912  13.278  26.675  1.00  0.00    -0.178 N
HETATM   36  C16 UNL     1      54.682  12.874  26.333  1.00  0.00     0.680 A
ATOM     37  H8  UNL     1      56.327  14.107  26.249  1.00  0.00     0.185 HD
HETATM   38  N10 UNL     1      54.109  11.790  26.876  1.00  0.00    -0.156 N
HETATM   39  C17 UNL     1      54.791  11.055  27.817  1.00  0.00     0.271 A
ATOM     40  H10 UNL     1      53.170  11.513  26.592  1.00  0.00     0.187 HD
HETATM   41  O3  UNL     1      54.135  10.075  28.233  1.00  0.00    -0.267 OA
BRANCH  36  42
HETATM   42  N9  UNL     1      54.023  13.557  25.446  1.00  0.00    -0.234 N
ATOM     43  H92 UNL     1      53.915  14.563  25.576  1.00  0.00     0.174 HD
ATOM     44  H91 UNL     1      53.631  13.068  24.642  1.00  0.00     0.174 HD
ENDBRANCH  36  42
ENDBRANCH  29  32
ENDBRANCH  24  29
ENDBRANCH   1  24
TORSDOF 11
ENDMDL