MODEL 5
REMARK VINA RESULT: -2.730702105      1.878      7.543
REMARK  11 active torsions:
REMARK  status: ('A' for Active; 'I' for Inactive)
REMARK    1  A    between atoms: N2_3  and  O1_5
REMARK    2  A    between atoms: O1_5  and  C2_6
REMARK    3  A    between atoms: C3_9  and  N4_10
REMARK    4  A    between atoms: C6_18  and  C7_19
REMARK    5  A    between atoms: C7_19  and  C8_20
REMARK    6  A    between atoms: C7_19  and  C14_37
REMARK    7  A    between atoms: C8_20  and  N7_21
REMARK    8  A    between atoms: C11_26  and  N9_27
REMARK    9  A    between atoms: C14_37  and  O3_38
REMARK   10  A    between atoms: C14_37  and  C15_40
REMARK   11  A    between atoms: C15_40  and  O4_41
ROOT
HETATM    1  N1  UNL     1      59.922  13.938  32.200  1.00  0.00    -0.170 NA
HETATM    2  C1  UNL     1      59.049  13.263  31.828  1.00  0.00     0.203 C
HETATM    3  N2  UNL     1      58.022  12.444  31.388  1.00  0.00    -0.194 N
ATOM      4  H2  UNL     1      57.171  12.347  31.942  1.00  0.00     0.207 HD
ENDROOT
BRANCH   3   5
HETATM    5  O1  UNL     1      58.153  11.769  30.212  1.00  0.00    -0.208 OA
BRANCH   5   6
HETATM    6  C2  UNL     1      57.310  12.051  29.159  1.00  0.00     0.196 A
HETATM    7  N3  UNL     1      57.471  13.189  28.418  1.00  0.00    -0.318 N
HETATM    8  C3  UNL     1      56.680  13.509  27.395  1.00  0.00     0.139 A
ATOM      9  H3  UNL     1      58.233  13.822  28.661  1.00  0.00     0.169 HD
HETATM   10  C4  UNL     1      55.651  12.670  27.054  1.00  0.00     0.158 A
HETATM   11  C5  UNL     1      54.746  12.946  25.955  1.00  0.00     0.121 C
HETATM   12  N6  UNL     1      55.489  11.553  27.778  1.00  0.00    -0.344 N
HETATM   13  N5  UNL     1      54.013  13.169  25.094  1.00  0.00    -0.190 NA
HETATM   14  C6  UNL     1      56.290  11.219  28.820  1.00  0.00     0.076 A
ATOM     15  H6  UNL     1      54.726  10.923  27.531  1.00  0.00     0.167 HD
BRANCH   8  16
HETATM   16  N4  UNL     1      56.824  14.580  26.689  1.00  0.00    -0.383 N
ATOM     17  H42 UNL     1      55.993  15.149  26.531  1.00  0.00     0.157 HD
ATOM     18  H41 UNL     1      57.715  14.878  26.290  1.00  0.00     0.157 HD
ENDBRANCH   8  16
BRANCH  14  19
HETATM   19  C7  UNL     1      56.061   9.908  29.571  1.00  0.00     0.111 C
BRANCH  19  20
HETATM   20  C8  UNL     1      54.806   9.345  28.965  1.00  0.00     0.102 C
BRANCH  20  21
HETATM   21  N7  UNL     1      54.867   8.198  28.168  1.00  0.00    -0.279 N
HETATM   22  C9  UNL     1      53.999   7.187  28.047  1.00  0.00     0.148 A
HETATM   23  C10 UNL     1      54.461   6.257  27.143  1.00  0.00     0.100 A
HETATM   24  N8  UNL     1      54.001   5.089  26.662  1.00  0.00    -0.188 N
HETATM   25  C13 UNL     1      55.683   6.760  26.705  1.00  0.00     0.146 A
HETATM   26  C11 UNL     1      54.684   4.370  25.756  1.00  0.00     0.679 A
ATOM     27  H8  UNL     1      53.103   4.736  26.996  1.00  0.00     0.184 HD
HETATM   28  N10 UNL     1      55.863   4.855  25.334  1.00  0.00    -0.154 N
HETATM   29  C12 UNL     1      56.357   6.014  25.789  1.00  0.00     0.290 A
ATOM     30  H10 UNL     1      56.399   4.325  24.647  1.00  0.00     0.187 HD
HETATM   31  O2  UNL     1      57.465   6.450  25.379  1.00  0.00    -0.265 OA
HETATM   32  N11 UNL     1      55.878   7.911  27.342  1.00  0.00    -0.288 N
ATOM     33  H11 UNL     1      56.699   8.503  27.216  1.00  0.00     0.188 HD
BRANCH  26  34
HETATM   34  N9  UNL     1      54.230   3.241  25.297  1.00  0.00    -0.234 N
ATOM     35  H92 UNL     1      54.246   3.041  24.297  1.00  0.00     0.174 HD
ATOM     36  H91 UNL     1      53.848   2.525  25.917  1.00  0.00     0.174 HD
ENDBRANCH  26  34
ENDBRANCH  20  21
ENDBRANCH  19  20
BRANCH  19  37
HETATM   37  C14 UNL     1      57.295   9.114  29.389  1.00  0.00     0.156 C
BRANCH  37  38
HETATM   38  O3  UNL     1      57.909   8.641  30.524  1.00  0.00    -0.392 OA
ATOM     39  H3  UNL     1      58.797   8.938  30.692  1.00  0.00     0.210 HD
ENDBRANCH  37  38
BRANCH  37  40
HETATM   40  C15 UNL     1      58.237   9.526  28.298  1.00  0.00     0.196 C
BRANCH  40  41
HETATM   41  O4  UNL     1      58.692   8.363  27.595  1.00  0.00    -0.398 OA
ATOM     42  H4  UNL     1      59.558   8.526  27.242  1.00  0.00     0.209 HD
ENDBRANCH  40  41
ENDBRANCH  37  40
ENDBRANCH  19  37
ENDBRANCH  14  19
ENDBRANCH   5   6
ENDBRANCH   3   5
TORSDOF 11
ENDMDL