MODEL 4
REMARK VINA RESULT: -4.199226684      1.123      1.254
REMARK  12 active torsions:
REMARK  status: ('A' for Active; 'I' for Inactive)
REMARK       I    between atoms: C1_4  and  N3_6
REMARK    1  A    between atoms: N3_6  and  C2_8
REMARK    2  A    between atoms: C2_8  and  O1_9
REMARK    3  A    between atoms: C2_8  and  C3_11
REMARK    4  A    between atoms: C3_11  and  O2_12
REMARK    5  A    between atoms: O2_12  and  C4_13
REMARK    6  A    between atoms: C5_16  and  N5_17
REMARK    7  A    between atoms: N7_23  and  C7_25
REMARK    8  A    between atoms: C7_25  and  C8_26
REMARK    9  A    between atoms: C8_26  and  O3_27
REMARK   10  A    between atoms: C9_29  and  C10_30
REMARK   11  A    between atoms: C10_30  and  N8_31
REMARK   12  A    between atoms: C13_36  and  N10_37
ROOT
HETATM    1  C4  UNL     1      54.342   9.124  27.679  1.00  0.00     0.173 A
HETATM    2  N4  UNL     1      53.009   8.777  27.824  1.00  0.00    -0.170 N
ATOM      3  H4  UNL     1      52.329   9.487  28.096  1.00  0.00     0.186 HD
HETATM    4  C5  UNL     1      52.605   7.526  27.611  1.00  0.00     0.679 A
HETATM    5  N6  UNL     1      53.474   6.577  27.254  1.00  0.00    -0.176 N
ATOM      6  H6  UNL     1      53.147   5.624  27.096  1.00  0.00     0.186 HD
HETATM    7  C6  UNL     1      54.760   6.866  27.105  1.00  0.00     0.133 A
HETATM    8  N7  UNL     1      55.600   5.947  26.772  1.00  0.00    -0.373 N
ATOM      9  H7  UNL     1      56.579   6.212  26.666  1.00  0.00     0.161 HD
HETATM   10  C9  UNL     1      55.258   8.173  27.313  1.00  0.00     0.076 A
ENDROOT
BRANCH  10  11
HETATM   11  C10 UNL     1      56.674   8.390  27.123  1.00  0.00     0.119 C
BRANCH  11  12
HETATM   12  N8  UNL     1      57.534   8.496  28.257  1.00  0.00    -0.301 N
HETATM   13  C11 UNL     1      57.175   8.369  29.566  1.00  0.00     0.190 A
HETATM   14  N9  UNL     1      58.254   8.490  30.340  1.00  0.00    -0.346 N
HETATM   15  C12 UNL     1      59.316   8.692  29.565  1.00  0.00     0.122 A
ATOM     16  H9  UNL     1      58.264   8.435  31.358  1.00  0.00     0.167 HD
HETATM   17  C13 UNL     1      60.664   8.905  29.785  1.00  0.00     0.131 A
HETATM   18  C15 UNL     1      58.857   8.696  28.251  1.00  0.00     0.144 A
HETATM   19  N11 UNL     1      61.545   9.115  28.808  1.00  0.00    -0.337 N
HETATM   20  C14 UNL     1      61.099   9.119  27.540  1.00  0.00     0.183 A
ATOM     21  H11 UNL     1      62.532   9.268  29.017  1.00  0.00     0.168 HD
HETATM   22  N12 UNL     1      59.800   8.914  27.320  1.00  0.00    -0.336 N
ATOM     23  H12 UNL     1      59.491   8.924  26.349  1.00  0.00     0.168 HD
BRANCH  17  24
HETATM   24  N10 UNL     1      61.084   8.899  31.008  1.00  0.00    -0.383 N
ATOM     25 2H10 UNL     1      60.750   8.168  31.636  1.00  0.00     0.157 HD
ATOM     26 1H10 UNL     1      61.736   9.632  31.290  1.00  0.00     0.157 HD
ENDBRANCH  17  24
ENDBRANCH  11  12
ENDBRANCH  10  11
BRANCH   1  27
HETATM   27  O2  UNL     1      54.732  10.382  27.899  1.00  0.00    -0.330 OA
BRANCH  27  28
HETATM   28  C3  UNL     1      54.766  11.628  27.436  1.00  0.00     0.231 C
BRANCH  28  29
HETATM   29  C2  UNL     1      55.918  12.538  27.686  1.00  0.00     0.244 C
BRANCH  29  30
HETATM   30  N3  UNL     1      57.076  11.846  28.247  1.00  0.00    -0.337 N
HETATM   31  C1  UNL     1      57.742  12.377  29.369  1.00  0.00     0.183 C
HETATM   32  N1  UNL     1      57.755  11.742  30.498  1.00  0.00    -0.374 N
HETATM   33  N2  UNL     1      58.417  13.625  29.283  1.00  0.00    -0.064 NA
ATOM     34  H12 UNL     1      58.238  12.126  31.310  1.00  0.00     0.158 HD
ATOM     35  H11 UNL     1      57.271  10.846  30.560  1.00  0.00     0.158 HD
ATOM     36  H3  UNL     1      57.403  10.977  27.825  1.00  0.00     0.164 HD
ENDBRANCH  29  30
BRANCH  29  37
HETATM   37  O1  UNL     1      56.233  13.434  26.694  1.00  0.00    -0.375 OA
ATOM     38  H1  UNL     1      55.482  13.896  26.340  1.00  0.00     0.212 HD
ENDBRANCH  29  37
ENDBRANCH  28  29
ENDBRANCH  27  28
ENDBRANCH   1  27
BRANCH   8  39
HETATM   39  C7  UNL     1      55.247   4.576  26.540  1.00  0.00     0.147 C
BRANCH  39  40
HETATM   40  C8  UNL     1      55.904   4.082  25.254  1.00  0.00     0.183 C
BRANCH  40  41
HETATM   41  O3  UNL     1      57.278   4.236  25.398  1.00  0.00    -0.399 OA
ATOM     42  H3  UNL     1      57.559   4.904  24.783  1.00  0.00     0.209 HD
ENDBRANCH  40  41
ENDBRANCH  39  40
ENDBRANCH   8  39
BRANCH   4  43
HETATM   43  N5  UNL     1      51.340   7.284  27.768  1.00  0.00    -0.234 N
ATOM     44  H52 UNL     1      50.860   7.442  28.654  1.00  0.00     0.174 HD
ATOM     45  H51 UNL     1      50.835   6.926  26.957  1.00  0.00     0.174 HD
ENDBRANCH   4  43
TORSDOF 12
ENDMDL