MODEL 2
REMARK VINA RESULT: -5.298948801      2.645      3.925
REMARK  13 active torsions:
REMARK  status: ('A' for Active; 'I' for Inactive)
REMARK    1  A    between atoms: C4_10  and  N4_11
REMARK       I    between atoms: N4_11  and  C5_13
REMARK       I    between atoms: C5_13  and  N9_29
REMARK    2  A    between atoms: N5_14  and  C6_16
REMARK    3  A    between atoms: C6_16  and  C7_17
REMARK    4  A    between atoms: C7_17  and  C8_18
REMARK    5  A    between atoms: C8_18  and  N6_19
REMARK    6  A    between atoms: N6_19  and  N7_21
REMARK    7  A    between atoms: C9_23  and  C10_24
REMARK    8  A    between atoms: C10_24  and  N8_25
REMARK    9  A    between atoms: N9_29  and  O1_30
REMARK   10  A    between atoms: N9_29  and  C11_32
REMARK   11  A    between atoms: C11_32  and  O2_33
REMARK   12  A    between atoms: C11_32  and  C12_35
REMARK   13  A    between atoms: C14_39  and  N11_40
ROOT
HETATM    1  N4  UNL     1      57.770   8.571  29.417  1.00  0.00    -0.173 N
ATOM      2  H4  UNL     1      57.260   7.688  29.442  1.00  0.00     0.186 HD
HETATM    3  C5  UNL     1      57.026   9.772  29.261  1.00  0.00     0.704 C
HETATM    4  N5  UNL     1      57.556  10.892  29.543  1.00  0.00    -0.224 N
ATOM      5  H5  UNL     1      58.520  10.872  29.877  1.00  0.00     0.177 HD
HETATM    6  N9  UNL     1      55.683   9.706  28.787  1.00  0.00    -0.055 N
ENDROOT
BRANCH   1   7
HETATM    7  C4  UNL     1      59.044   8.535  29.527  1.00  0.00     0.144 A
HETATM    8  C2  UNL     1      59.797   8.795  28.401  1.00  0.00     0.001 A
HETATM    9  C1  UNL     1      59.190   9.112  27.075  1.00  0.00     0.054 C
HETATM   10  C3  UNL     1      61.174   8.770  28.466  1.00  0.00     0.119 A
HETATM   11  N1  UNL     1      61.764   8.489  29.635  1.00  0.00    -0.297 N
HETATM   12  N2  UNL     1      61.035   8.241  30.709  1.00  0.00    -0.241 N
ATOM     13  H1  UNL     1      62.781   8.466  29.697  1.00  0.00     0.187 HD
HETATM   14  N3  UNL     1      59.714   8.263  30.659  1.00  0.00    -0.270 N
ATOM     15  H2  UNL     1      61.499   8.028  31.592  1.00  0.00     0.208 HD
ATOM     16  H3  UNL     1      59.186   8.068  31.510  1.00  0.00     0.190 HD
ENDBRANCH   1   7
BRANCH   4  17
HETATM   17  C6  UNL     1      56.941  12.172  29.439  1.00  0.00     0.140 C
BRANCH  17  18
HETATM   18  C7  UNL     1      57.233  12.846  28.114  1.00  0.00     0.041 C
BRANCH  18  19
HETATM   19  C8  UNL     1      55.940  13.124  27.384  1.00  0.00     0.141 C
BRANCH  19  20
HETATM   20  N6  UNL     1      56.188  13.257  25.967  1.00  0.00    -0.337 N
ATOM     21  H6  UNL     1      57.148  13.338  25.632  1.00  0.00     0.180 HD
BRANCH  20  22
HETATM   22  N7  UNL     1      55.141  13.277  25.051  1.00  0.00    -0.319 N
HETATM   23  C9  UNL     1      55.364  13.639  23.844  1.00  0.00     0.106 C
ATOM     24  H7  UNL     1      54.202  13.004  25.340  1.00  0.00     0.185 HD
BRANCH  23  25
HETATM   25  C10 UNL     1      56.718  14.030  23.434  1.00  0.00     0.275 C
BRANCH  25  26
HETATM   26  N8  UNL     1      56.778  15.382  22.892  1.00  0.00    -0.075 N
ATOM     27  H83 UNL     1      56.568  15.384  21.894  1.00  0.00     0.274 HD
ATOM     28  H82 UNL     1      55.997  15.945  23.228  1.00  0.00     0.274 HD
ATOM     29  H81 UNL     1      57.668  15.845  23.077  1.00  0.00     0.274 HD
ENDBRANCH  25  26
ENDBRANCH  23  25
ENDBRANCH  20  22
ENDBRANCH  19  20
ENDBRANCH  18  19
ENDBRANCH  17  18
ENDBRANCH   4  17
BRANCH   6  30
HETATM   30  O1  UNL     1      54.687  10.050  29.656  1.00  0.00    -0.271 OA
ATOM     31  H1  UNL     1      53.914   9.498  29.681  1.00  0.00     0.245 HD
ENDBRANCH   6  30
BRANCH   6  32
HETATM   32  C11 UNL     1      55.397   9.322  27.420  1.00  0.00     0.304 C
BRANCH  32  33
HETATM   33  O2  UNL     1      54.365  10.139  26.971  1.00  0.00    -0.369 OA
ATOM     34  H2  UNL     1      53.963   9.702  26.230  1.00  0.00     0.212 HD
ENDBRANCH  32  33
BRANCH  32  35
HETATM   35  C12 UNL     1      55.151   7.904  27.198  1.00  0.00     0.053 A
HETATM   36  C13 UNL     1      56.151   7.155  26.588  1.00  0.00     0.121 A
HETATM   37  N10 UNL     1      56.037   5.868  26.267  1.00  0.00    -0.201 N
HETATM   38  C14 UNL     1      54.871   5.263  26.557  1.00  0.00     0.677 A
ATOM     39  H10 UNL     1      56.801   5.362  25.819  1.00  0.00     0.183 HD
HETATM   40  N12 UNL     1      53.891   5.946  27.142  1.00  0.00    -0.177 N
HETATM   41  C15 UNL     1      53.973   7.269  27.488  1.00  0.00     0.126 A
ATOM     42  H12 UNL     1      53.022   5.452  27.345  1.00  0.00     0.186 HD
HETATM   43  N13 UNL     1      52.994   7.819  28.106  1.00  0.00    -0.384 N
ATOM     44 2H13 UNL     1      53.055   8.804  28.364  1.00  0.00     0.157 HD
ATOM     45 1H13 UNL     1      52.118   7.345  28.321  1.00  0.00     0.157 HD
BRANCH  38  46
HETATM   46  N11 UNL     1      54.732   3.992  26.249  1.00  0.00    -0.234 N
ATOM     47 2H11 UNL     1      55.218   3.582  25.451  1.00  0.00     0.174 HD
ATOM     48 1H11 UNL     1      54.122   3.416  26.830  1.00  0.00     0.174 HD
ENDBRANCH  38  46
ENDBRANCH  32  35
ENDBRANCH   6  32
TORSDOF 13
ENDMDL