MODEL 2
REMARK VINA RESULT: -5.165184596      0.050      1.469
REMARK  11 active torsions:
REMARK  status: ('A' for Active; 'I' for Inactive)
REMARK    1  A    between atoms: N1_1  and  C1_4
REMARK    2  A    between atoms: C2_7  and  C3_8
REMARK    3  A    between atoms: C3_8  and  C4_9
REMARK    4  A    between atoms: C3_8  and  N7_20
REMARK    5  A    between atoms: C4_9  and  N3_10
REMARK    6  A    between atoms: N7_20  and  C9_23
REMARK    7  A    between atoms: C9_23  and  C10_24
REMARK    8  A    between atoms: C10_24  and  C11_25
REMARK    9  A    between atoms: C14_28  and  O1_29
REMARK   10  A    between atoms: C15_31  and  O2_32
REMARK   11  A    between atoms: C17_37  and  N9_38
ROOT
HETATM    1  C3  UNL     1      57.647  10.892  28.454  1.00  0.00     0.268 C
ENDROOT
BRANCH   1   2
HETATM    2  C2  UNL     1      58.831  10.023  28.642  1.00  0.00     0.145 A
HETATM    3  N2  UNL     1      59.136   9.444  29.809  1.00  0.00    -0.178 N
HETATM    4  C1  UNL     1      60.230   8.661  29.919  1.00  0.00     0.691 A
ATOM      5  H2  UNL     1      58.538   9.597  30.621  1.00  0.00     0.185 HD
HETATM    6  N10 UNL     1      61.056   8.424  28.883  1.00  0.00    -0.023 N
HETATM    7  C17 UNL     1      60.741   9.010  27.714  1.00  0.00     0.691 A
ATOM      8  H10 UNL     1      61.879   7.830  28.980  1.00  0.00     0.203 HD
HETATM    9  N8  UNL     1      59.646   9.795  27.598  1.00  0.00    -0.178 N
ATOM     10  H8  UNL     1      59.434  10.225  26.698  1.00  0.00     0.185 HD
BRANCH   4  11
HETATM   11  N1  UNL     1      60.472   8.133  31.064  1.00  0.00    -0.234 N
ATOM     12  H12 UNL     1      60.107   7.207  31.284  1.00  0.00     0.174 HD
ATOM     13  H11 UNL     1      61.034   8.671  31.724  1.00  0.00     0.174 HD
ENDBRANCH   4  11
BRANCH   7  14
HETATM   14  N9  UNL     1      61.484   8.830  26.675  1.00  0.00    -0.234 N
ATOM     15  H92 UNL     1      61.562   7.906  26.250  1.00  0.00     0.174 HD
ATOM     16  H91 UNL     1      61.987   9.629  26.291  1.00  0.00     0.174 HD
ENDBRANCH   7  14
ENDBRANCH   1   2
BRANCH   1  17
HETATM   17  C4  UNL     1      56.453  10.216  29.097  1.00  0.00     0.148 C
BRANCH  17  18
HETATM   18  N3  UNL     1      55.547   9.895  28.013  1.00  0.00    -0.216 NA
HETATM   19  C5  UNL     1      54.122  10.084  28.439  1.00  0.00     0.227 A
HETATM   20  N4  UNL     1      53.289   9.010  28.176  1.00  0.00    -0.368 N
HETATM   21  C6  UNL     1      53.210   7.838  27.717  1.00  0.00     0.108 A
ATOM     22  H4  UNL     1      52.352   9.276  28.478  1.00  0.00     0.161 HD
HETATM   23  N5  UNL     1      51.877   7.291  27.771  1.00  0.00    -0.086 NA
HETATM   24  C7  UNL     1      54.158   6.932  27.155  1.00  0.00     0.202 A
HETATM   25  N6  UNL     1      55.556   7.418  26.993  1.00  0.00    -0.341 N
HETATM   26  C8  UNL     1      55.569   8.649  27.510  1.00  0.00     0.020 A
ATOM     27  H6  UNL     1      56.339   6.915  26.575  1.00  0.00     0.170 HD
ENDBRANCH  17  18
ENDBRANCH   1  17
BRANCH   1  28
HETATM   28  N7  UNL     1      57.931  12.163  29.051  1.00  0.00    -0.063 N
ATOM     29  H72 UNL     1      58.921  12.399  28.982  1.00  0.00     0.278 HD
ATOM     30  H71 UNL     1      57.550  12.931  28.499  1.00  0.00     0.278 HD
BRANCH  28  31
HETATM   31  C9  UNL     1      57.465  12.208  30.420  1.00  0.00     0.238 C
BRANCH  31  32
HETATM   32  C10 UNL     1      58.632  12.365  31.374  1.00  0.00     0.066 C
BRANCH  32  33
HETATM   33  C11 UNL     1      58.777  13.777  31.784  1.00  0.00    -0.054 A
HETATM   34  C12 UNL     1      59.999  14.390  31.677  1.00  0.00     0.010 A
HETATM   35  C13 UNL     1      60.185  15.698  32.044  1.00  0.00     0.040 A
HETATM   36  C14 UNL     1      59.149  16.439  32.532  1.00  0.00     0.098 A
HETATM   37  C15 UNL     1      57.904  15.827  32.646  1.00  0.00     0.099 A
HETATM   38  C16 UNL     1      57.727  14.516  32.275  1.00  0.00     0.046 A
BRANCH  36  39
HETATM   39  O1  UNL     1      59.323  17.763  32.908  1.00  0.00    -0.358 OA
ATOM     40  H1  UNL     1      58.584  18.310  33.148  1.00  0.00     0.217 HD
ENDBRANCH  36  39
BRANCH  37  41
HETATM   41  O2  UNL     1      56.865  16.598  33.144  1.00  0.00    -0.358 OA
ATOM     42  H2  UNL     1      56.217  16.906  32.521  1.00  0.00     0.217 HD
ENDBRANCH  37  41
ENDBRANCH  32  33
ENDBRANCH  31  32
ENDBRANCH  28  31
ENDBRANCH   1  28
TORSDOF 11
ENDMDL