MODEL 4
REMARK VINA RESULT: -0.836466832      2.987      7.812
REMARK  16 active torsions:
REMARK  status: ('A' for Active; 'I' for Inactive)
REMARK    1  A    between atoms: N1_1  and  C1_4
REMARK    2  A    between atoms: C2_7  and  C3_8
REMARK    3  A    between atoms: C3_8  and  C4_9
REMARK    4  A    between atoms: C4_9  and  C5_10
REMARK    5  A    between atoms: C5_10  and  C6_11
REMARK    6  A    between atoms: C6_11  and  N3_12
REMARK    7  A    between atoms: C8_19  and  N5_20
REMARK    8  A    between atoms: C9_22  and  C10_23
REMARK    9  A    between atoms: C10_23  and  C11_24
REMARK   10  A    between atoms: C11_24  and  S1_25
REMARK   11  A    between atoms: S1_25  and  C12_26
REMARK   12  A    between atoms: C12_26  and  N6_27
REMARK   13  A    between atoms: C12_26  and  O1_31
REMARK   14  A    between atoms: C13_35  and  C14_36
REMARK   15  A    between atoms: C14_36  and  O2_37
REMARK   16  A    between atoms: C14_36  and  O3_39
ROOT
HETATM    1  C1  UNL     1      59.369   8.476  29.596  1.00  0.00     0.115 A
HETATM    2  N2  UNL     1      58.783   7.636  28.737  1.00  0.00    -0.321 N
ATOM      3  H2  UNL     1      59.132   6.679  28.692  1.00  0.00     0.169 HD
HETATM    4  C2  UNL     1      57.762   7.970  27.931  1.00  0.00     0.163 A
HETATM    5  N4  UNL     1      57.290   9.224  27.977  1.00  0.00    -0.331 N
ATOM      6  H4  UNL     1      56.516   9.500  27.373  1.00  0.00     0.168 HD
HETATM    7  C7  UNL     1      57.836  10.115  28.818  1.00  0.00     0.095 A
HETATM    8  C8  UNL     1      57.370  11.428  28.891  1.00  0.00     0.133 A
HETATM    9  N7  UNL     1      57.985  12.287  29.782  1.00  0.00    -0.338 N
ATOM     10  H7  UNL     1      57.643  13.246  29.837  1.00  0.00     0.167 HD
HETATM   11  C13 UNL     1      58.991  11.937  30.570  1.00  0.00     0.091 A
HETATM   12  C15 UNL     1      59.487  10.652  30.535  1.00  0.00     0.090 A
HETATM   13  N8  UNL     1      60.560  10.257  31.375  1.00  0.00    -0.099 NA
HETATM   14  C16 UNL     1      58.892   9.774  29.654  1.00  0.00     0.064 A
ENDROOT
BRANCH   8  15
HETATM   15  N5  UNL     1      56.455  11.873  28.224  1.00  0.00    -0.354 N
HETATM   16  C9  UNL     1      55.909  12.768  27.371  1.00  0.00     0.063 C
ATOM     17  H5  UNL     1      55.690  11.222  28.405  1.00  0.00     0.166 HD
BRANCH  16  18
HETATM   18  C10 UNL     1      54.448  12.539  26.993  1.00  0.00     0.055 C
BRANCH  18  19
HETATM   19  C11 UNL     1      54.283  11.039  26.875  1.00  0.00     0.083 C
BRANCH  19  20
HETATM   20  S1  UNL     1      53.884  10.230  28.421  1.00  0.00    -0.110 SA
BRANCH  20  21
HETATM   21  C12 UNL     1      54.098   8.445  28.293  1.00  0.00     0.380 C
BRANCH  21  22
HETATM   22  N6  UNL     1      53.612   7.911  27.041  1.00  0.00    -0.044 N
ATOM     23  H63 UNL     1      53.242   8.653  26.446  1.00  0.00     0.278 HD
ATOM     24  H62 UNL     1      54.384   7.597  26.453  1.00  0.00     0.278 HD
ATOM     25  H61 UNL     1      52.925   7.168  27.168  1.00  0.00     0.278 HD
ENDBRANCH  21  22
BRANCH  21  26
HETATM   26  O1  UNL     1      53.433   7.778  29.327  1.00  0.00    -0.362 OA
ATOM     27  H1  UNL     1      53.511   8.249  30.148  1.00  0.00     0.213 HD
ENDBRANCH  21  26
ENDBRANCH  20  21
ENDBRANCH  19  20
ENDBRANCH  18  19
ENDBRANCH  16  18
ENDBRANCH   8  15
BRANCH  11  28
HETATM   28  C14 UNL     1      59.637  12.900  31.523  1.00  0.00     0.307 C
BRANCH  28  29
HETATM   29  O2  UNL     1      59.347  14.198  31.039  1.00  0.00    -0.366 OA
ATOM     30  H2  UNL     1      60.152  14.530  30.660  1.00  0.00     0.213 HD
ENDBRANCH  28  29
BRANCH  28  31
HETATM   31  O3  UNL     1      59.072  12.842  32.790  1.00  0.00    -0.366 OA
ATOM     32  H3  UNL     1      58.175  12.532  32.770  1.00  0.00     0.213 HD
ENDBRANCH  28  31
ENDBRANCH  11  28
BRANCH   4  33
HETATM   33  C3  UNL     1      57.174   6.999  27.018  1.00  0.00    -0.030 C
BRANCH  33  34
HETATM   34  C4  UNL     1      56.690   6.179  26.277  1.00  0.00    -0.097 C
BRANCH  34  35
HETATM   35  C5  UNL     1      56.103   5.203  25.358  1.00  0.00     0.121 C
BRANCH  35  36
HETATM   36  C6  UNL     1      55.537   4.048  26.185  1.00  0.00     0.241 C
BRANCH  36  37
HETATM   37  N3  UNL     1      54.317   4.477  26.844  1.00  0.00    -0.079 N
ATOM     38  H33 UNL     1      53.866   5.251  26.355  1.00  0.00     0.274 HD
ATOM     39  H32 UNL     1      53.567   3.791  26.752  1.00  0.00     0.274 HD
ATOM     40  H31 UNL     1      54.517   4.701  27.819  1.00  0.00     0.274 HD
ENDBRANCH  36  37
ENDBRANCH  35  36
ENDBRANCH  34  35
ENDBRANCH  33  34
ENDBRANCH   4  33
BRANCH   1  41
HETATM   41  N1  UNL     1      60.345   8.143  30.359  1.00  0.00    -0.385 N
ATOM     42  H12 UNL     1      60.830   7.264  30.179  1.00  0.00     0.157 HD
ATOM     43  H11 UNL     1      60.666   8.710  31.143  1.00  0.00     0.157 HD
ENDBRANCH   1  41
TORSDOF 16
ENDMDL