MODEL 5
REMARK VINA RESULT: -3.496858723      1.069      2.093
REMARK  13 active torsions:
REMARK  status: ('A' for Active; 'I' for Inactive)
REMARK    1  A    between atoms: C3_5  and  N2_6
REMARK    2  A    between atoms: N2_6  and  C4_8
REMARK    3  A    between atoms: C4_8  and  C5_9
REMARK    4  A    between atoms: C5_9  and  C6_10
REMARK    5  A    between atoms: C6_10  and  C7_11
REMARK    6  A    between atoms: C7_11  and  O1_12
REMARK    7  A    between atoms: C8_16  and  N4_17
REMARK    8  A    between atoms: C9_20  and  N5_21
REMARK    9  A    between atoms: N5_21  and  C10_23
REMARK   10  A    between atoms: C11_26  and  S1_27
REMARK   11  A    between atoms: S1_27  and  C12_28
REMARK   12  A    between atoms: C13_33  and  N9_34
REMARK   13  A    between atoms: N10_37  and  N11_38
ROOT
HETATM    1  C10 UNL     1      56.559  11.083  29.536  1.00  0.00     0.701 A
HETATM    2  N6  UNL     1      57.366  11.146  30.624  1.00  0.00    -0.167 N
ATOM      3  H6  UNL     1      57.370  10.479  31.396  1.00  0.00     0.186 HD
HETATM    4  C11 UNL     1      58.156  12.223  30.525  1.00  0.00     0.182 A
HETATM    5  N12 UNL     1      57.842  12.832  29.375  1.00  0.00    -0.263 N
ATOM      6  H12 UNL     1      58.274  13.685  29.019  1.00  0.00     0.190 HD
HETATM    7  N13 UNL     1      56.868  12.139  28.768  1.00  0.00    -0.126 N
HETATM    8  C14 UNL     1      56.265  12.493  27.496  1.00  0.00     0.197 C
ENDROOT
BRANCH   1   9
HETATM    9  N5  UNL     1      55.684  10.212  29.271  1.00  0.00    -0.184 N
ATOM     10  H5  UNL     1      54.817  10.281  29.803  1.00  0.00     0.184 HD
BRANCH   9  11
HETATM   11  C9  UNL     1      55.746   9.168  28.349  1.00  0.00     0.116 A
HETATM   12  C2  UNL     1      54.696   8.745  27.557  1.00  0.00     0.053 A
HETATM   13  C1  UNL     1      53.378   9.438  27.684  1.00  0.00     0.071 C
HETATM   14  N1  UNL     1      54.883   7.719  26.692  1.00  0.00    -0.194 N
HETATM   15  C3  UNL     1      56.040   7.073  26.550  1.00  0.00     0.679 A
ATOM     16  H1  UNL     1      54.094   7.424  26.118  1.00  0.00     0.184 HD
HETATM   17  N3  UNL     1      57.078   7.490  27.331  1.00  0.00    -0.175 N
HETATM   18  C8  UNL     1      56.936   8.489  28.188  1.00  0.00     0.144 A
ATOM     19  H3  UNL     1      57.981   7.023  27.254  1.00  0.00     0.186 HD
BRANCH  15  20
HETATM   20  N2  UNL     1      56.239   6.098  25.729  1.00  0.00    -0.226 N
ATOM     21  H2  UNL     1      56.349   6.284  24.732  1.00  0.00     0.177 HD
BRANCH  20  22
HETATM   22  C4  UNL     1      56.305   4.763  26.213  1.00  0.00     0.138 C
BRANCH  22  23
HETATM   23  C5  UNL     1      55.018   4.029  26.322  1.00  0.00     0.022 C
BRANCH  23  24
HETATM   24  C6  UNL     1      54.446   3.456  25.086  1.00  0.00     0.028 C
BRANCH  24  25
HETATM   25  C7  UNL     1      55.368   3.148  23.967  1.00  0.00     0.164 C
BRANCH  25  26
HETATM   26  O1  UNL     1      54.690   3.515  22.771  1.00  0.00    -0.401 OA
ATOM     27  H1  UNL     1      55.123   3.055  22.062  1.00  0.00     0.209 HD
ENDBRANCH  25  26
ENDBRANCH  24  25
ENDBRANCH  23  24
ENDBRANCH  22  23
ENDBRANCH  20  22
ENDBRANCH  15  20
BRANCH  18  28
HETATM   28  N4  UNL     1      57.977   8.821  28.898  1.00  0.00    -0.383 N
ATOM     29  H42 UNL     1      58.911   8.544  28.595  1.00  0.00     0.157 HD
ATOM     30  H41 UNL     1      57.811   9.359  29.748  1.00  0.00     0.157 HD
ENDBRANCH  18  28
ENDBRANCH   9  11
ENDBRANCH   1   9
BRANCH   4  31
HETATM   31  S1  UNL     1      59.383  12.750  31.679  1.00  0.00    -0.012 SA
BRANCH  31  32
HETATM   32  C12 UNL     1      59.366  14.531  31.879  1.00  0.00     0.206 A
HETATM   33  N7  UNL     1      60.389  15.356  31.576  1.00  0.00    -0.263 N
HETATM   34  N8  UNL     1      60.076  16.614  31.833  1.00  0.00    -0.129 N
ATOM     35  H7  UNL     1      61.285  15.050  31.198  1.00  0.00     0.189 HD
HETATM   36  C13 UNL     1      58.823  16.600  32.313  1.00  0.00     0.713 A
ATOM     37  H8  UNL     1      60.669  17.432  31.695  1.00  0.00     0.205 HD
HETATM   38  N10 UNL     1      58.371  15.313  32.347  1.00  0.00    -0.067 N
BRANCH  36  39
HETATM   39  N9  UNL     1      58.116  17.623  32.695  1.00  0.00    -0.231 N
ATOM     40  H92 UNL     1      58.518  18.527  32.944  1.00  0.00     0.174 HD
ATOM     41  H91 UNL     1      57.102  17.668  32.797  1.00  0.00     0.174 HD
ENDBRANCH  36  39
BRANCH  38  42
HETATM   42  N11 UNL     1      57.127  14.866  32.777  1.00  0.00    -0.322 N
ATOM     43 2H11 UNL     1      56.871  13.919  33.055  1.00  0.00     0.178 HD
ATOM     44 1H11 UNL     1      56.290  15.442  32.871  1.00  0.00     0.178 HD
ENDBRANCH  38  42
ENDBRANCH  31  32
ENDBRANCH   4  31
TORSDOF 13
ENDMDL