MODEL 4
REMARK VINA RESULT: -2.938811489      1.596      1.625
REMARK  12 active torsions:
REMARK  status: ('A' for Active; 'I' for Inactive)
REMARK    1  A    between atoms: C2_3  and  C3_4
REMARK    2  A    between atoms: C3_4  and  C4_5
REMARK    3  A    between atoms: C3_4  and  N10_34
REMARK    4  A    between atoms: C4_5  and  N2_6
REMARK    5  A    between atoms: N3_8  and  C5_10
REMARK    6  A    between atoms: C9_18  and  N6_19
REMARK    7  A    between atoms: N10_34  and  C14_37
REMARK    8  A    between atoms: C14_37  and  O2_38
REMARK    9  A    between atoms: C14_37  and  C15_40
REMARK   10  A    between atoms: C15_40  and  O3_41
REMARK   11  A    between atoms: C15_40  and  C16_43
REMARK   12  A    between atoms: C16_43  and  O4_44
ROOT
HETATM    1  N1  UNL     1      62.000  14.335  32.764  1.00  0.00    -0.197 NA
HETATM    2  C1  UNL     1      61.006  14.397  32.170  1.00  0.00     0.061 C
HETATM    3  C2  UNL     1      59.757  14.457  31.398  1.00  0.00     0.158 C
ENDROOT
BRANCH   3   4
HETATM    4  C3  UNL     1      58.552  14.112  32.199  1.00  0.00     0.221 C
BRANCH   4   5
HETATM    5  C4  UNL     1      58.211  12.637  32.176  1.00  0.00     0.173 C
BRANCH   5   6
HETATM    6  N2  UNL     1      58.292  12.028  30.889  1.00  0.00    -0.334 N
HETATM    7  N3  UNL     1      57.936  10.803  30.797  1.00  0.00    -0.303 N
ATOM      8  H3  UNL     1      57.618  10.345  31.652  1.00  0.00     0.186 HD
ATOM      9  H2  UNL     1      58.621  12.548  30.076  1.00  0.00     0.180 HD
BRANCH   7  10
HETATM   10  C5  UNL     1      57.945  10.035  29.631  1.00  0.00     0.075 A
HETATM   11  C6  UNL     1      59.175   9.812  28.977  1.00  0.00     0.021 A
HETATM   12  C7  UNL     1      59.231   9.068  27.832  1.00  0.00     0.112 A
HETATM   13  C13 UNL     1      60.533  10.267  29.307  1.00  0.00     0.166 A
HETATM   14  N4  UNL     1      58.079   8.536  27.320  1.00  0.00    -0.336 N
HETATM   15  C12 UNL     1      60.614   8.993  27.376  1.00  0.00     0.269 A
HETATM   16  C8  UNL     1      56.889   8.721  27.904  1.00  0.00     0.138 A
ATOM     17  H4  UNL     1      58.129   7.982  26.465  1.00  0.00     0.168 HD
HETATM   18  N5  UNL     1      55.743   8.212  27.423  1.00  0.00    -0.176 N
HETATM   19  C11 UNL     1      56.830   9.480  29.072  1.00  0.00     0.081 A
HETATM   20  C9  UNL     1      54.539   8.388  27.998  1.00  0.00     0.679 A
ATOM     21  H5  UNL     1      55.788   7.656  26.569  1.00  0.00     0.186 HD
HETATM   22  N7  UNL     1      54.481   9.121  29.127  1.00  0.00    -0.176 N
HETATM   23  C10 UNL     1      55.605   9.669  29.673  1.00  0.00     0.131 A
ATOM     24  H7  UNL     1      53.580   9.269  29.582  1.00  0.00     0.186 HD
HETATM   25  N8  UNL     1      55.538  10.368  30.753  1.00  0.00    -0.384 N
ATOM     26  H82 UNL     1      54.631  10.509  31.198  1.00  0.00     0.157 HD
ATOM     27  H81 UNL     1      56.378  10.778  31.161  1.00  0.00     0.157 HD
HETATM   28  O1  UNL     1      61.016   8.377  26.338  1.00  0.00    -0.266 OA
HETATM   29  N9  UNL     1      61.389   9.728  28.299  1.00  0.00    -0.351 N
ATOM     30  H9  UNL     1      62.400   9.853  28.254  1.00  0.00     0.163 HD
BRANCH  20  31
HETATM   31  N6  UNL     1      53.451   7.867  27.481  1.00  0.00    -0.234 N
ATOM     32  H62 UNL     1      53.274   7.921  26.478  1.00  0.00     0.174 HD
ATOM     33  H61 UNL     1      52.757   7.397  28.063  1.00  0.00     0.174 HD
ENDBRANCH  20  31
ENDBRANCH   7  10
ENDBRANCH   5   6
ENDBRANCH   4   5
BRANCH   4  34
HETATM   34  N10 UNL     1      57.424  14.941  31.938  1.00  0.00    -0.040 N
ATOM     35 2H10 UNL     1      57.401  15.225  30.959  1.00  0.00     0.280 HD
ATOM     36 1H10 UNL     1      56.560  14.401  31.976  1.00  0.00     0.280 HD
BRANCH  34  37
HETATM   37  C14 UNL     1      57.351  16.088  32.808  1.00  0.00     0.350 C
BRANCH  37  38
HETATM   38  O2  UNL     1      58.601  16.369  33.393  1.00  0.00    -0.368 OA
ATOM     39  H2  UNL     1      58.588  17.199  33.856  1.00  0.00     0.212 HD
ENDBRANCH  37  38
BRANCH  37  40
HETATM   40  C15 UNL     1      56.358  15.809  33.940  1.00  0.00     0.198 C
BRANCH  40  41
HETATM   41  O3  UNL     1      56.664  16.534  35.090  1.00  0.00    -0.389 OA
ATOM     42  H3  UNL     1      57.169  16.021  35.709  1.00  0.00     0.210 HD
ENDBRANCH  40  41
BRANCH  40  43
HETATM   43  C16 UNL     1      54.988  16.266  33.492  1.00  0.00     0.200 C
BRANCH  43  44
HETATM   44  O4  UNL     1      53.964  15.420  33.869  1.00  0.00    -0.398 OA
ATOM     45  H4  UNL     1      53.096  15.751  33.668  1.00  0.00     0.209 HD
ENDBRANCH  43  44
ENDBRANCH  40  43
ENDBRANCH  37  40
ENDBRANCH  34  37
ENDBRANCH   4  34
ENDBRANCH   3   4
TORSDOF 12
ENDMDL