MODEL 5
REMARK VINA RESULT: -0.856109366      3.340      6.437
REMARK  9 active torsions:
REMARK  status: ('A' for Active; 'I' for Inactive)
REMARK    1  A    between atoms: N1_2  and  C2_3
REMARK    2  A    between atoms: N1_2  and  C8_30
REMARK    3  A    between atoms: C2_3  and  C3_4
REMARK    4  A    between atoms: C3_4  and  N2_5
REMARK    5  A    between atoms: N2_5  and  C4_7
REMARK    6  A    between atoms: C7_23  and  N9_24
REMARK    7  A    between atoms: C8_30  and  C9_31
REMARK    8  A    between atoms: C9_31  and  N11_32
REMARK    9  A    between atoms: C12_39  and  N14_40
ROOT
HETATM    1  N2  UNL     1      59.212  11.299  30.619  1.00  0.00    -0.359 N
ATOM      2  H2  UNL     1      58.537  10.979  29.925  1.00  0.00     0.162 HD
ENDROOT
BRANCH   1   3
HETATM    3  C3  UNL     1      60.357  10.469  30.907  1.00  0.00     0.153 C
BRANCH   3   4
HETATM    4  C2  UNL     1      60.207   9.088  30.302  1.00  0.00     0.291 C
BRANCH   4   5
HETATM    5  N1  UNL     1      59.405   9.134  29.087  1.00  0.00     0.087 N
HETATM    6  C1  UNL     1      60.161   8.724  27.953  1.00  0.00     0.310 C
BRANCH   5   7
HETATM    7  C8  UNL     1      58.138   8.566  29.284  1.00  0.00     0.292 C
BRANCH   7   8
HETATM    8  C9  UNL     1      57.057   9.305  29.967  1.00  0.00     0.160 C
BRANCH   8   9
HETATM    9  N11 UNL     1      55.914   9.647  29.140  1.00  0.00    -0.334 N
HETATM   10  C10 UNL     1      54.737   8.952  29.118  1.00  0.00     0.185 A
HETATM   11  N12 UNL     1      53.862   9.568  28.322  1.00  0.00    -0.336 N
HETATM   12  C11 UNL     1      54.439  10.675  27.805  1.00  0.00     0.154 A
ATOM     13  H12 UNL     1      52.910   9.254  28.134  1.00  0.00     0.168 HD
HETATM   14  N13 UNL     1      54.010  11.616  26.952  1.00  0.00    -0.174 N
HETATM   15  C14 UNL     1      55.724  10.700  28.333  1.00  0.00     0.149 A
HETATM   16  C12 UNL     1      54.833  12.633  26.575  1.00  0.00     0.680 A
ATOM     17  H13 UNL     1      53.060  11.571  26.584  1.00  0.00     0.186 HD
HETATM   18  N15 UNL     1      56.087  12.707  27.050  1.00  0.00    -0.154 N
HETATM   19  C13 UNL     1      56.517  11.755  27.911  1.00  0.00     0.290 A
ATOM     20  H15 UNL     1      56.705  13.467  26.767  1.00  0.00     0.187 HD
HETATM   21  O1  UNL     1      57.679  11.822  28.341  1.00  0.00    -0.265 OA
BRANCH  16  22
HETATM   22  N14 UNL     1      54.413  13.535  25.756  1.00  0.00    -0.234 N
ATOM     23 2H14 UNL     1      54.795  13.570  24.811  1.00  0.00     0.174 HD
ATOM     24 1H14 UNL     1      53.703  14.206  26.052  1.00  0.00     0.174 HD
ENDBRANCH  16  22
ENDBRANCH   8   9
ENDBRANCH   7   8
ENDBRANCH   5   7
ENDBRANCH   4   5
ENDBRANCH   3   4
ENDBRANCH   1   3
BRANCH   1  25
HETATM   25  C4  UNL     1      58.989  12.548  31.265  1.00  0.00     0.195 C
HETATM   26  N3  UNL     1      58.148  12.857  32.190  1.00  0.00    -0.249 N
HETATM   27  N4  UNL     1      58.264  14.207  32.542  1.00  0.00    -0.043 N
ATOM     28  H3  UNL     1      57.486  12.205  32.611  1.00  0.00     0.191 HD
HETATM   29  C5  UNL     1      57.446  15.174  33.158  1.00  0.00     0.712 C
HETATM   30  C7  UNL     1      59.591  14.603  32.128  1.00  0.00     0.406 C
HETATM   31  N5  UNL     1      56.390  14.824  33.785  1.00  0.00    -0.232 N
HETATM   32  N6  UNL     1      57.774  16.578  33.100  1.00  0.00    -0.021 N
ATOM     33  H52 UNL     1      56.158  13.832  33.826  1.00  0.00     0.174 HD
ATOM     34  H51 UNL     1      55.797  15.524  34.231  1.00  0.00     0.174 HD
HETATM   35  C6  UNL     1      58.942  16.967  32.407  1.00  0.00     0.691 C
ATOM     36  H6  UNL     1      57.178  17.273  33.550  1.00  0.00     0.203 HD
HETATM   37  N7  UNL     1      59.266  18.223  32.336  1.00  0.00    -0.234 N
HETATM   38  N8  UNL     1      59.746  15.976  31.796  1.00  0.00    -0.153 N
ATOM     39  H72 UNL     1      58.686  18.938  32.778  1.00  0.00     0.174 HD
ATOM     40  H71 UNL     1      60.108  18.504  31.836  1.00  0.00     0.174 HD
ATOM     41  H8  UNL     1      60.445  16.251  31.107  1.00  0.00     0.184 HD
HETATM   42  N10 UNL     1      59.735  13.734  30.946  1.00  0.00    -0.291 N
ATOM     43  H10 UNL     1      60.251  13.932  30.088  1.00  0.00     0.168 HD
BRANCH  30  44
HETATM   44  N9  UNL     1      60.595  14.182  33.095  1.00  0.00    -0.011 N
ATOM     45  H93 UNL     1      61.376  13.708  32.642  1.00  0.00     0.282 HD
ATOM     46  H92 UNL     1      61.099  14.979  33.484  1.00  0.00     0.282 HD
ATOM     47  H91 UNL     1      60.184  13.605  33.830  1.00  0.00     0.282 HD
ENDBRANCH  30  44
ENDBRANCH   1  25
TORSDOF 9
ENDMDL