MODEL 5
REMARK VINA RESULT: -2.787946097      1.161      1.357
REMARK  12 active torsions:
REMARK  status: ('A' for Active; 'I' for Inactive)
REMARK    1  A    between atoms: C2_3  and  C3_4
REMARK       I    between atoms: C3_4  and  N2_6
REMARK    2  A    between atoms: N2_6  and  C4_8
REMARK    3  A    between atoms: C4_8  and  C5_9
REMARK    4  A    between atoms: C5_9  and  C6_10
REMARK    5  A    between atoms: C5_9  and  S1_15
REMARK    6  A    between atoms: C6_10  and  N3_11
REMARK    7  A    between atoms: N3_11  and  N4_12
REMARK    8  A    between atoms: S1_15  and  C7_16
REMARK    9  A    between atoms: C9_18  and  N5_19
REMARK   10  A    between atoms: C10_24  and  N7_25
REMARK   11  A    between atoms: C12_33  and  C13_34
REMARK   12  A    between atoms: C14_40  and  N12_41
ROOT
HETATM    1  C4  UNL     1      56.052  10.966  29.479  1.00  0.00     0.139 C
ENDROOT
BRANCH   1   2
HETATM    2  N2  UNL     1      56.089   9.637  28.881  1.00  0.00    -0.354 N
HETATM    3  C3  UNL     1      55.035   9.181  28.097  1.00  0.00     0.269 C
HETATM    4  O1  UNL     1      54.037   9.985  27.947  1.00  0.00    -0.266 OA
ATOM      5  H2  UNL     1      56.897   9.034  29.041  1.00  0.00     0.162 HD
BRANCH   3   6
HETATM    6  C2  UNL     1      54.944   7.903  27.442  1.00  0.00     0.119 A
HETATM    7  N1  UNL     1      55.916   7.201  26.789  1.00  0.00    -0.330 N
HETATM    8  C1  UNL     1      57.209   7.734  26.444  1.00  0.00     0.158 C
HETATM    9  C12 UNL     1      55.412   6.035  26.446  1.00  0.00     0.141 A
HETATM   10  N9  UNL     1      54.098   5.974  26.867  1.00  0.00    -0.348 N
HETATM   11  C11 UNL     1      53.802   7.093  27.469  1.00  0.00     0.125 A
ATOM     12  H9  UNL     1      53.465   5.186  26.730  1.00  0.00     0.167 HD
BRANCH   9  13
HETATM   13  C13 UNL     1      55.922   4.846  25.754  1.00  0.00     0.146 A
HETATM   14  N10 UNL     1      57.267   4.528  25.697  1.00  0.00    -0.234 N
HETATM   15  O2  UNL     1      57.494   3.492  25.005  1.00  0.00    -0.155 OA
ATOM     16  H10 UNL     1      57.996   5.069  26.162  1.00  0.00     0.197 HD
HETATM   17  N11 UNL     1      56.373   3.064  24.570  1.00  0.00    -0.224 N
HETATM   18  C14 UNL     1      55.350   3.873  25.007  1.00  0.00     0.154 A
ATOM     19  H11 UNL     1      56.254   2.239  23.982  1.00  0.00     0.198 HD
BRANCH  18  20
HETATM   20  N12 UNL     1      54.138   3.687  24.690  1.00  0.00    -0.382 N
ATOM     21 2H12 UNL     1      53.776   2.788  24.373  1.00  0.00     0.157 HD
ATOM     22 1H12 UNL     1      53.355   4.341  24.659  1.00  0.00     0.157 HD
ENDBRANCH  18  20
ENDBRANCH   9  13
ENDBRANCH   3   6
ENDBRANCH   1   2
BRANCH   1  23
HETATM   23  C5  UNL     1      57.454  11.492  29.652  1.00  0.00     0.088 C
BRANCH  23  24
HETATM   24  C6  UNL     1      57.798  12.572  28.659  1.00  0.00     0.151 C
BRANCH  24  25
HETATM   25  N3  UNL     1      56.816  12.551  27.558  1.00  0.00    -0.147 NA
BRANCH  25  26
HETATM   26  N4  UNL     1      56.429  13.831  27.210  1.00  0.00    -0.348 N
ATOM     27  H42 UNL     1      55.527  14.236  27.462  1.00  0.00     0.172 HD
ATOM     28  H41 UNL     1      57.159  14.303  26.677  1.00  0.00     0.172 HD
ENDBRANCH  25  26
ENDBRANCH  24  25
ENDBRANCH  23  24
BRANCH  23  29
HETATM   29  S1  UNL     1      57.825  11.812  31.335  1.00  0.00    -0.104 SA
BRANCH  29  30
HETATM   30  C7  UNL     1      58.576  13.332  31.763  1.00  0.00     0.090 A
HETATM   31  C8  UNL     1      59.925  13.553  31.832  1.00  0.00     0.086 A
HETATM   32  C9  UNL     1      60.461  14.795  32.181  1.00  0.00     0.117 A
HETATM   33  N6  UNL     1      59.640  15.802  32.457  1.00  0.00    -0.177 N
HETATM   34  C10 UNL     1      58.312  15.597  32.393  1.00  0.00     0.678 A
ATOM     35  H6  UNL     1      60.010  16.717  32.714  1.00  0.00     0.185 HD
HETATM   36  N8  UNL     1      57.793  14.413  32.059  1.00  0.00    -0.186 N
ATOM     37  H8  UNL     1      56.779  14.312  32.024  1.00  0.00     0.185 HD
BRANCH  32  38
HETATM   38  N5  UNL     1      61.733  14.971  32.236  1.00  0.00    -0.385 N
ATOM     39  H52 UNL     1      62.362  14.269  31.847  1.00  0.00     0.157 HD
ATOM     40  H51 UNL     1      62.127  15.808  32.667  1.00  0.00     0.157 HD
ENDBRANCH  32  38
BRANCH  34  41
HETATM   41  N7  UNL     1      57.577  16.629  32.678  1.00  0.00    -0.234 N
ATOM     42  H72 UNL     1      57.090  17.171  31.965  1.00  0.00     0.174 HD
ATOM     43  H71 UNL     1      57.518  16.863  33.669  1.00  0.00     0.174 HD
ENDBRANCH  34  41
ENDBRANCH  29  30
ENDBRANCH  23  29
ENDBRANCH   1  23
TORSDOF 12
ENDMDL