MODEL 2
REMARK VINA RESULT: -4.024753396      2.470      3.610
REMARK  11 active torsions:
REMARK  status: ('A' for Active; 'I' for Inactive)
REMARK    1  A    between atoms: C4_4  and  C5_5
REMARK    2  A    between atoms: C5_5  and  O1_6
REMARK    3  A    between atoms: C5_5  and  O2_8
REMARK    4  A    between atoms: N2_13  and  N3_15
REMARK    5  A    between atoms: C9_20  and  N4_21
REMARK    6  A    between atoms: N5_24  and  O3_25
REMARK    7  A    between atoms: C11_28  and  C12_29
REMARK    8  A    between atoms: C12_29  and  N6_30
REMARK    9  A    between atoms: C13_32  and  C14_33
REMARK   10  A    between atoms: C14_33  and  N7_34
REMARK   11  A    between atoms: N7_34  and  C15_36
ROOT
HETATM    1  C1  UNL     1      54.705  12.623  27.204  1.00  0.00     0.018 C
HETATM    2  C2  UNL     1      55.434  11.802  27.632  1.00  0.00    -0.073 C
HETATM    3  C3  UNL     1      56.334  10.806  28.124  1.00  0.00     0.073 C
HETATM    4  C4  UNL     1      55.851   9.993  29.160  1.00  0.00     0.087 C
HETATM    5  N1  UNL     1      56.603   9.263  29.981  1.00  0.00    -0.338 N
ATOM      6  H1  UNL     1      56.294   9.209  30.951  1.00  0.00     0.167 HD
HETATM    7  C6  UNL     1      57.751   8.575  29.665  1.00  0.00     0.150 C
HETATM    8  N2  UNL     1      58.147   7.642  30.447  1.00  0.00    -0.290 N
ATOM      9  H2  UNL     1      58.994   7.150  30.162  1.00  0.00     0.188 HD
HETATM   10  C7  UNL     1      58.580   8.746  28.581  1.00  0.00     0.119 A
HETATM   11  C8  UNL     1      58.493   9.693  27.593  1.00  0.00     0.123 A
HETATM   12  C9  UNL     1      57.579  10.754  27.542  1.00  0.00     0.079 C
HETATM   13  N5  UNL     1      59.506   9.519  26.739  1.00  0.00    -0.201 N
HETATM   14  C10 UNL     1      60.218   8.449  27.235  1.00  0.00     0.166 A
HETATM   15  C11 UNL     1      61.393   7.788  26.996  1.00  0.00     0.075 A
HETATM   16  N8  UNL     1      61.534   6.924  27.966  1.00  0.00    -0.351 N
ATOM     17  H8  UNL     1      62.321   6.283  28.064  1.00  0.00     0.166 HD
HETATM   18  C17 UNL     1      60.502   6.999  28.811  1.00  0.00     0.191 A
HETATM   19  N9  UNL     1      59.671   7.973  28.341  1.00  0.00    -0.284 N
ENDROOT
BRANCH   4  20
HETATM   20  C5  UNL     1      54.388   9.887  29.262  1.00  0.00     0.306 C
BRANCH  20  21
HETATM   21  O1  UNL     1      54.023   8.994  30.287  1.00  0.00    -0.366 OA
ATOM     22  H1  UNL     1      53.085   8.844  30.283  1.00  0.00     0.213 HD
ENDBRANCH  20  21
BRANCH  20  23
HETATM   23  O2  UNL     1      53.974   9.115  28.084  1.00  0.00    -0.366 OA
ATOM     24  H2  UNL     1      53.926   8.214  28.381  1.00  0.00     0.213 HD
ENDBRANCH  20  23
ENDBRANCH   4  20
BRANCH  12  25
HETATM   25  N4  UNL     1      58.003  11.770  26.931  1.00  0.00    -0.396 N
ATOM     26  H42 UNL     1      58.306  11.586  25.974  1.00  0.00     0.156 HD
ATOM     27  H41 UNL     1      58.051  12.658  27.431  1.00  0.00     0.156 HD
ENDBRANCH  12  25
BRANCH  13  28
HETATM   28  O3  UNL     1      59.775  10.289  25.644  1.00  0.00    -0.281 OA
ATOM     29  H3  UNL     1      59.891   9.976  24.754  1.00  0.00     0.245 HD
ENDBRANCH  13  28
BRANCH   8  30
HETATM   30  N3  UNL     1      57.568   7.214  31.637  1.00  0.00    -0.344 N
ATOM     31  H32 UNL     1      56.668   6.746  31.530  1.00  0.00     0.176 HD
ATOM     32  H31 UNL     1      57.930   7.312  32.585  1.00  0.00     0.176 HD
ENDBRANCH   8  30
BRANCH  15  33
HETATM   33  C12 UNL     1      62.235   7.902  25.758  1.00  0.00     0.180 C
BRANCH  33  34
HETATM   34  N6  UNL     1      62.095   6.697  25.019  1.00  0.00    -0.392 N
HETATM   35  C13 UNL     1      61.112   5.794  25.063  1.00  0.00     0.100 C
ATOM     36  H6  UNL     1      62.850   6.493  24.364  1.00  0.00     0.159 HD
BRANCH  35  37
HETATM   37  C14 UNL     1      59.716   5.974  24.621  1.00  0.00     0.103 C
BRANCH  37  38
HETATM   38  N7  UNL     1      58.696   5.823  25.571  1.00  0.00    -0.378 N
ATOM     39  H7  UNL     1      58.514   6.582  26.227  1.00  0.00     0.164 HD
BRANCH  38  40
HETATM   40  C15 UNL     1      57.921   4.663  25.643  1.00  0.00     0.056 C
HETATM   41  C16 UNL     1      56.481   4.840  25.989  1.00  0.00     0.054 C
ENDBRANCH  38  40
ENDBRANCH  37  38
ENDBRANCH  35  37
ENDBRANCH  33  34
ENDBRANCH  15  33
TORSDOF 11
ENDMDL