MODEL 3
REMARK VINA RESULT: -7.416333230      2.572      7.053
REMARK  13 active torsions:
REMARK  status: ('A' for Active; 'I' for Inactive)
REMARK    1  A    between atoms: N1_1  and  C1_5
REMARK    2  A    between atoms: C1_5  and  N2_6
REMARK    3  A    between atoms: N2_6  and  C2_9
REMARK    4  A    between atoms: C2_9  and  C3_10
REMARK    5  A    between atoms: C2_9  and  C10_31
REMARK    6  A    between atoms: C3_10  and  C4_11
REMARK    7  A    between atoms: C4_11  and  C5_12
REMARK    8  A    between atoms: C6_13  and  C7_14
REMARK    9  A    between atoms: C7_14  and  N3_15
REMARK   10  A    between atoms: C7_14  and  O1_19
REMARK   11  A    between atoms: C8_23  and  N5_24
REMARK   12  A    between atoms: C12_34  and  N7_35
REMARK   13  A    between atoms: N7_35  and  C13_37
ROOT
HETATM    1  C2  UNL     1      58.288   8.719  30.014  1.00  0.00     0.238 C
ENDROOT
BRANCH   1   2
HETATM    2  N2  UNL     1      59.509   9.438  30.138  1.00  0.00    -0.042 N
ATOM      3  H22 UNL     1      59.349  10.357  30.552  1.00  0.00     0.280 HD
ATOM      4  H21 UNL     1      59.856   9.724  29.223  1.00  0.00     0.280 HD
BRANCH   2   5
HETATM    5  C1  UNL     1      60.501   8.731  30.852  1.00  0.00     0.461 C
BRANCH   5   6
HETATM    6  N1  UNL     1      61.500   8.080  30.099  1.00  0.00    -0.055 N
ATOM      7  H13 UNL     1      61.188   7.136  29.867  1.00  0.00     0.276 HD
ATOM      8  H12 UNL     1      61.551   8.498  29.170  1.00  0.00     0.276 HD
ATOM      9  H11 UNL     1      62.437   8.036  30.502  1.00  0.00     0.276 HD
ENDBRANCH   5   6
ENDBRANCH   2   5
ENDBRANCH   1   2
BRANCH   1  10
HETATM   10  C3  UNL     1      58.687   7.433  29.266  1.00  0.00     0.044 C
BRANCH  10  11
HETATM   11  C4  UNL     1      58.467   7.618  27.764  1.00  0.00     0.049 C
BRANCH  11  12
HETATM   12  C5  UNL     1      59.523   7.227  26.874  1.00  0.00     0.038 A
HETATM   13  C6  UNL     1      59.454   6.082  26.121  1.00  0.00     0.093 A
HETATM   14  N4  UNL     1      60.510   5.726  25.302  1.00  0.00    -0.191 N
HETATM   15  C8  UNL     1      61.626   6.453  25.187  1.00  0.00     0.679 A
ATOM     16  H4  UNL     1      60.433   4.867  24.759  1.00  0.00     0.184 HD
HETATM   17  N6  UNL     1      61.680   7.583  25.930  1.00  0.00    -0.156 N
HETATM   18  C9  UNL     1      60.687   7.964  26.740  1.00  0.00     0.268 A
ATOM     19  H6  UNL     1      62.513   8.168  25.869  1.00  0.00     0.187 HD
HETATM   20  O2  UNL     1      60.897   9.039  27.358  1.00  0.00    -0.267 OA
BRANCH  13  21
HETATM   21  C7  UNL     1      58.283   5.194  26.075  1.00  0.00     0.368 C
BRANCH  21  22
HETATM   22  N3  UNL     1      58.482   3.984  25.347  1.00  0.00    -0.047 N
ATOM     23  H33 UNL     1      57.593   3.641  24.982  1.00  0.00     0.277 HD
ATOM     24  H32 UNL     1      58.971   4.173  24.473  1.00  0.00     0.277 HD
ATOM     25  H31 UNL     1      58.959   3.248  25.868  1.00  0.00     0.277 HD
ENDBRANCH  21  22
BRANCH  21  26
HETATM   26  O1  UNL     1      57.144   5.895  25.570  1.00  0.00    -0.365 OA
ATOM     27  H1  UNL     1      56.367   5.667  26.068  1.00  0.00     0.212 HD
ENDBRANCH  21  26
ENDBRANCH  13  21
BRANCH  15  28
HETATM   28  N5  UNL     1      62.590   6.110  24.422  1.00  0.00    -0.234 N
ATOM     29  H52 UNL     1      62.585   5.220  23.924  1.00  0.00     0.174 HD
ATOM     30  H51 UNL     1      63.407   6.702  24.273  1.00  0.00     0.174 HD
ENDBRANCH  15  28
ENDBRANCH  11  12
ENDBRANCH  10  11
ENDBRANCH   1  10
BRANCH   1  31
HETATM   31  C10 UNL     1      57.165   9.480  29.413  1.00  0.00     0.048 A
HETATM   32  C11 UNL     1      57.282  10.811  29.037  1.00  0.00     0.080 A
HETATM   33  S1  UNL     1      55.738  11.124  28.383  1.00  0.00    -0.063 SA
HETATM   34  C12 UNL     1      55.037   9.571  28.624  1.00  0.00     0.164 A
HETATM   35  N12 UNL     1      56.004   8.887  29.183  1.00  0.00    -0.337 N
ATOM     36  H12 UNL     1      55.864   7.909  29.438  1.00  0.00     0.168 HD
BRANCH  34  37
HETATM   37  N7  UNL     1      53.824   9.274  28.269  1.00  0.00    -0.167 N
ATOM     38  H7  UNL     1      53.161  10.048  28.225  1.00  0.00     0.186 HD
BRANCH  37  39
HETATM   39  C13 UNL     1      53.323   7.997  27.937  1.00  0.00     0.715 A
HETATM   40  N8  UNL     1      52.039   7.575  28.021  1.00  0.00    -0.115 N
HETATM   41  N9  UNL     1      52.015   6.301  27.609  1.00  0.00    -0.213 N
ATOM     42  H8  UNL     1      51.240   8.124  28.339  1.00  0.00     0.207 HD
HETATM   43  N10 UNL     1      53.222   5.896  27.270  1.00  0.00    -0.213 N
ATOM     44  H9  UNL     1      51.176   5.722  27.564  1.00  0.00     0.210 HD
HETATM   45  N11 UNL     1      54.004   6.917  27.469  1.00  0.00    -0.115 N
ATOM     46  H10 UNL     1      53.488   4.974  26.924  1.00  0.00     0.210 HD
ATOM     47  H11 UNL     1      55.009   6.908  27.294  1.00  0.00     0.207 HD
ENDBRANCH  37  39
ENDBRANCH  34  37
ENDBRANCH   1  31
TORSDOF 13
ENDMDL