MODEL 4
REMARK VINA RESULT: -2.391513207      3.948      8.149
REMARK  10 active torsions:
REMARK  status: ('A' for Active; 'I' for Inactive)
REMARK    1  A    between atoms: N1_1  and  C1_4
REMARK    2  A    between atoms: C3_8  and  C4_9
REMARK    3  A    between atoms: C7_14  and  N4_15
REMARK    4  A    between atoms: N4_15  and  C8_16
REMARK    5  A    between atoms: N4_15  and  C10_20
REMARK    6  A    between atoms: C8_16  and  C9_17
REMARK    7  A    between atoms: C9_17  and  O1_18
REMARK    8  A    between atoms: C10_20  and  C11_21
REMARK    9  A    between atoms: C11_21  and  O2_22
REMARK   10  A    between atoms: C14_31  and  N7_32
REMARK       I    between atoms: N7_32  and  C15_34
REMARK       I    between atoms: C15_34  and  N8_35
REMARK       I    between atoms: C15_34  and  N9_39
ROOT
HETATM    1  C4  UNL     1      59.750   7.206  26.201  1.00  0.00     0.051 A
HETATM    2  C5  UNL     1      59.727   8.423  26.803  1.00  0.00     0.061 A
HETATM    3  C6  UNL     1      58.577   8.759  27.541  1.00  0.00     0.069 A
HETATM    4  N3  UNL     1      58.494   9.930  28.169  1.00  0.00    -0.191 N
ATOM      5  H3  UNL     1      59.267  10.592  28.103  1.00  0.00     0.184 HD
HETATM    6  C7  UNL     1      57.395  10.255  28.895  1.00  0.00     0.682 A
HETATM    7  N5  UNL     1      56.369   9.436  29.011  1.00  0.00    -0.176 N
ATOM      8  H5  UNL     1      55.554   9.705  29.563  1.00  0.00     0.186 HD
HETATM    9  C12 UNL     1      56.408   8.237  28.389  1.00  0.00     0.131 A
HETATM   10  N6  UNL     1      55.406   7.459  28.518  1.00  0.00    -0.384 N
ATOM     11  H61 UNL     1      55.436   6.553  28.049  1.00  0.00     0.157 HD
ATOM     12  H62 UNL     1      54.584   7.714  29.067  1.00  0.00     0.157 HD
HETATM   13  C13 UNL     1      57.528   7.888  27.641  1.00  0.00     0.079 A
HETATM   14  C14 UNL     1      57.566   6.654  27.021  1.00  0.00     0.120 A
HETATM   15  N10 UNL     1      58.676   6.372  26.331  1.00  0.00    -0.341 N
ATOM     16  H10 UNL     1      58.724   5.465  25.867  1.00  0.00     0.167 HD
ENDROOT
BRANCH   1  17
HETATM   17  C3  UNL     1      60.879   6.794  25.375  1.00  0.00     0.048 A
HETATM   18  C2  UNL     1      62.189   7.042  25.784  1.00  0.00     0.123 A
HETATM   19  N2  UNL     1      63.236   6.736  25.008  1.00  0.00    -0.201 N
HETATM   20  C1  UNL     1      63.094   6.177  23.801  1.00  0.00     0.676 A
ATOM     21  H2  UNL     1      64.176   6.937  25.349  1.00  0.00     0.183 HD
HETATM   22  N12 UNL     1      61.845   5.927  23.384  1.00  0.00    -0.178 N
HETATM   23  C16 UNL     1      60.754   6.220  24.135  1.00  0.00     0.145 A
ATOM     24  H12 UNL     1      61.710   5.501  22.468  1.00  0.00     0.185 HD
HETATM   25  N11 UNL     1      59.514   5.931  23.518  1.00  0.00    -0.081 NA
BRANCH  20  26
HETATM   26  N1  UNL     1      64.081   5.855  23.020  1.00  0.00    -0.234 N
ATOM     27  H12 UNL     1      64.549   6.597  22.501  1.00  0.00     0.174 HD
ATOM     28  H11 UNL     1      64.420   4.903  22.882  1.00  0.00     0.174 HD
ENDBRANCH  20  26
ENDBRANCH   1  17
BRANCH  14  29
HETATM   29  N7  UNL     1      56.554   5.897  27.155  1.00  0.00    -0.326 N
HETATM   30  C15 UNL     1      55.813   5.214  26.152  1.00  0.00     0.481 C
HETATM   31  N8  UNL     1      56.090   3.780  26.131  1.00  0.00    -0.033 N
HETATM   32  N9  UNL     1      54.394   5.409  26.452  1.00  0.00    -0.033 N
ATOM     33  H83 UNL     1      57.089   3.600  26.035  1.00  0.00     0.278 HD
ATOM     34  H82 UNL     1      55.936   3.363  27.050  1.00  0.00     0.278 HD
ATOM     35  H81 UNL     1      55.559   3.290  25.411  1.00  0.00     0.278 HD
ATOM     36  H93 UNL     1      54.142   5.122  27.398  1.00  0.00     0.278 HD
ATOM     37  H92 UNL     1      54.136   6.392  26.539  1.00  0.00     0.278 HD
ATOM     38  H91 UNL     1      53.863   4.919  25.732  1.00  0.00     0.278 HD
ATOM     39  H7  UNL     1      56.230   5.760  28.113  1.00  0.00     0.164 HD
ENDBRANCH  14  29
BRANCH   6  40
HETATM   40  N4  UNL     1      57.429  11.547  29.484  1.00  0.00    -0.214 N
BRANCH  40  41
HETATM   41  C8  UNL     1      57.561  11.604  30.916  1.00  0.00     0.167 C
BRANCH  41  42
HETATM   42  C9  UNL     1      58.155  12.890  31.407  1.00  0.00     0.184 C
BRANCH  42  43
HETATM   43  O1  UNL     1      58.506  12.824  32.753  1.00  0.00    -0.399 OA
ATOM     44  H1  UNL     1      58.340  13.642  33.205  1.00  0.00     0.209 HD
ENDBRANCH  42  43
ENDBRANCH  41  42
ENDBRANCH  40  41
BRANCH  40  45
HETATM   45  C10 UNL     1      57.311  12.716  28.648  1.00  0.00     0.167 C
BRANCH  45  46
HETATM   46  C11 UNL     1      56.215  12.590  27.598  1.00  0.00     0.184 C
BRANCH  46  47
HETATM   47  O2  UNL     1      55.873  13.885  27.239  1.00  0.00    -0.399 OA
ATOM     48  H2  UNL     1      55.265  13.806  26.513  1.00  0.00     0.209 HD
ENDBRANCH  46  47
ENDBRANCH  45  46
ENDBRANCH  40  45
ENDBRANCH   6  40
TORSDOF 10
ENDMDL