MODEL 3
REMARK VINA RESULT: -4.116735566      2.450      5.049
REMARK  12 active torsions:
REMARK  status: ('A' for Active; 'I' for Inactive)
REMARK    1  A    between atoms: S1_2  and  C2_3
REMARK    2  A    between atoms: C2_3  and  C3_4
REMARK    3  A    between atoms: C3_4  and  O1_5
REMARK    4  A    between atoms: C4_9  and  C5_10
REMARK    5  A    between atoms: C4_9  and  C9_23
REMARK    6  A    between atoms: C5_10  and  C6_11
REMARK    7  A    between atoms: C6_11  and  C7_12
REMARK    8  A    between atoms: C7_12  and  N2_13
REMARK    9  A    between atoms: N2_13  and  C8_16
REMARK   10  A    between atoms: C8_16  and  N3_17
REMARK   11  A    between atoms: C8_16  and  O2_21
REMARK   12  A    between atoms: C13_31  and  N6_32
ROOT
HETATM    1  C2  UNL     1      59.561   8.880  28.670  1.00  0.00     0.161 C
HETATM    2  N1  UNL     1      59.541  10.190  29.010  1.00  0.00    -0.377 N
ATOM      3  H1  UNL     1      60.179  10.953  28.784  1.00  0.00     0.156 HD
HETATM    4  C4  UNL     1      58.258  10.161  29.843  1.00  0.00     0.121 C
HETATM    5  C16 UNL     1      58.697   8.770  29.918  1.00  0.00     0.199 C
HETATM    6  O3  UNL     1      58.659   7.694  30.498  1.00  0.00    -0.291 OA
ENDROOT
BRANCH   4   7
HETATM    7  C5  UNL     1      58.767  11.109  30.980  1.00  0.00     0.046 C
BRANCH   7   8
HETATM    8  C6  UNL     1      57.842  12.267  31.195  1.00  0.00     0.031 C
BRANCH   8   9
HETATM    9  C7  UNL     1      58.673  13.300  31.977  1.00  0.00     0.237 C
BRANCH   9  10
HETATM   10  N2  UNL     1      57.791  14.374  32.312  1.00  0.00    -0.023 N
ATOM     11  H22 UNL     1      57.107  14.529  31.571  1.00  0.00     0.282 HD
ATOM     12  H21 UNL     1      57.160  14.106  33.067  1.00  0.00     0.282 HD
BRANCH  10  13
HETATM   13  C8  UNL     1      58.492  15.599  32.635  1.00  0.00     0.519 C
BRANCH  13  14
HETATM   14  N3  UNL     1      57.562  16.695  32.432  1.00  0.00    -0.027 N
ATOM     15  H33 UNL     1      57.928  17.593  32.749  1.00  0.00     0.279 HD
ATOM     16  H32 UNL     1      57.442  16.941  31.449  1.00  0.00     0.279 HD
ATOM     17  H31 UNL     1      56.686  16.438  32.887  1.00  0.00     0.279 HD
ENDBRANCH  13  14
BRANCH  13  18
HETATM   18  O2  UNL     1      59.523  15.755  31.710  1.00  0.00    -0.349 OA
ATOM     19  H2  UNL     1      60.009  14.939  31.678  1.00  0.00     0.213 HD
ENDBRANCH  13  18
ENDBRANCH  10  13
ENDBRANCH   9  10
ENDBRANCH   8   9
ENDBRANCH   7   8
ENDBRANCH   4   7
BRANCH   4  20
HETATM   20  C9  UNL     1      57.333  10.761  28.910  1.00  0.00    -0.004 A
HETATM   21  C10 UNL     1      57.625  11.899  28.121  1.00  0.00     0.028 A
HETATM   22  C11 UNL     1      56.742  12.550  27.303  1.00  0.00     0.090 A
HETATM   23  N4  UNL     1      55.508  12.080  27.242  1.00  0.00    -0.351 N
HETATM   24  C12 UNL     1      55.124  11.017  27.938  1.00  0.00     0.135 A
ATOM     25  H4  UNL     1      54.830  12.549  26.640  1.00  0.00     0.166 HD
HETATM   26  N5  UNL     1      53.851  10.581  27.811  1.00  0.00    -0.176 N
HETATM   27  C15 UNL     1      56.024  10.340  28.780  1.00  0.00     0.062 A
HETATM   28  C13 UNL     1      53.423   9.497  28.479  1.00  0.00     0.679 A
ATOM     29  H5  UNL     1      53.207  11.081  27.199  1.00  0.00     0.186 HD
HETATM   30  N7  UNL     1      54.240   8.823  29.283  1.00  0.00    -0.176 N
HETATM   31  C14 UNL     1      55.521   9.244  29.426  1.00  0.00     0.129 A
ATOM     32  H7  UNL     1      53.907   8.001  29.786  1.00  0.00     0.186 HD
HETATM   33  N8  UNL     1      56.304   8.566  30.160  1.00  0.00    -0.384 N
ATOM     34  H82 UNL     1      55.929   7.748  30.642  1.00  0.00     0.157 HD
ATOM     35  H81 UNL     1      57.268   8.883  30.268  1.00  0.00     0.157 HD
BRANCH  28  36
HETATM   36  N6  UNL     1      52.207   9.118  28.328  1.00  0.00    -0.234 N
ATOM     37  H62 UNL     1      51.443   9.689  28.689  1.00  0.00     0.174 HD
ATOM     38  H61 UNL     1      52.023   8.240  27.844  1.00  0.00     0.174 HD
ENDBRANCH  28  36
ENDBRANCH   4  20
BRANCH   1  39
HETATM   39  S1  UNL     1      58.731   8.171  27.281  1.00  0.00    -0.133 SA
HETATM   40  C1  UNL     1      59.281   6.465  27.038  1.00  0.00     0.093 C
ENDBRANCH   1  39
BRANCH   1  41
HETATM   41  C3  UNL     1      60.958   8.281  28.808  1.00  0.00     0.214 C
BRANCH  41  42
HETATM   42  O1  UNL     1      61.376   8.490  30.110  1.00  0.00    -0.397 OA
ATOM     43  H1  UNL     1      62.248   8.865  30.075  1.00  0.00     0.209 HD
ENDBRANCH  41  42
ENDBRANCH   1  41
TORSDOF 12
ENDMDL