MODEL 4
REMARK VINA RESULT: -6.192852549      1.253      2.035
REMARK  12 active torsions:
REMARK  status: ('A' for Active; 'I' for Inactive)
REMARK    1  A    between atoms: N1_1  and  C1_4
REMARK    2  A    between atoms: N5_16  and  C6_17
REMARK    3  A    between atoms: C6_17  and  C7_18
REMARK    4  A    between atoms: C7_18  and  O1_19
REMARK    5  A    between atoms: C7_18  and  C8_21
REMARK    6  A    between atoms: C9_24  and  N7_25
REMARK    7  A    between atoms: N7_25  and  C10_27
REMARK    8  A    between atoms: C13_34  and  C14_35
REMARK    9  A    between atoms: C14_35  and  O2_36
REMARK   10  A    between atoms: N10_38  and  C15_39
REMARK   11  A    between atoms: C15_39  and  C16_40
REMARK   12  A    between atoms: C16_40  and  O3_41
ROOT
HETATM    1  C8  UNL     1      58.725   7.937  28.636  1.00  0.00     0.120 A
HETATM    2  N6  UNL     1      57.991   7.022  27.914  1.00  0.00    -0.328 N
ATOM      3  H6  UNL     1      57.027   6.779  28.141  1.00  0.00     0.169 HD
HETATM    4  C9  UNL     1      58.638   6.498  26.917  1.00  0.00     0.134 A
HETATM    5  C13 UNL     1      59.915   7.080  26.962  1.00  0.00     0.081 A
HETATM    6  N10 UNL     1      59.901   7.926  27.985  1.00  0.00    -0.331 N
ENDROOT
BRANCH   1   7
HETATM    7  C7  UNL     1      58.101   8.695  29.704  1.00  0.00     0.224 C
BRANCH   7   8
HETATM    8  C6  UNL     1      56.988   9.571  29.707  1.00  0.00     0.110 C
BRANCH   8   9
HETATM    9  N5  UNL     1      56.727  10.701  28.919  1.00  0.00    -0.313 N
HETATM   10  C3  UNL     1      55.635  11.037  28.171  1.00  0.00     0.129 A
HETATM   11  C2  UNL     1      54.438  10.433  27.915  1.00  0.00     0.146 A
HETATM   12  C4  UNL     1      55.820  12.272  27.556  1.00  0.00     0.153 A
HETATM   13  N2  UNL     1      53.518  10.986  27.151  1.00  0.00    -0.175 N
HETATM   14  N3  UNL     1      54.271   9.255  28.446  1.00  0.00    -0.383 N
HETATM   15  C1  UNL     1      53.732  12.210  26.570  1.00  0.00     0.679 A
ATOM     16  H2  UNL     1      52.637  10.498  26.991  1.00  0.00     0.186 HD
HETATM   17  N11 UNL     1      54.897  12.849  26.773  1.00  0.00    -0.174 N
ATOM     18  H11 UNL     1      55.074  13.755  26.341  1.00  0.00     0.186 HD
ATOM     19  H32 UNL     1      53.377   8.803  28.254  1.00  0.00     0.157 HD
ATOM     20  H31 UNL     1      54.984   8.827  29.037  1.00  0.00     0.157 HD
HETATM   21  N4  UNL     1      57.013  12.687  27.930  1.00  0.00    -0.336 N
HETATM   22  C5  UNL     1      57.547  11.773  28.716  1.00  0.00     0.189 A
ATOM     23  H4  UNL     1      57.451  13.567  27.657  1.00  0.00     0.168 HD
BRANCH  15  24
HETATM   24  N1  UNL     1      52.806  12.682  25.892  1.00  0.00    -0.234 N
ATOM     25  H12 UNL     1      51.840  12.362  25.966  1.00  0.00     0.174 HD
ATOM     26  H11 UNL     1      53.048  13.410  25.221  1.00  0.00     0.174 HD
ENDBRANCH  15  24
ENDBRANCH   8   9
ENDBRANCH   7   8
BRANCH   7  27
HETATM   27  O1  UNL     1      57.728   7.651  30.712  1.00  0.00    -0.383 OA
ATOM     28  H1  UNL     1      57.883   8.081  31.545  1.00  0.00     0.211 HD
ENDBRANCH   7  27
ENDBRANCH   1   7
BRANCH   6  29
HETATM   29  C15 UNL     1      61.000   8.834  28.198  1.00  0.00     0.156 C
BRANCH  29  30
HETATM   30  C16 UNL     1      61.512   8.982  29.577  1.00  0.00     0.184 C
BRANCH  30  31
HETATM   31  O3  UNL     1      61.560   7.696  30.192  1.00  0.00    -0.399 OA
ATOM     32  H3  UNL     1      61.436   7.798  31.129  1.00  0.00     0.209 HD
ENDBRANCH  30  31
ENDBRANCH  29  30
ENDBRANCH   6  29
BRANCH   4  33
HETATM   33  N7  UNL     1      58.325   5.483  25.982  1.00  0.00    -0.313 N
ATOM     34  H7  UNL     1      59.035   5.093  25.362  1.00  0.00     0.170 HD
BRANCH  33  35
HETATM   35  C10 UNL     1      56.964   5.025  25.945  1.00  0.00     0.176 C
HETATM   36  N8  UNL     1      55.918   5.487  26.412  1.00  0.00    -0.361 N
HETATM   37  C11 UNL     1      54.783   4.629  26.091  1.00  0.00     0.142 C
ATOM     38  H8  UNL     1      55.856   6.352  26.949  1.00  0.00     0.162 HD
HETATM   39  C12 UNL     1      55.353   3.410  25.456  1.00  0.00     0.142 C
HETATM   40  N9  UNL     1      56.720   3.780  25.238  1.00  0.00    -0.361 N
ATOM     41  H9  UNL     1      57.401   3.260  24.684  1.00  0.00     0.162 HD
ENDBRANCH  33  35
ENDBRANCH   4  33
BRANCH   5  42
HETATM   42  C14 UNL     1      60.876   6.848  25.842  1.00  0.00     0.225 C
BRANCH  42  43
HETATM   43  O2  UNL     1      61.294   5.492  25.765  1.00  0.00    -0.395 OA
ATOM     44  H2  UNL     1      61.318   5.075  26.619  1.00  0.00     0.209 HD
ENDBRANCH  42  43
ENDBRANCH   5  42
TORSDOF 12
ENDMDL