MODEL 5
REMARK VINA RESULT: -3.925817344      1.847      7.569
REMARK  9 active torsions:
REMARK  status: ('A' for Active; 'I' for Inactive)
REMARK    1  A    between atoms: C2_2  and  C3_3
REMARK    2  A    between atoms: C2_2  and  N13_44
REMARK    3  A    between atoms: C3_3  and  C4_4
REMARK    4  A    between atoms: N1_5  and  C5_7
REMARK    5  A    between atoms: C6_8  and  C7_9
REMARK       I    between atoms: C7_9  and  N2_11
REMARK    6  A    between atoms: N2_11  and  C8_13
REMARK    7  A    between atoms: C8_13  and  C9_14
REMARK    8  A    between atoms: C12_21  and  N5_22
REMARK    9  A    between atoms: N13_44  and  N14_45
ROOT
HETATM    1  C7  UNL     1      59.464   9.407  27.641  1.00  0.00     0.276 C
HETATM    2  O1  UNL     1      60.330   9.825  26.785  1.00  0.00    -0.266 OA
HETATM    3  N2  UNL     1      59.559   8.057  27.965  1.00  0.00    -0.329 N
ATOM      4  H2  UNL     1      58.885   7.713  28.649  1.00  0.00     0.168 HD
ENDROOT
BRANCH   1   5
HETATM    5  C6  UNL     1      58.552  10.418  28.114  1.00  0.00     0.148 A
HETATM    6  C5  UNL     1      57.723  10.308  29.185  1.00  0.00     0.111 A
HETATM    7  C15 UNL     1      56.909  11.377  29.607  1.00  0.00     0.144 A
HETATM    8  N11 UNL     1      56.979  12.515  28.911  1.00  0.00    -0.269 N
HETATM    9  N12 UNL     1      56.168  11.203  30.624  1.00  0.00    -0.382 N
HETATM   10  N10 UNL     1      57.774  12.645  27.868  1.00  0.00    -0.240 N
ATOM     11  H11 UNL     1      56.400  13.306  29.195  1.00  0.00     0.190 HD
HETATM   12  N9  UNL     1      58.527  11.645  27.484  1.00  0.00    -0.279 N
ATOM     13  H10 UNL     1      57.804  13.528  27.357  1.00  0.00     0.208 HD
ATOM     14  H9  UNL     1      59.131  11.781  26.673  1.00  0.00     0.189 HD
ATOM     15 2H12 UNL     1      56.116  10.334  31.155  1.00  0.00     0.157 HD
ATOM     16 1H12 UNL     1      55.579  11.977  30.931  1.00  0.00     0.157 HD
BRANCH   6  17
HETATM   17  N1  UNL     1      57.616   9.062  29.891  1.00  0.00    -0.364 N
HETATM   18  C4  UNL     1      56.692   8.210  29.517  1.00  0.00     0.063 C
ATOM     19  H1  UNL     1      58.244   8.846  30.665  1.00  0.00     0.165 HD
BRANCH  18  20
HETATM   20  C3  UNL     1      55.759   8.455  28.417  1.00  0.00     0.067 C
BRANCH  20  21
HETATM   21  C2  UNL     1      54.399   8.919  28.894  1.00  0.00     0.099 C
HETATM   22  C1  UNL     1      53.915  10.137  28.179  1.00  0.00     0.030 C
BRANCH  21  23
HETATM   23  N13 UNL     1      53.410   7.846  28.735  1.00  0.00    -0.143 NA
BRANCH  23  24
HETATM   24  N14 UNL     1      52.589   8.118  27.623  1.00  0.00    -0.348 N
ATOM     25 2H14 UNL     1      52.933   8.233  26.669  1.00  0.00     0.172 HD
ATOM     26 1H14 UNL     1      51.616   8.179  27.920  1.00  0.00     0.172 HD
ENDBRANCH  23  24
ENDBRANCH  21  23
ENDBRANCH  20  21
ENDBRANCH  18  20
ENDBRANCH   6  17
ENDBRANCH   1   5
BRANCH   3  27
HETATM   27  C8  UNL     1      60.487   7.087  27.454  1.00  0.00     0.122 C
BRANCH  27  28
HETATM   28  C9  UNL     1      60.449   6.816  26.035  1.00  0.00     0.064 A
HETATM   29  C10 UNL     1      59.307   6.846  25.242  1.00  0.00     0.120 A
HETATM   30  N3  UNL     1      59.341   6.558  23.932  1.00  0.00    -0.348 N
HETATM   31  C11 UNL     1      60.490   6.224  23.320  1.00  0.00     0.151 A
ATOM     32  H3  UNL     1      58.478   6.593  23.389  1.00  0.00     0.167 HD
HETATM   33  N4  UNL     1      60.499   5.939  22.008  1.00  0.00    -0.174 N
HETATM   34  C14 UNL     1      61.641   6.185  24.077  1.00  0.00     0.122 A
HETATM   35  C12 UNL     1      61.672   5.612  21.443  1.00  0.00     0.679 A
ATOM     36  H4  UNL     1      59.641   5.971  21.457  1.00  0.00     0.186 HD
HETATM   37  N6  UNL     1      62.826   5.566  22.169  1.00  0.00    -0.175 N
HETATM   38  C13 UNL     1      62.834   5.845  23.467  1.00  0.00     0.145 A
ATOM     39  H6  UNL     1      63.698   5.313  21.706  1.00  0.00     0.186 HD
HETATM   40  N7  UNL     1      63.912   5.806  24.162  1.00  0.00    -0.383 N
ATOM     41  H72 UNL     1      64.792   5.554  23.712  1.00  0.00     0.157 HD
ATOM     42  H71 UNL     1      63.918   6.020  25.159  1.00  0.00     0.157 HD
HETATM   43  N8  UNL     1      61.601   6.476  25.387  1.00  0.00    -0.348 N
ATOM     44  H8  UNL     1      62.468   6.440  25.922  1.00  0.00     0.166 HD
BRANCH  35  45
HETATM   45  N5  UNL     1      61.674   5.339  20.178  1.00  0.00    -0.234 N
ATOM     46  H52 UNL     1      60.894   4.839  19.751  1.00  0.00     0.174 HD
ATOM     47  H51 UNL     1      62.479   5.641  19.630  1.00  0.00     0.174 HD
ENDBRANCH  35  45
ENDBRANCH  27  28
ENDBRANCH   3  27
TORSDOF 9
ENDMDL