MODEL 4
REMARK VINA RESULT: -3.882931481      1.949      3.819
REMARK  12 active torsions:
REMARK  status: ('A' for Active; 'I' for Inactive)
REMARK    1  A    between atoms: N1_1  and  C1_4
REMARK    2  A    between atoms: C2_7  and  N3_8
REMARK    3  A    between atoms: C4_14  and  N5_15
REMARK    4  A    between atoms: N5_15  and  C5_16
REMARK    5  A    between atoms: N5_15  and  C7_20
REMARK    6  A    between atoms: C5_16  and  C6_17
REMARK    7  A    between atoms: C6_17  and  O1_18
REMARK    8  A    between atoms: C10_23  and  N6_24
REMARK    9  A    between atoms: N6_24  and  N7_25
REMARK   10  A    between atoms: N6_24  and  C11_28
REMARK   11  A    between atoms: C11_28  and  O2_29
REMARK   12  A    between atoms: C15_34  and  N8_35
REMARK       I    between atoms: N8_35  and  C16_37
REMARK       I    between atoms: C16_37  and  N9_38
REMARK       I    between atoms: C16_37  and  N10_42
ROOT
HETATM    1  C1  UNL     1      53.583  12.466  26.804  1.00  0.00     0.692 A
HETATM    2  N2  UNL     1      54.713  13.182  26.671  1.00  0.00    -0.172 N
ATOM      3  H2  UNL     1      54.680  14.109  26.247  1.00  0.00     0.186 HD
HETATM    4  C2  UNL     1      55.892  12.682  27.096  1.00  0.00     0.161 A
HETATM    5  C3  UNL     1      55.966  11.431  27.674  1.00  0.00     0.175 A
HETATM    6  N4  UNL     1      57.166  10.929  28.100  1.00  0.00    -0.324 N
ATOM      7  H4  UNL     1      58.012  11.487  27.991  1.00  0.00     0.169 HD
HETATM    8  C4  UNL     1      57.243   9.715  28.661  1.00  0.00     0.113 A
HETATM    9  C14 UNL     1      56.080   8.991  28.791  1.00  0.00     0.099 A
HETATM   10  C15 UNL     1      54.856   9.514  28.350  1.00  0.00     0.132 A
HETATM   11  N11 UNL     1      54.820  10.736  27.794  1.00  0.00    -0.206 N
HETATM   12  N12 UNL     1      53.662  11.256  27.363  1.00  0.00    -0.122 N
ATOM     13  H12 UNL     1      52.808  10.708  27.467  1.00  0.00     0.206 HD
ENDROOT
BRANCH   8  14
HETATM   14  N5  UNL     1      58.479   9.195  29.105  1.00  0.00    -0.331 N
BRANCH  14  15
HETATM   15  C5  UNL     1      58.939   9.528  30.446  1.00  0.00     0.156 C
BRANCH  15  16
HETATM   16  C6  UNL     1      60.392   9.078  30.617  1.00  0.00     0.184 C
BRANCH  16  17
HETATM   17  O1  UNL     1      60.500   8.208  31.708  1.00  0.00    -0.399 OA
ATOM     18  H1  UNL     1      59.636   7.993  32.040  1.00  0.00     0.209 HD
ENDBRANCH  16  17
ENDBRANCH  15  16
ENDBRANCH  14  15
BRANCH  14  19
HETATM   19  C7  UNL     1      59.290   8.347  28.267  1.00  0.00     0.036 A
HETATM   20  C8  UNL     1      60.054   8.892  27.259  1.00  0.00     0.032 A
HETATM   21  C9  UNL     1      60.843   8.090  26.434  1.00  0.00     0.033 A
HETATM   22  C10 UNL     1      60.887   6.725  26.596  1.00  0.00     0.052 A
HETATM   23  C12 UNL     1      60.119   6.189  27.608  1.00  0.00     0.033 A
HETATM   24  C13 UNL     1      59.338   6.979  28.426  1.00  0.00     0.032 A
BRANCH  22  25
HETATM   25  N6  UNL     1      61.694   5.890  25.752  1.00  0.00    -0.275 N
BRANCH  25  26
HETATM   26  N7  UNL     1      61.778   4.506  26.006  1.00  0.00    -0.341 N
ATOM     27  H72 UNL     1      60.974   4.029  26.414  1.00  0.00     0.177 HD
ATOM     28  H71 UNL     1      62.635   3.999  25.783  1.00  0.00     0.177 HD
ENDBRANCH  25  26
BRANCH  25  29
HETATM   29  C11 UNL     1      62.422   6.436  24.644  1.00  0.00     0.312 C
BRANCH  29  30
HETATM   30  O2  UNL     1      63.702   5.913  24.504  1.00  0.00    -0.380 OA
ATOM     31  H2  UNL     1      63.762   5.217  23.861  1.00  0.00     0.211 HD
ENDBRANCH  29  30
ENDBRANCH  25  29
ENDBRANCH  22  25
ENDBRANCH  14  19
ENDBRANCH   8  14
BRANCH  10  32
HETATM   32  N8  UNL     1      53.753   8.868  28.459  1.00  0.00    -0.326 N
HETATM   33  C16 UNL     1      53.204   7.987  27.457  1.00  0.00     0.481 C
HETATM   34  N9  UNL     1      51.867   7.611  27.946  1.00  0.00    -0.033 N
HETATM   35  N10 UNL     1      54.038   6.800  27.351  1.00  0.00    -0.033 N
ATOM     36  H93 UNL     1      51.873   7.210  28.884  1.00  0.00     0.278 HD
ATOM     37  H92 UNL     1      51.270   8.410  28.158  1.00  0.00     0.278 HD
ATOM     38  H91 UNL     1      51.479   6.988  27.238  1.00  0.00     0.278 HD
ATOM     39 3H10 UNL     1      55.015   7.030  27.170  1.00  0.00     0.278 HD
ATOM     40 2H10 UNL     1      54.163   6.333  28.249  1.00  0.00     0.278 HD
ATOM     41 1H10 UNL     1      53.650   6.177  26.642  1.00  0.00     0.278 HD
ATOM     42  H8  UNL     1      53.222   8.986  29.322  1.00  0.00     0.165 HD
ENDBRANCH  10  32
BRANCH   4  43
HETATM   43  N3  UNL     1      56.972  13.368  26.967  1.00  0.00    -0.382 N
ATOM     44  H32 UNL     1      56.973  14.342  27.270  1.00  0.00     0.157 HD
ATOM     45  H31 UNL     1      57.809  12.940  26.570  1.00  0.00     0.157 HD
ENDBRANCH   4  43
BRANCH   1  46
HETATM   46  N1  UNL     1      52.441  12.914  26.408  1.00  0.00    -0.233 N
ATOM     47  H12 UNL     1      51.960  12.459  25.633  1.00  0.00     0.174 HD
ATOM     48  H11 UNL     1      51.996  13.721  26.847  1.00  0.00     0.174 HD
ENDBRANCH   1  46
TORSDOF 12
ENDMDL