MODEL 1
REMARK VINA RESULT: -6.113913061      0.000      0.000
REMARK  13 active torsions:
REMARK  status: ('A' for Active; 'I' for Inactive)
REMARK    1  A    between atoms: N1_1  and  C1_4
REMARK    2  A    between atoms: C2_7  and  N3_8
REMARK    3  A    between atoms: N3_8  and  N4_10
REMARK    4  A    between atoms: C4_20  and  C5_21
REMARK    5  A    between atoms: C6_24  and  C7_25
REMARK    6  A    between atoms: C7_25  and  S1_26
REMARK    7  A    between atoms: S1_26  and  C8_27
REMARK    8  A    between atoms: C8_27  and  C9_28
REMARK    9  A    between atoms: C9_28  and  O1_29
REMARK   10  A    between atoms: C9_28  and  C10_31
REMARK   11  A    between atoms: C10_31  and  O2_32
REMARK   12  A    between atoms: C10_31  and  C11_34
REMARK   13  A    between atoms: C11_34  and  O3_35
ROOT
HETATM    1  C1  UNL     1      60.481   7.453  26.655  1.00  0.00     0.130 A
HETATM    2  N2  UNL     1      61.740   7.460  26.193  1.00  0.00    -0.175 N
ATOM      3  H2  UNL     1      62.398   8.152  26.551  1.00  0.00     0.186 HD
HETATM    4  C2  UNL     1      62.157   6.567  25.261  1.00  0.00     0.699 A
HETATM    5  N5  UNL     1      61.322   5.640  24.767  1.00  0.00    -0.173 N
ATOM      6  H5  UNL     1      61.652   4.977  24.067  1.00  0.00     0.186 HD
HETATM    7  C3  UNL     1      60.040   5.589  25.199  1.00  0.00     0.151 A
HETATM    8  N6  UNL     1      59.173   4.680  24.728  1.00  0.00    -0.284 N
ATOM      9  H6  UNL     1      59.492   4.011  24.028  1.00  0.00     0.188 HD
HETATM   10  N7  UNL     1      57.912   4.621  25.144  1.00  0.00    -0.294 N
ATOM     11  H7  UNL     1      57.296   3.908  24.753  1.00  0.00     0.187 HD
HETATM   12  C4  UNL     1      57.426   5.468  26.061  1.00  0.00     0.117 A
HETATM   13  C13 UNL     1      58.282   6.413  26.567  1.00  0.00     0.096 A
HETATM   14  N10 UNL     1      57.836   7.333  27.533  1.00  0.00    -0.099 NA
HETATM   15  C14 UNL     1      59.611   6.510  26.160  1.00  0.00     0.081 A
ENDROOT
BRANCH  12  16
HETATM   16  C5  UNL     1      56.040   5.419  26.522  1.00  0.00     0.136 A
HETATM   17  N8  UNL     1      55.256   6.387  26.976  1.00  0.00    -0.342 N
HETATM   18  C6  UNL     1      54.027   5.883  27.292  1.00  0.00     0.035 A
ATOM     19  H8  UNL     1      55.531   7.364  27.076  1.00  0.00     0.167 HD
HETATM   20  C12 UNL     1      54.074   4.554  27.014  1.00  0.00     0.115 A
HETATM   21  N9  UNL     1      55.318   4.294  26.544  1.00  0.00    -0.348 N
ATOM     22  H9  UNL     1      55.653   3.377  26.250  1.00  0.00     0.167 HD
BRANCH  18  23
HETATM   23  C7  UNL     1      52.894   6.736  27.843  1.00  0.00     0.132 C
BRANCH  23  24
HETATM   24  S1  UNL     1      53.308   8.460  27.744  1.00  0.00    -0.160 SA
BRANCH  24  25
HETATM   25  C8  UNL     1      53.974   9.226  29.193  1.00  0.00     0.108 C
BRANCH  25  26
HETATM   26  C9  UNL     1      55.430   9.487  29.239  1.00  0.00     0.158 C
BRANCH  26  27
HETATM   27  O1  UNL     1      55.885   9.018  30.502  1.00  0.00    -0.392 OA
ATOM     28  H1  UNL     1      56.300   8.178  30.344  1.00  0.00     0.210 HD
ENDBRANCH  26  27
BRANCH  26  29
HETATM   29  C10 UNL     1      55.968  10.831  28.985  1.00  0.00     0.171 C
BRANCH  29  30
HETATM   30  O2  UNL     1      55.129  11.413  27.971  1.00  0.00    -0.391 OA
ATOM     31  H2  UNL     1      55.051  12.334  28.190  1.00  0.00     0.210 HD
ENDBRANCH  29  30
BRANCH  29  32
HETATM   32  C11 UNL     1      57.359  10.854  28.362  1.00  0.00     0.198 C
BRANCH  32  33
HETATM   33  O3  UNL     1      58.195  10.014  29.140  1.00  0.00    -0.398 OA
ATOM     34  H3  UNL     1      58.791  10.570  29.627  1.00  0.00     0.209 HD
ENDBRANCH  32  33
ENDBRANCH  29  32
ENDBRANCH  26  29
ENDBRANCH  25  26
ENDBRANCH  24  25
ENDBRANCH  23  24
ENDBRANCH  18  23
ENDBRANCH  12  16
BRANCH   1  35
HETATM   35  N1  UNL     1      60.053   8.281  27.534  1.00  0.00    -0.384 N
ATOM     36  H12 UNL     1      60.036   7.990  28.512  1.00  0.00     0.157 HD
ATOM     37  H11 UNL     1      59.727   9.220  27.304  1.00  0.00     0.157 HD
ENDBRANCH   1  35
BRANCH   4  38
HETATM   38  N3  UNL     1      63.369   6.591  24.831  1.00  0.00    -0.138 N
ATOM     39  H3  UNL     1      64.068   7.134  25.339  1.00  0.00     0.205 HD
BRANCH  38  40
HETATM   40  N4  UNL     1      63.746   5.897  23.692  1.00  0.00    -0.331 N
ATOM     41  H42 UNL     1      63.062   5.787  22.944  1.00  0.00     0.177 HD
ATOM     42  H41 UNL     1      64.683   5.503  23.594  1.00  0.00     0.177 HD
ENDBRANCH  38  40
ENDBRANCH   4  38
TORSDOF 13
ENDMDL