MODEL 2
REMARK VINA RESULT: -6.924687774      2.155      4.019
REMARK  13 active torsions:
REMARK  status: ('A' for Active; 'I' for Inactive)
REMARK    1  A    between atoms: N1_1  and  C1_4
REMARK    2  A    between atoms: C2_7  and  N3_8
REMARK    3  A    between atoms: C4_14  and  C5_15
REMARK    4  A    between atoms: C5_15  and  O1_16
REMARK    5  A    between atoms: C5_15  and  C6_18
REMARK    6  A    between atoms: C6_18  and  O2_19
REMARK    7  A    between atoms: C6_18  and  C7_21
REMARK    8  A    between atoms: C7_21  and  O3_22
REMARK    9  A    between atoms: N5_24  and  C8_25
REMARK   10  A    between atoms: C8_25  and  C9_26
REMARK   11  A    between atoms: C9_26  and  C10_27
REMARK   12  A    between atoms: C10_27  and  N6_28
REMARK   13  A    between atoms: C13_33  and  N8_34
ROOT
HETATM    1  C1  UNL     1      54.634   5.708  26.937  1.00  0.00     0.679 A
HETATM    2  N2  UNL     1      54.600   4.593  26.184  1.00  0.00    -0.175 N
ATOM      3  H2  UNL     1      53.715   4.123  25.995  1.00  0.00     0.186 HD
HETATM    4  C2  UNL     1      55.745   4.111  25.688  1.00  0.00     0.145 A
HETATM    5  C3  UNL     1      56.925   4.767  25.960  1.00  0.00     0.123 A
HETATM    6  N4  UNL     1      58.198   4.540  25.619  1.00  0.00    -0.337 N
ATOM      7  H4  UNL     1      58.516   3.761  25.043  1.00  0.00     0.167 HD
HETATM    8  C4  UNL     1      59.003   5.490  26.145  1.00  0.00     0.117 A
HETATM    9  N5  UNL     1      58.238   6.348  26.841  1.00  0.00    -0.318 N
HETATM   10  C16 UNL     1      56.955   5.923  26.740  1.00  0.00     0.155 A
HETATM   11  N11 UNL     1      55.778   6.360  27.211  1.00  0.00    -0.174 N
ATOM     12  H11 UNL     1      55.749   7.201  27.787  1.00  0.00     0.186 HD
ENDROOT
BRANCH   9  13
HETATM   13  C8  UNL     1      58.652   7.512  27.563  1.00  0.00     0.133 C
BRANCH  13  14
HETATM   14  C9  UNL     1      58.941   7.321  29.011  1.00  0.00     0.041 C
BRANCH  14  15
HETATM   15  C10 UNL     1      57.811   8.033  29.771  1.00  0.00     0.133 C
BRANCH  15  16
HETATM   16  N6  UNL     1      57.401   9.238  29.119  1.00  0.00    -0.327 N
HETATM   17  C11 UNL     1      58.228  10.219  28.713  1.00  0.00     0.185 A
HETATM   18  N7  UNL     1      57.478  11.199  28.138  1.00  0.00    -0.346 N
HETATM   19  C12 UNL     1      56.187  10.860  28.168  1.00  0.00     0.122 A
ATOM     20  H7  UNL     1      57.848  12.063  27.743  1.00  0.00     0.167 HD
HETATM   21  C13 UNL     1      55.023  11.464  27.738  1.00  0.00     0.131 A
HETATM   22  C15 UNL     1      56.152   9.611  28.795  1.00  0.00     0.140 A
HETATM   23  N9  UNL     1      53.851  10.836  27.927  1.00  0.00    -0.337 N
HETATM   24  C14 UNL     1      53.806   9.617  28.537  1.00  0.00     0.183 A
ATOM     25  H9  UNL     1      52.986  11.275  27.612  1.00  0.00     0.168 HD
HETATM   26  N10 UNL     1      54.947   9.030  28.957  1.00  0.00    -0.336 N
ATOM     27  H10 UNL     1      54.896   8.119  29.411  1.00  0.00     0.168 HD
BRANCH  21  28
HETATM   28  N8  UNL     1      55.054  12.610  27.163  1.00  0.00    -0.383 N
ATOM     29  H82 UNL     1      55.898  12.917  26.680  1.00  0.00     0.157 HD
ATOM     30  H81 UNL     1      54.240  13.224  27.181  1.00  0.00     0.157 HD
ENDBRANCH  21  28
ENDBRANCH  15  16
ENDBRANCH  14  15
ENDBRANCH  13  14
ENDBRANCH   9  13
BRANCH   8  31
HETATM   31  C5  UNL     1      60.462   5.492  25.919  1.00  0.00     0.216 C
BRANCH  31  32
HETATM   32  O1  UNL     1      61.144   6.025  27.043  1.00  0.00    -0.385 OA
ATOM     33  H1  UNL     1      61.891   5.483  27.272  1.00  0.00     0.210 HD
ENDBRANCH  31  32
BRANCH  31  34
HETATM   34  C6  UNL     1      60.856   6.449  24.785  1.00  0.00     0.177 C
BRANCH  34  35
HETATM   35  O2  UNL     1      60.100   6.165  23.680  1.00  0.00    -0.390 OA
ATOM     36  H2  UNL     1      60.356   6.747  22.973  1.00  0.00     0.210 HD
ENDBRANCH  34  35
BRANCH  34  37
HETATM   37  C7  UNL     1      62.310   6.161  24.439  1.00  0.00     0.198 C
BRANCH  37  38
HETATM   38  O3  UNL     1      63.165   7.084  24.991  1.00  0.00    -0.398 OA
ATOM     39  H3  UNL     1      63.008   7.960  24.659  1.00  0.00     0.209 HD
ENDBRANCH  37  38
ENDBRANCH  34  37
ENDBRANCH  31  34
ENDBRANCH   8  31
BRANCH   4  40
HETATM   40  N3  UNL     1      55.721   3.049  24.971  1.00  0.00    -0.383 N
ATOM     41  H32 UNL     1      55.056   2.939  24.205  1.00  0.00     0.157 HD
ATOM     42  H31 UNL     1      56.380   2.296  25.172  1.00  0.00     0.157 HD
ENDBRANCH   4  40
BRANCH   1  43
HETATM   43  N1  UNL     1      53.494   6.126  27.388  1.00  0.00    -0.234 N
ATOM     44  H12 UNL     1      52.652   5.555  27.316  1.00  0.00     0.174 HD
ATOM     45  H11 UNL     1      53.493   7.052  27.815  1.00  0.00     0.174 HD
ENDBRANCH   1  43
TORSDOF 13
ENDMDL