MODEL 1
REMARK VINA RESULT: -8.660640881      0.000      0.000
REMARK  10 active torsions:
REMARK  status: ('A' for Active; 'I' for Inactive)
REMARK    1  A    between atoms: C7_13  and  N4_14
REMARK    2  A    between atoms: N4_14  and  C8_16
REMARK    3  A    between atoms: C8_16  and  O3_17
REMARK    4  A    between atoms: C8_16  and  C9_19
REMARK    5  A    between atoms: C10_20  and  N5_21
REMARK    6  A    between atoms: N5_21  and  N6_23
REMARK    7  A    between atoms: N6_23  and  C11_24
REMARK    8  A    between atoms: C11_24  and  C12_25
REMARK    9  A    between atoms: C12_25  and  O4_26
REMARK   10  A    between atoms: C13_30  and  N8_31
ROOT
HETATM    1  C8  UNL     1      56.447   8.882  29.534  1.00  0.00     0.263 C
ENDROOT
BRANCH   1   2
HETATM    2  N4  UNL     1      57.834   9.072  29.754  1.00  0.00    -0.341 N
ATOM      3  H4  UNL     1      58.158   9.717  30.474  1.00  0.00     0.164 HD
BRANCH   2   4
HETATM    4  C7  UNL     1      58.762   8.359  28.966  1.00  0.00     0.174 C
HETATM    5  C6  UNL     1      60.093   8.695  29.062  1.00  0.00     0.292 C
HETATM    6  N3  UNL     1      61.103   8.498  28.172  1.00  0.00    -0.286 N
HETATM    7  O2  UNL     1      60.395   9.261  30.132  1.00  0.00    -0.264 OA
HETATM    8  C5  UNL     1      61.019   7.892  26.960  1.00  0.00     0.264 C
ATOM      9  H3  UNL     1      62.023   8.844  28.445  1.00  0.00     0.172 HD
HETATM   10  C4  UNL     1      60.042   7.030  26.494  1.00  0.00     0.102 A
HETATM   11  O1  UNL     1      61.947   8.149  26.160  1.00  0.00    -0.267 OA
HETATM   12  C3  UNL     1      60.143   6.229  25.379  1.00  0.00     0.081 A
HETATM   13  C15 UNL     1      58.794   6.808  27.045  1.00  0.00     0.126 A
HETATM   14  C2  UNL     1      58.944   5.537  25.281  1.00  0.00     0.119 A
HETATM   15  N2  UNL     1      61.273   6.169  24.538  1.00  0.00    -0.100 NA
HETATM   16  N1  UNL     1      58.145   5.901  26.297  1.00  0.00    -0.345 N
HETATM   17  C1  UNL     1      56.813   5.392  26.526  1.00  0.00     0.157 C
HETATM   18  N10 UNL     1      58.265   7.382  28.157  1.00  0.00    -0.323 N
ATOM     19  H10 UNL     1      57.350   7.025  28.430  1.00  0.00     0.169 HD
ENDBRANCH   2   4
ENDBRANCH   1   2
BRANCH   1  20
HETATM   20  O3  UNL     1      55.854   8.828  30.825  1.00  0.00    -0.372 OA
ATOM     21  H3  UNL     1      55.681   7.909  30.992  1.00  0.00     0.212 HD
ENDBRANCH   1  20
BRANCH   1  22
HETATM   22  C9  UNL     1      55.726   9.875  28.764  1.00  0.00     0.104 A
HETATM   23  C10 UNL     1      56.194  11.080  28.307  1.00  0.00     0.148 A
HETATM   24  N7  UNL     1      55.435  11.911  27.557  1.00  0.00    -0.175 N
HETATM   25  C13 UNL     1      54.189  11.575  27.238  1.00  0.00     0.680 A
ATOM     26  H7  UNL     1      55.820  12.799  27.234  1.00  0.00     0.186 HD
HETATM   27  N9  UNL     1      53.678  10.407  27.659  1.00  0.00    -0.156 N
HETATM   28  C14 UNL     1      54.408   9.564  28.403  1.00  0.00     0.274 A
ATOM     29  H9  UNL     1      52.721  10.158  27.409  1.00  0.00     0.187 HD
HETATM   30  O5  UNL     1      53.867   8.488  28.764  1.00  0.00    -0.267 OA
BRANCH  23  31
HETATM   31  N5  UNL     1      57.486  11.489  28.664  1.00  0.00    -0.288 N
ATOM     32  H5  UNL     1      58.300  10.991  28.301  1.00  0.00     0.184 HD
BRANCH  31  33
HETATM   33  N6  UNL     1      57.655  12.579  29.514  1.00  0.00    -0.138 NA
BRANCH  33  34
HETATM   34  C11 UNL     1      57.685  12.165  30.908  1.00  0.00     0.161 C
BRANCH  34  35
HETATM   35  C12 UNL     1      58.365  13.186  31.785  1.00  0.00     0.181 C
BRANCH  35  36
HETATM   36  O4  UNL     1      57.428  13.964  32.425  1.00  0.00    -0.400 OA
ATOM     37  H4  UNL     1      57.584  14.882  32.243  1.00  0.00     0.209 HD
ENDBRANCH  35  36
ENDBRANCH  34  35
ENDBRANCH  33  34
ENDBRANCH  31  33
ENDBRANCH  23  31
BRANCH  25  38
HETATM   38  N8  UNL     1      53.439  12.365  26.511  1.00  0.00    -0.234 N
ATOM     39  H82 UNL     1      52.714  12.914  26.974  1.00  0.00     0.174 HD
ATOM     40  H81 UNL     1      53.570  12.436  25.502  1.00  0.00     0.174 HD
ENDBRANCH  25  38
ENDBRANCH   1  22
TORSDOF 10
ENDMDL