MODEL 2
REMARK VINA RESULT: -10.033859841      1.509      3.020
REMARK  3 active torsions:
REMARK  status: ('A' for Active; 'I' for Inactive)
REMARK    1  A    between atoms: C9_9  and  C10_10
REMARK    2  A    between atoms: C10_10  and  C11_11
REMARK    3  A    between atoms: C11_11  and  C13_13
ROOT
HETATM    1  C1  UNL     1      40.019  21.339  99.773  1.00  0.00     0.012 C
HETATM    2  C2  UNL     1      40.884  21.310 101.008  1.00  0.00     0.004 C
HETATM    3  C3  UNL     1      40.272  22.097 102.146  1.00  0.00     0.006 C
HETATM    4  C4  UNL     1      39.985  23.511 101.708  1.00  0.00     0.001 C
HETATM    5  C5  UNL     1      41.168  24.166 101.037  1.00  0.00     0.007 C
HETATM    6  C6  UNL     1      42.388  23.302 101.206  1.00  0.00     0.013 C
HETATM    7  C7  UNL     1      43.582  23.967 100.572  1.00  0.00     0.050 C
HETATM    8  C8  UNL     1      44.701  22.986 100.332  1.00  0.00     0.006 C
HETATM    9  C9  UNL     1      45.667  23.277  99.513  1.00  0.00    -0.014 C
HETATM   10  C23 UNL     1      44.604  21.745 101.084  1.00  0.00     0.247 C
HETATM   11  O1  UNL     1      45.632  21.274 101.616  1.00  0.00    -0.268 OA
HETATM   12  N1  UNL     1      43.331  21.116 101.184  1.00  0.00    -0.352 N
ATOM     13  H1  UNL     1      43.207  20.184 101.579  1.00  0.00     0.163 HD
HETATM   14  C24 UNL     1      42.208  21.918 100.673  1.00  0.00     0.092 C
ENDROOT
BRANCH   9  15
HETATM   15  C10 UNL     1      46.822  22.460  99.158  1.00  0.00     0.033 C
BRANCH  15  16
HETATM   16  C11 UNL     1      46.783  22.121  97.667  1.00  0.00    -0.007 C
HETATM   17  C12 UNL     1      46.058  23.225  96.970  1.00  0.00     0.011 C
BRANCH  16  18
HETATM   18  C13 UNL     1      46.153  20.776  97.425  1.00  0.00    -0.036 C
HETATM   19  C14 UNL     1      46.498  20.179  96.095  1.00  0.00     0.014 C
HETATM   20  C15 UNL     1      45.824  18.826  96.007  1.00  0.00    -0.013 C
HETATM   21  C16 UNL     1      46.332  17.866  97.055  1.00  0.00     0.009 C
HETATM   22  C20 UNL     1      44.332  18.906  96.130  1.00  0.00     0.009 C
HETATM   23  C17 UNL     1      46.031  18.476  98.413  1.00  0.00    -0.013 C
HETATM   24  C18 UNL     1      44.553  18.655  98.608  1.00  0.00     0.009 C
HETATM   25  C22 UNL     1      46.675  19.840  98.497  1.00  0.00     0.014 C
HETATM   26  C19 UNL     1      44.018  19.508  97.487  1.00  0.00    -0.013 C
HETATM   27  C21 UNL     1      44.651  20.889  97.511  1.00  0.00     0.014 C
ENDBRANCH  16  18
ENDBRANCH  15  16
ENDBRANCH   9  15
TORSDOF 3
ENDMDL