MODEL 1
REMARK VINA RESULT: -10.866859125      0.000      0.000
REMARK  3 active torsions:
REMARK  status: ('A' for Active; 'I' for Inactive)
REMARK    1  A    between atoms: C14_15  and  C15_16
REMARK       I    between atoms: C15_16  and  N1_18
REMARK    2  A    between atoms: N1_18  and  C16_20
REMARK    3  A    between atoms: C16_20  and  C17_21
ROOT
HETATM    1  O1  UNL     1      46.075  21.987 100.847  1.00  0.00    -0.297 OA
HETATM    2  C1  UNL     1      45.100  21.998 100.119  1.00  0.00     0.140 C
HETATM    3  C2  UNL     1      45.336  22.371  98.703  1.00  0.00     0.079 C
HETATM    4  C3  UNL     1      46.809  22.186  98.333  1.00  0.00     0.007 C
HETATM    5  C4  UNL     1      47.296  20.833  98.719  1.00  0.00     0.000 C
HETATM    6  C5  UNL     1      47.839  20.020  97.566  1.00  0.00     0.000 C
HETATM    7  C6  UNL     1      46.816  19.348  96.745  1.00  0.00     0.000 C
HETATM    8  C7  UNL     1      46.427  17.950  97.085  1.00  0.00     0.000 C
HETATM    9  C8  UNL     1      46.603  17.472  98.447  1.00  0.00     0.000 C
HETATM   10  C9  UNL     1      45.432  17.317  99.344  1.00  0.00     0.000 C
HETATM   11  C10 UNL     1      44.079  17.367  98.765  1.00  0.00     0.000 C
HETATM   12  C11 UNL     1      43.436  18.725  98.690  1.00  0.00     0.000 C
HETATM   13  C12 UNL     1      43.093  19.328 100.024  1.00  0.00     0.001 C
HETATM   14  C13 UNL     1      42.913  20.818  99.797  1.00  0.00     0.022 C
HETATM   15  C14 UNL     1      43.799  21.652 100.682  1.00  0.00     0.147 C
ENDROOT
BRANCH  15  16
HETATM   16  C15 UNL     1      43.061  22.901 101.040  1.00  0.00     0.229 C
HETATM   17  O2  UNL     1      43.727  23.846 101.526  1.00  0.00    -0.273 OA
HETATM   18  N1  UNL     1      41.680  23.052 100.854  1.00  0.00    -0.360 N
ATOM     19  H1  UNL     1      41.128  22.290 100.460  1.00  0.00     0.162 HD
BRANCH  18  20
HETATM   20  C16 UNL     1      41.045  24.296 101.227  1.00  0.00     0.127 C
BRANCH  20  21
HETATM   21  C17 UNL     1      39.786  24.033 102.008  1.00  0.00     0.003 C
HETATM   22  C18 UNL     1      39.236  25.340 102.538  1.00  0.00     0.006 C
HETATM   23  C19 UNL     1      37.911  25.037 103.195  1.00  0.00     0.000 C
HETATM   24  C20 UNL     1      37.678  23.560 103.371  1.00  0.00     0.000 C
HETATM   25  C21 UNL     1      38.872  22.839 103.942  1.00  0.00     0.000 C
HETATM   26  C22 UNL     1      40.155  23.200 103.241  1.00  0.00     0.006 C
ENDBRANCH  20  21
ENDBRANCH  18  20
ENDBRANCH  15  16
TORSDOF 3
ENDMDL