MODEL 1
REMARK VINA RESULT: -8.192090179      0.000      0.000
REMARK  5 active torsions:
REMARK  status: ('A' for Active; 'I' for Inactive)
REMARK    1  A    between atoms: C7_7  and  O1_8
REMARK    2  A    between atoms: C14_16  and  C15_17
REMARK    3  A    between atoms: C15_17  and  C16_18
REMARK    4  A    between atoms: C15_17  and  C20_22
REMARK    5  A    between atoms: C16_18  and  C17_19
ROOT
HETATM    1  C1  UNL     1      41.401  19.955 101.226  1.00  0.00     0.021 C
HETATM    2  C2  UNL     1      41.819  21.292 100.666  1.00  0.00    -0.013 C
HETATM    3  C3  UNL     1      40.770  21.800  99.728  1.00  0.00     0.041 C
HETATM    4  C4  UNL     1      39.630  22.517 100.319  1.00  0.00    -0.022 C
HETATM    5  C5  UNL     1      39.387  22.733 101.572  1.00  0.00    -0.077 C
HETATM    6  C6  UNL     1      38.211  23.463 102.068  1.00  0.00     0.065 C
HETATM    7  C7  UNL     1      38.560  24.552 103.020  1.00  0.00     0.122 C
HETATM    8  C8  UNL     1      39.919  24.413 103.623  1.00  0.00     0.032 C
HETATM    9  C9  UNL     1      40.367  22.989 103.801  1.00  0.00     0.012 C
HETATM   10  C10 UNL     1      40.373  22.200 102.543  1.00  0.00     0.019 C
HETATM   11  C11 UNL     1      41.686  22.235 101.910  1.00  0.00     0.007 C
HETATM   12  C12 UNL     1      42.208  23.492 101.351  1.00  0.00     0.011 C
HETATM   13  C13 UNL     1      43.187  23.080 100.241  1.00  0.00     0.036 C
HETATM   14  C14 UNL     1      43.203  21.537 100.432  1.00  0.00    -0.064 C
ENDROOT
BRANCH  14  15
HETATM   15  C15 UNL     1      44.260  20.879  99.701  1.00  0.00    -0.051 C
BRANCH  15  16
HETATM   16  C16 UNL     1      45.609  21.362  99.532  1.00  0.00    -0.014 C
BRANCH  16  17
HETATM   17  C17 UNL     1      46.178  22.631  99.206  1.00  0.00     0.009 A
HETATM   18  C18 UNL     1      47.237  22.650  98.053  1.00  0.00     0.009 A
HETATM   19  C19 UNL     1      46.115  23.603  98.147  1.00  0.00     0.009 A
ENDBRANCH  16  17
ENDBRANCH  15  16
BRANCH  15  20
HETATM   20  C20 UNL     1      43.762  19.987  98.546  1.00  0.00     0.041 C
HETATM   21  C21 UNL     1      44.687  20.054  97.376  1.00  0.00    -0.021 C
HETATM   22  C22 UNL     1      45.712  19.204  97.276  1.00  0.00    -0.030 C
HETATM   23  C23 UNL     1      46.068  18.145  98.230  1.00  0.00     0.027 C
HETATM   24  C24 UNL     1      44.988  17.874  99.226  1.00  0.00     0.005 C
HETATM   25  C25 UNL     1      43.704  18.541  98.853  1.00  0.00     0.013 C
ENDBRANCH  15  20
ENDBRANCH  14  15
BRANCH   7  26
HETATM   26  O1  UNL     1      38.487  25.796 102.391  1.00  0.00    -0.395 OA
ATOM     27  H1  UNL     1      39.356  26.107 102.166  1.00  0.00     0.210 HD
ENDBRANCH   7  26
TORSDOF 5
ENDMDL