MODEL 2
REMARK VINA RESULT: -8.190122453      3.187      8.143
REMARK  4 active torsions:
REMARK  status: ('A' for Active; 'I' for Inactive)
REMARK    1  A    between atoms: C2_2  and  C5_5
REMARK    2  A    between atoms: C5_5  and  C6_6
REMARK    3  A    between atoms: C6_6  and  C7_7
REMARK    4  A    between atoms: C19_19  and  O1_20
ROOT
HETATM    1  C7  UNL     1      44.488  21.246  99.892  1.00  0.00     0.015 C
HETATM    2  C8  UNL     1      45.505  22.337  99.872  1.00  0.00     0.009 C
HETATM    3  C9  UNL     1      45.514  23.070 101.201  1.00  0.00     0.005 C
HETATM    4  C10 UNL     1      44.183  23.767 101.322  1.00  0.00     0.035 C
HETATM    5  C11 UNL     1      43.049  22.853 101.017  1.00  0.00    -0.072 C
HETATM    6  C12 UNL     1      43.156  21.710 100.374  1.00  0.00    -0.073 C
HETATM    7  C13 UNL     1      42.010  20.811 100.079  1.00  0.00     0.035 C
HETATM    8  C14 UNL     1      40.778  21.109 100.856  1.00  0.00     0.010 C
HETATM    9  C15 UNL     1      41.002  22.060 102.005  1.00  0.00     0.002 C
HETATM   10  C16 UNL     1      39.701  22.419 102.638  1.00  0.00     0.019 C
HETATM   11  C17 UNL     1      39.935  22.917 104.069  1.00  0.00     0.012 C
HETATM   12  C18 UNL     1      38.596  23.199 104.681  1.00  0.00     0.032 C
HETATM   13  C19 UNL     1      37.892  24.308 103.927  1.00  0.00     0.122 C
HETATM   14  C20 UNL     1      37.650  23.904 102.468  1.00  0.00     0.065 C
HETATM   15  C21 UNL     1      39.016  23.550 101.932  1.00  0.00    -0.077 C
HETATM   16  C22 UNL     1      39.540  24.200 100.920  1.00  0.00    -0.023 C
HETATM   17  C23 UNL     1      40.886  23.882 100.357  1.00  0.00     0.036 C
HETATM   18  C24 UNL     1      41.698  23.271 101.476  1.00  0.00     0.023 C
ENDROOT
BRANCH   1  19
HETATM   19  C6  UNL     1      44.376  20.561  98.544  1.00  0.00     0.010 C
BRANCH  19  20
HETATM   20  C5  UNL     1      45.538  19.615  98.369  1.00  0.00     0.009 C
BRANCH  20  21
HETATM   21  C2  UNL     1      45.071  18.210  98.043  1.00  0.00    -0.051 C
HETATM   22  C1  UNL     1      46.264  17.292  98.219  1.00  0.00     0.014 C
HETATM   23  C3  UNL     1      44.006  17.803  99.021  1.00  0.00     0.014 C
HETATM   24  C4  UNL     1      44.595  18.155  96.607  1.00  0.00     0.014 C
ENDBRANCH  20  21
ENDBRANCH  19  20
ENDBRANCH   1  19
BRANCH  13  25
HETATM   25  O1  UNL     1      38.767  25.393 103.885  1.00  0.00    -0.395 OA
ATOM     26  H1  UNL     1      38.350  26.105 104.354  1.00  0.00     0.210 HD
ENDBRANCH  13  25
TORSDOF 4
ENDMDL