MODEL 5
REMARK VINA RESULT: -7.461839738      1.174      3.217
REMARK  3 active torsions:
REMARK  status: ('A' for Active; 'I' for Inactive)
REMARK    1  A    between atoms: C3_3  and  N1_4
REMARK    2  A    between atoms: N1_4  and  C4_6
REMARK    3  A    between atoms: C23_25  and  C24_26
ROOT
HETATM    1  C1  UNL     1      42.946  20.513  98.711  1.00  0.00     0.017 C
HETATM    2  C2  UNL     1      43.911  20.662  99.555  1.00  0.00    -0.062 C
HETATM    3  C3  UNL     1      43.753  21.420 100.816  1.00  0.00     0.109 C
HETATM    4  C14 UNL     1      44.485  22.718 100.576  1.00  0.00     0.064 C
HETATM    5  C15 UNL     1      45.391  22.589  99.381  1.00  0.00    -0.071 C
HETATM    6  C16 UNL     1      45.463  23.619  98.516  1.00  0.00    -0.081 C
HETATM    7  C17 UNL     1      44.680  24.860  98.708  1.00  0.00     0.043 C
HETATM    8  C18 UNL     1      46.369  23.523  97.340  1.00  0.00     0.038 C
HETATM    9  C19 UNL     1      47.603  22.779  97.884  1.00  0.00    -0.014 C
HETATM   10  C20 UNL     1      48.755  22.828  96.932  1.00  0.00     0.010 C
HETATM   11  C21 UNL     1      47.089  21.337  98.058  1.00  0.00     0.014 C
HETATM   12  C22 UNL     1      46.167  21.329  99.221  1.00  0.00     0.023 C
HETATM   13  C23 UNL     1      45.272  20.114  99.329  1.00  0.00     0.023 C
ENDROOT
BRANCH   3  14
HETATM   14  N1  UNL     1      42.420  21.673 101.234  1.00  0.00    -0.408 N
ATOM     15  H1  UNL     1      41.784  20.920 101.495  1.00  0.00     0.154 HD
BRANCH  14  16
HETATM   16  C4  UNL     1      42.028  23.036 101.266  1.00  0.00     0.085 C
HETATM   17  C5  UNL     1      40.856  23.308 100.319  1.00  0.00     0.009 C
HETATM   18  C6  UNL     1      39.613  22.572 100.751  1.00  0.00     0.011 C
HETATM   19  C10 UNL     1      40.558  24.798 100.391  1.00  0.00     0.011 C
HETATM   20  C7  UNL     1      39.198  22.981 102.148  1.00  0.00    -0.013 C
HETATM   21  C8  UNL     1      38.898  24.456 102.163  1.00  0.00     0.009 C
HETATM   22  C13 UNL     1      40.334  22.644 103.084  1.00  0.00     0.011 C
HETATM   23  C9  UNL     1      40.150  25.213 101.792  1.00  0.00    -0.013 C
HETATM   24  C11 UNL     1      41.284  24.902 102.719  1.00  0.00     0.011 C
HETATM   25  C12 UNL     1      41.558  23.403 102.650  1.00  0.00     0.009 C
ENDBRANCH  14  16
ENDBRANCH   3  14
BRANCH  13  26
HETATM   26  C24 UNL     1      45.320  19.157  98.194  1.00  0.00     0.005 C
HETATM   27  C25 UNL     1      45.737  17.757  98.526  1.00  0.00     0.006 C
ENDBRANCH  13  26
TORSDOF 3
ENDMDL