MODEL 4
REMARK VINA RESULT: -8.939937417      1.071      1.267
REMARK  4 active torsions:
REMARK  status: ('A' for Active; 'I' for Inactive)
REMARK    1  A    between atoms: C9_9  and  C10_10
REMARK    2  A    between atoms: C10_10  and  C11_11
REMARK    3  A    between atoms: C11_11  and  C12_12
REMARK    4  A    between atoms: C21_21  and  O1_22
ROOT
HETATM    1  C1  UNL     1      47.945  22.604  98.990  1.00  0.00     0.019 C
HETATM    2  C2  UNL     1      47.411  21.969  97.966  1.00  0.00    -0.067 C
HETATM    3  C3  UNL     1      48.230  21.211  97.032  1.00  0.00     0.002 C
HETATM    4  C4  UNL     1      47.683  20.172  96.446  1.00  0.00    -0.021 C
HETATM    5  C5  UNL     1      46.291  19.801  96.734  1.00  0.00     0.017 C
HETATM    6  C6  UNL     1      45.392  20.947  96.944  1.00  0.00    -0.002 C
HETATM    7  C7  UNL     1      45.938  22.059  97.797  1.00  0.00     0.043 C
HETATM    8  C8  UNL     1      44.032  20.564  97.471  1.00  0.00     0.011 C
HETATM    9  C9  UNL     1      44.184  19.653  98.666  1.00  0.00    -0.003 C
HETATM   10  C19 UNL     1      44.965  18.430  98.403  1.00  0.00    -0.010 C
HETATM   11  C20 UNL     1      45.253  17.784  99.769  1.00  0.00     0.018 C
HETATM   12  C21 UNL     1      44.436  17.383  97.530  1.00  0.00     0.127 C
HETATM   13  C22 UNL     1      45.666  16.474  97.377  1.00  0.00     0.033 C
HETATM   14  C23 UNL     1      46.796  17.442  97.296  1.00  0.00     0.009 C
HETATM   15  C24 UNL     1      46.304  18.771  97.823  1.00  0.00     0.004 C
ENDROOT
BRANCH   9  16
HETATM   16  C10 UNL     1      42.957  19.528  99.488  1.00  0.00     0.006 C
BRANCH  16  17
HETATM   17  C11 UNL     1      43.063  19.729 100.952  1.00  0.00     0.005 C
BRANCH  17  18
HETATM   18  C12 UNL     1      42.165  20.940 101.284  1.00  0.00    -0.014 C
HETATM   19  C13 UNL     1      42.938  22.200 101.303  1.00  0.00     0.004 C
HETATM   20  C14 UNL     1      42.285  23.414 100.752  1.00  0.00     0.000 C
HETATM   21  C15 UNL     1      41.183  23.883 101.689  1.00  0.00     0.000 C
HETATM   22  C16 UNL     1      40.166  22.796 101.867  1.00  0.00     0.000 C
HETATM   23  C17 UNL     1      40.015  22.077 100.566  1.00  0.00     0.000 C
HETATM   24  C18 UNL     1      40.909  20.910 100.497  1.00  0.00     0.004 C
ENDBRANCH  17  18
ENDBRANCH  16  17
ENDBRANCH   9  16
BRANCH  12  25
HETATM   25  O1  UNL     1      44.066  17.740  96.261  1.00  0.00    -0.395 OA
ATOM     26  H1  UNL     1      44.167  17.092  95.573  1.00  0.00     0.210 HD
ENDBRANCH  12  25
TORSDOF 4
ENDMDL