MODEL 4
REMARK VINA RESULT: -8.831501811      1.636      3.865
REMARK  3 active torsions:
REMARK  status: ('A' for Active; 'I' for Inactive)
REMARK    1  A    between atoms: C1_2  and  C2_3
REMARK       I    between atoms: C1_2  and  N1_20
REMARK    2  A    between atoms: C5_6  and  C6_7
REMARK    3  A    between atoms: C5_6  and  C12_13
ROOT
HETATM    1  C2  UNL     1      43.662  21.801 100.634  1.00  0.00     0.078 C
HETATM    2  C3  UNL     1      42.639  21.143  99.747  1.00  0.00     0.015 C
HETATM    3  C4  UNL     1      43.070  19.904  99.097  1.00  0.00     0.011 C
HETATM    4  C5  UNL     1      44.473  19.846  98.585  1.00  0.00    -0.033 C
HETATM    5  C17 UNL     1      45.428  20.776  99.351  1.00  0.00     0.011 C
HETATM    6  C18 UNL     1      44.833  22.089  99.710  1.00  0.00     0.015 C
ENDROOT
BRANCH   4   7
HETATM    7  C6  UNL     1      45.038  18.490  98.779  1.00  0.00    -0.006 C
HETATM    8  C7  UNL     1      44.196  17.437  98.079  1.00  0.00     0.005 C
HETATM    9  C8  UNL     1      44.226  16.185  98.931  1.00  0.00     0.000 C
HETATM   10  C9  UNL     1      45.680  16.024  99.361  1.00  0.00     0.000 C
HETATM   11  C10 UNL     1      46.632  16.700  98.416  1.00  0.00     0.000 C
HETATM   12  C11 UNL     1      46.432  18.223  98.379  1.00  0.00     0.005 C
ENDBRANCH   4   7
BRANCH   4  13
HETATM   13  C12 UNL     1      44.507  20.403  97.194  1.00  0.00    -0.006 C
HETATM   14  C13 UNL     1      44.115  19.537  96.076  1.00  0.00     0.005 C
HETATM   15  C14 UNL     1      45.121  19.720  94.938  1.00  0.00     0.000 C
HETATM   16  C15 UNL     1      46.011  20.847  95.335  1.00  0.00     0.000 C
HETATM   17  C16 UNL     1      45.818  21.051  96.830  1.00  0.00     0.005 C
ENDBRANCH   4  13
BRANCH   1  18
HETATM   18  C1  UNL     1      43.107  23.007 101.272  1.00  0.00     0.224 C
HETATM   19  O1  UNL     1      43.959  23.849 101.715  1.00  0.00    -0.273 OA
HETATM   20  N1  UNL     1      41.735  23.298 101.431  1.00  0.00    -0.352 N
HETATM   21  C19 UNL     1      41.362  24.532 102.107  1.00  0.00     0.125 C
HETATM   22  C23 UNL     1      40.638  22.481 100.969  1.00  0.00     0.125 C
HETATM   23  C20 UNL     1      39.864  24.595 102.209  1.00  0.00     0.020 C
HETATM   24  C21 UNL     1      39.287  23.346 102.832  1.00  0.00     0.003 C
HETATM   25  C22 UNL     1      39.836  22.082 102.213  1.00  0.00     0.020 C
ENDBRANCH   1  18
TORSDOF 3
ENDMDL