MODEL 3
REMARK VINA RESULT: -8.992012914      2.233      4.259
REMARK  4 active torsions:
REMARK  status: ('A' for Active; 'I' for Inactive)
REMARK    1  A    between atoms: C4_4  and  C5_5
REMARK    2  A    between atoms: C14_14  and  C15_15
REMARK    3  A    between atoms: C15_15  and  C17_17
REMARK    4  A    between atoms: C24_24  and  O1_25
ROOT
HETATM    1  C5  UNL     1      43.753  22.591 100.560  1.00  0.00     0.004 C
HETATM    2  C6  UNL     1      44.663  21.879  99.933  1.00  0.00    -0.075 C
HETATM    3  C7  UNL     1      46.050  22.389  99.865  1.00  0.00     0.034 C
HETATM    4  C8  UNL     1      46.763  21.951  98.627  1.00  0.00     0.005 C
HETATM    5  C9  UNL     1      46.544  20.539  98.222  1.00  0.00     0.006 C
HETATM    6  C10 UNL     1      45.590  19.753  99.045  1.00  0.00    -0.002 C
HETATM    7  C11 UNL     1      44.343  20.610  99.310  1.00  0.00     0.019 C
HETATM    8  C12 UNL     1      43.765  20.707  97.929  1.00  0.00     0.010 C
HETATM    9  C13 UNL     1      44.060  19.344  97.325  1.00  0.00     0.006 C
HETATM   10  C14 UNL     1      44.936  18.620  98.308  1.00  0.00    -0.006 C
ENDROOT
BRANCH   1  11
HETATM   11  C4  UNL     1      42.374  22.150 100.663  1.00  0.00     0.008 C
HETATM   12  C3  UNL     1      41.428  22.852 101.254  1.00  0.00    -0.050 C
HETATM   13  C2  UNL     1      40.048  22.400 101.354  1.00  0.00    -0.033 C
HETATM   14  C20 UNL     1      41.813  24.175 101.846  1.00  0.00     0.043 C
HETATM   15  C1  UNL     1      39.587  21.616 100.391  1.00  0.00     0.022 C
HETATM   16  C24 UNL     1      39.154  22.782 102.477  1.00  0.00     0.151 C
HETATM   17  C23 UNL     1      39.886  23.717 103.392  1.00  0.00     0.041 C
HETATM   18  C21 UNL     1      40.690  24.763 102.661  1.00  0.00    -0.012 C
HETATM   19  C22 UNL     1      39.868  25.649 101.785  1.00  0.00     0.010 C
BRANCH  16  20
HETATM   20  O1  UNL     1      37.953  23.322 102.026  1.00  0.00    -0.391 OA
ATOM     21  H1  UNL     1      37.369  23.539 102.744  1.00  0.00     0.210 HD
ENDBRANCH  16  20
ENDBRANCH   1  11
BRANCH  10  22
HETATM   22  C15 UNL     1      45.890  17.680  97.647  1.00  0.00    -0.011 C
HETATM   23  C16 UNL     1      45.607  17.701  96.160  1.00  0.00     0.011 C
BRANCH  22  24
HETATM   24  C17 UNL     1      45.756  16.260  98.122  1.00  0.00    -0.019 C
HETATM   25  C18 UNL     1      46.450  16.037  99.449  1.00  0.00     0.010 C
HETATM   26  C19 UNL     1      44.271  16.009  98.359  1.00  0.00     0.010 C
ENDBRANCH  22  24
ENDBRANCH  10  22
TORSDOF 4
ENDMDL