MODEL 5
REMARK VINA RESULT: -9.081167982      1.967      7.420
REMARK  3 active torsions:
REMARK  status: ('A' for Active; 'I' for Inactive)
REMARK    1  A    between atoms: C6_6  and  N1_7
REMARK    2  A    between atoms: N1_7  and  C7_9
REMARK    3  A    between atoms: C7_9  and  C8_10
ROOT
HETATM    1  C1  UNL     1      39.877  22.659 102.338  1.00  0.00     0.015 C
HETATM    2  C2  UNL     1      40.606  22.085 101.425  1.00  0.00    -0.080 C
HETATM    3  C3  UNL     1      40.334  20.767 100.769  1.00  0.00     0.068 C
HETATM    4  C4  UNL     1      41.677  20.211 100.516  1.00  0.00    -0.068 C
HETATM    5  C5  UNL     1      42.228  19.088 100.040  1.00  0.00     0.002 C
HETATM    6  C6  UNL     1      43.682  18.937  99.960  1.00  0.00     0.105 C
HETATM    7  C17 UNL     1      44.398  20.205  99.503  1.00  0.00     0.039 C
HETATM    8  C18 UNL     1      43.671  21.445  99.759  1.00  0.00     0.029 C
HETATM    9  C19 UNL     1      44.487  22.617 100.179  1.00  0.00    -0.084 C
HETATM   10  C20 UNL     1      45.704  22.729  99.689  1.00  0.00     0.015 C
HETATM   11  C21 UNL     1      44.012  23.651 101.111  1.00  0.00     0.034 C
HETATM   12  C22 UNL     1      42.581  23.628 101.483  1.00  0.00     0.014 C
HETATM   13  C23 UNL     1      41.844  22.545 100.813  1.00  0.00     0.027 C
HETATM   14  C24 UNL     1      42.674  21.266 100.885  1.00  0.00    -0.006 C
HETATM   15  C25 UNL     1      43.263  21.026 102.219  1.00  0.00     0.021 C
ENDROOT
BRANCH   6  16
HETATM   16  N1  UNL     1      44.196  17.862  99.245  1.00  0.00    -0.391 N
ATOM     17  H1  UNL     1      44.680  17.140  99.779  1.00  0.00     0.159 HD
BRANCH  16  18
HETATM   18  C7  UNL     1      44.113  17.679  97.870  1.00  0.00     0.090 C
BRANCH  18  19
HETATM   19  C8  UNL     1      45.314  18.063  97.092  1.00  0.00    -0.047 C
HETATM   20  C9  UNL     1      46.522  18.113  97.657  1.00  0.00    -0.018 C
HETATM   21  C10 UNL     1      47.744  18.491  96.908  1.00  0.00     0.028 C
HETATM   22  C11 UNL     1      47.859  19.929  96.546  1.00  0.00     0.004 C
HETATM   23  C12 UNL     1      46.919  20.819  97.282  1.00  0.00     0.000 C
HETATM   24  C13 UNL     1      45.978  21.611  96.444  1.00  0.00     0.000 C
HETATM   25  C14 UNL     1      45.417  20.928  95.245  1.00  0.00     0.000 C
HETATM   26  C15 UNL     1      44.462  19.814  95.552  1.00  0.00     0.005 C
HETATM   27  C16 UNL     1      45.127  18.448  95.631  1.00  0.00     0.039 C
ENDBRANCH  18  19
ENDBRANCH  16  18
ENDBRANCH   6  16
TORSDOF 3
ENDMDL