MODEL 2
REMARK VINA RESULT: -6.370964419      2.704      4.693
REMARK  2 active torsions:
REMARK  status: ('A' for Active; 'I' for Inactive)
REMARK    1  A    between atoms: C2_2  and  C3_3
REMARK    2  A    between atoms: C23_23  and  C24_24
ROOT
HETATM    1  C3  UNL     1      44.197  16.572  99.080  1.00  0.00     0.016 C
HETATM    2  C4  UNL     1      45.400  15.618  99.143  1.00  0.00     0.009 C
HETATM    3  C5  UNL     1      46.472  16.599  98.627  1.00  0.00     0.006 C
HETATM    4  C6  UNL     1      45.766  17.046  97.338  1.00  0.00    -0.006 C
HETATM    5  C7  UNL     1      46.384  18.165  96.631  1.00  0.00     0.006 C
HETATM    6  C8  UNL     1      47.538  18.859  97.368  1.00  0.00     0.006 C
HETATM    7  C9  UNL     1      47.919  20.163  96.804  1.00  0.00     0.002 C
HETATM    8  C10 UNL     1      47.192  20.602  95.580  1.00  0.00     0.006 C
HETATM    9  C11 UNL     1      46.104  21.573  96.057  1.00  0.00     0.011 C
HETATM   10  C12 UNL     1      46.338  21.897  97.471  1.00  0.00    -0.026 C
HETATM   11  C13 UNL     1      45.381  21.444  98.512  1.00  0.00     0.011 C
HETATM   12  C14 UNL     1      44.090  20.846  98.187  1.00  0.00     0.001 C
HETATM   13  C15 UNL     1      43.962  19.394  98.694  1.00  0.00     0.001 C
HETATM   14  C16 UNL     1      43.631  18.424  97.613  1.00  0.00     0.010 C
HETATM   15  C17 UNL     1      44.337  17.111  97.679  1.00  0.00    -0.034 C
HETATM   16  C18 UNL     1      43.493  16.159  96.806  1.00  0.00     0.016 C
HETATM   17  C19 UNL     1      46.243  23.430  97.578  1.00  0.00     0.011 C
HETATM   18  C20 UNL     1      47.328  24.187  96.946  1.00  0.00     0.001 C
HETATM   19  C21 UNL     1      48.617  23.751  97.668  1.00  0.00     0.001 C
HETATM   20  C22 UNL     1      48.805  22.355  97.187  1.00  0.00     0.018 C
HETATM   21  C23 UNL     1      47.738  21.381  97.704  1.00  0.00     0.024 C
ENDROOT
BRANCH   1  22
HETATM   22  C2  UNL     1      42.922  15.840  99.308  1.00  0.00    -0.031 C
HETATM   23  C1  UNL     1      41.843  16.423  99.799  1.00  0.00     0.007 C
ENDBRANCH   1  22
BRANCH  21  24
HETATM   24  C24 UNL     1      48.105  21.155  99.100  1.00  0.00     0.241 C
HETATM   25  O1  UNL     1      48.953  20.347  99.378  1.00  0.00    -0.306 OA
ENDBRANCH  21  24
TORSDOF 2
ENDMDL