MODEL 1
REMARK VINA RESULT: -6.184289643      0.000      0.000
REMARK  10 active torsions:
REMARK  status: ('A' for Active; 'I' for Inactive)
REMARK    1  A    between atoms: C2_2  and  C3_3
REMARK    2  A    between atoms: C3_3  and  N1_4
REMARK    3  A    between atoms: C8_13  and  N4_14
REMARK    4  A    between atoms: N4_14  and  C9_16
REMARK    5  A    between atoms: C11_21  and  N7_22
REMARK    6  A    between atoms: N7_22  and  C12_24
REMARK    7  A    between atoms: C12_24  and  C13_25
REMARK    8  A    between atoms: N8_31  and  C18_32
REMARK    9  A    between atoms: C18_32  and  C19_33
REMARK   10  A    between atoms: C19_33  and  C20_34
ROOT
HETATM    1  C9  UNL     1      26.583  25.714  19.042  1.00  0.00     0.690 A
HETATM    2  N5  UNL     1      26.255  25.482  20.320  1.00  0.00    -0.176 N
ATOM      3  H5  UNL     1      26.477  24.569  20.718  1.00  0.00     0.185 HD
HETATM    4  C10 UNL     1      25.647  26.392  21.109  1.00  0.00     0.163 A
HETATM    5  N6  UNL     1      25.323  26.091  22.458  1.00  0.00    -0.080 NA
HETATM    6  C11 UNL     1      25.365  27.613  20.534  1.00  0.00     0.139 A
HETATM    7  C17 UNL     1      25.712  27.845  19.198  1.00  0.00     0.291 A
HETATM    8  O1  UNL     1      25.408  29.002  18.783  1.00  0.00    -0.265 OA
HETATM    9  N8  UNL     1      26.316  26.914  18.440  1.00  0.00    -0.145 N
ENDROOT
BRANCH   1  10
HETATM   10  N4  UNL     1      27.146  24.762  18.382  1.00  0.00    -0.174 N
ATOM     11  H4  UNL     1      28.115  24.912  18.101  1.00  0.00     0.186 HD
BRANCH  10  12
HETATM   12  C8  UNL     1      26.567  23.544  18.012  1.00  0.00     0.150 A
HETATM   13  N3  UNL     1      25.233  23.307  18.228  1.00  0.00    -0.350 N
HETATM   14  C7  UNL     1      24.660  22.148  17.871  1.00  0.00     0.092 A
ATOM     15  H3  UNL     1      24.664  24.029  18.671  1.00  0.00     0.166 HD
HETATM   16  C6  UNL     1      25.383  21.142  17.272  1.00  0.00     0.049 A
HETATM   17  C5  UNL     1      26.700  21.356  17.050  1.00  0.00     0.065 A
HETATM   18  N2  UNL     1      27.658  20.599  16.491  1.00  0.00    -0.350 N
HETATM   19  C22 UNL     1      27.323  22.560  17.414  1.00  0.00     0.111 A
HETATM   20  C4  UNL     1      28.800  21.261  16.496  1.00  0.00     0.188 A
ATOM     21  H2  UNL     1      27.524  19.658  16.120  1.00  0.00     0.166 HD
HETATM   22  N1  UNL     1      28.619  22.483  17.065  1.00  0.00    -0.313 N
BRANCH  22  23
HETATM   23  C3  UNL     1      29.645  23.432  17.234  1.00  0.00     0.097 C
BRANCH  23  24
HETATM   24  C2  UNL     1      30.839  23.210  16.340  1.00  0.00     0.007 C
HETATM   25  C1  UNL     1      31.335  24.170  15.585  1.00  0.00     0.013 C
ENDBRANCH  23  24
ENDBRANCH  22  23
ENDBRANCH  10  12
ENDBRANCH   1  10
BRANCH   9  26
HETATM   26  C18 UNL     1      26.690  27.212  17.108  1.00  0.00     0.151 C
BRANCH  26  27
HETATM   27  C19 UNL     1      27.962  27.867  16.800  1.00  0.00     0.020 C
BRANCH  27  28
HETATM   28  C20 UNL     1      29.191  27.111  16.528  1.00  0.00    -0.003 C
HETATM   29  C21 UNL     1      30.145  27.800  15.622  1.00  0.00     0.005 C
ENDBRANCH  27  28
ENDBRANCH  26  27
ENDBRANCH   9  26
BRANCH   6  30
HETATM   30  N7  UNL     1      24.720  28.619  21.323  1.00  0.00    -0.382 N
ATOM     31  H7  UNL     1      25.296  29.300  21.819  1.00  0.00     0.160 HD
BRANCH  30  32
HETATM   32  C12 UNL     1      23.287  28.707  21.443  1.00  0.00     0.128 C
BRANCH  32  33
HETATM   33  C13 UNL     1      22.947  29.985  22.167  1.00  0.00    -0.035 C
HETATM   34  C14 UNL     1      24.166  30.860  22.361  1.00  0.00     0.016 C
HETATM   35  C15 UNL     1      22.356  29.639  23.517  1.00  0.00     0.016 C
HETATM   36  C16 UNL     1      21.921  30.804  21.416  1.00  0.00     0.016 C
ENDBRANCH  32  33
ENDBRANCH  30  32
ENDBRANCH   6  30
TORSDOF 10
ENDMDL