MODEL 4
REMARK VINA RESULT: -6.857970547      1.921      2.789
REMARK  10 active torsions:
REMARK  status: ('A' for Active; 'I' for Inactive)
REMARK    1  A    between atoms: C6_8  and  S1_9
REMARK    2  A    between atoms: S1_9  and  C7_10
REMARK    3  A    between atoms: C7_10  and  C8_11
REMARK    4  A    between atoms: C8_11  and  O1_12
REMARK    5  A    between atoms: O1_12  and  C9_13
REMARK    6  A    between atoms: C12_16  and  C13_17
REMARK    7  A    between atoms: C13_17  and  C14_18
REMARK    8  A    between atoms: C17_21  and  O2_22
REMARK    9  A    between atoms: C18_24  and  O3_25
REMARK   10  A    between atoms: C19_27  and  O4_28
ROOT
HETATM    1  C9  UNL     1      27.729  30.225  17.803  1.00  0.00     0.156 C
HETATM    2  C10 UNL     1      27.016  30.443  19.105  1.00  0.00     0.020 C
HETATM    3  C11 UNL     1      28.036  30.995  20.081  1.00  0.00     0.013 C
HETATM    4  C12 UNL     1      26.226  29.360  19.685  1.00  0.00     0.024 C
HETATM    5  C17 UNL     1      25.923  28.152  18.858  1.00  0.00     0.154 C
HETATM    6  C18 UNL     1      26.755  28.028  17.616  1.00  0.00     0.178 C
HETATM    7  C19 UNL     1      26.767  29.365  16.930  1.00  0.00     0.178 C
ENDROOT
BRANCH   1   8
HETATM    8  O1  UNL     1      27.949  31.403  17.216  1.00  0.00    -0.382 OA
BRANCH   8   9
HETATM    9  C8  UNL     1      29.010  31.845  16.584  1.00  0.00     0.178 C
BRANCH   9  10
HETATM   10  C7  UNL     1      29.903  32.896  17.131  1.00  0.00     0.107 C
BRANCH  10  11
HETATM   11  S1  UNL     1      31.667  32.581  16.937  1.00  0.00    -0.110 SA
BRANCH  11  12
HETATM   12  C6  UNL     1      32.298  31.619  18.299  1.00  0.00     0.070 A
HETATM   13  C5  UNL     1      31.497  30.898  19.150  1.00  0.00     0.039 A
HETATM   14  C4  UNL     1      31.938  30.156  20.204  1.00  0.00     0.035 A
HETATM   15  C3  UNL     1      33.323  30.103  20.469  1.00  0.00     0.067 A
HETATM   16  N1  UNL     1      33.906  29.448  21.427  1.00  0.00    -0.352 N
HETATM   17  C20 UNL     1      34.116  30.823  19.617  1.00  0.00     0.103 A
HETATM   18  C2  UNL     1      35.220  29.493  21.552  1.00  0.00     0.049 A
ATOM     19  H1  UNL     1      33.349  28.899  22.082  1.00  0.00     0.166 HD
HETATM   20  C1  UNL     1      36.046  28.794  22.603  1.00  0.00     0.076 C
HETATM   21  S2  UNL     1      35.671  30.509  20.256  1.00  0.00    -0.057 SA
HETATM   22  N2  UNL     1      33.628  31.555  18.569  1.00  0.00    -0.343 N
ATOM     23  H2  UNL     1      34.280  32.067  17.975  1.00  0.00     0.167 HD
ENDBRANCH  11  12
ENDBRANCH  10  11
ENDBRANCH   9  10
ENDBRANCH   8   9
ENDBRANCH   1   8
BRANCH   7  24
HETATM   24  O4  UNL     1      25.499  29.916  16.969  1.00  0.00    -0.390 OA
ATOM     25  H4  UNL     1      25.074  29.784  16.129  1.00  0.00     0.210 HD
ENDBRANCH   7  24
BRANCH   4  26
HETATM   26  C13 UNL     1      24.908  29.776  20.304  1.00  0.00     0.012 C
BRANCH  26  27
HETATM   27  C14 UNL     1      24.776  29.551  21.766  1.00  0.00    -0.014 A
HETATM   28  C15 UNL     1      23.832  28.385  22.082  1.00  0.00     0.005 A
HETATM   29  C16 UNL     1      23.420  29.779  22.461  1.00  0.00     0.005 A
ENDBRANCH  26  27
ENDBRANCH   4  26
BRANCH   6  30
HETATM   30  O3  UNL     1      28.002  27.499  17.865  1.00  0.00    -0.390 OA
ATOM     31  H3  UNL     1      28.028  26.556  17.753  1.00  0.00     0.210 HD
ENDBRANCH   6  30
BRANCH   5  32
HETATM   32  O2  UNL     1      26.088  26.974  19.584  1.00  0.00    -0.393 OA
ATOM     33  H2  UNL     1      25.497  26.291  19.287  1.00  0.00     0.210 HD
ENDBRANCH   5  32
TORSDOF 10
ENDMDL