MODEL 4
REMARK VINA RESULT: -6.869485988      4.005      6.358
REMARK  9 active torsions:
REMARK  status: ('A' for Active; 'I' for Inactive)
REMARK    1  A    between atoms: O1_2  and  C2_3
REMARK    2  A    between atoms: C2_3  and  C3_4
REMARK    3  A    between atoms: C8_9  and  C9_10
REMARK    4  A    between atoms: C9_10  and  S1_11
REMARK    5  A    between atoms: S1_11  and  C10_12
REMARK    6  A    between atoms: C10_12  and  C11_13
REMARK    7  A    between atoms: N3_18  and  C12_19
REMARK    8  A    between atoms: C13_25  and  N6_26
REMARK    9  A    between atoms: C14_29  and  C15_30
ROOT
HETATM    1  C11 UNL     1      31.827  30.492  15.564  1.00  0.00     0.065 A
HETATM    2  N1  UNL     1      31.479  29.302  16.008  1.00  0.00    -0.287 N
ATOM      3  H1  UNL     1      32.094  28.489  16.055  1.00  0.00     0.188 HD
HETATM    4  N2  UNL     1      30.235  29.320  16.376  1.00  0.00    -0.234 N
ATOM      5  H2  UNL     1      29.723  28.525  16.758  1.00  0.00     0.209 HD
HETATM    6  N3  UNL     1      29.730  30.540  16.176  1.00  0.00    -0.218 N
HETATM    7  C14 UNL     1      30.699  31.306  15.667  1.00  0.00     0.087 A
ENDROOT
BRANCH   1   8
HETATM    8  C10 UNL     1      33.138  30.890  15.056  1.00  0.00     0.135 C
BRANCH   8   9
HETATM    9  S1  UNL     1      34.296  31.697  16.064  1.00  0.00    -0.163 SA
BRANCH   9  10
HETATM   10  C9  UNL     1      34.987  30.944  17.520  1.00  0.00     0.079 C
BRANCH  10  11
HETATM   11  C8  UNL     1      33.876  30.623  18.518  1.00  0.00     0.001 C
HETATM   12  C3  UNL     1      34.281  29.969  19.764  1.00  0.00     0.014 C
HETATM   13  C4  UNL     1      33.146  30.068  20.784  1.00  0.00     0.007 C
HETATM   14  C5  UNL     1      31.791  30.210  20.134  1.00  0.00     0.000 C
HETATM   15  C6  UNL     1      31.690  31.425  19.248  1.00  0.00     0.000 C
HETATM   16  C7  UNL     1      33.053  31.879  18.768  1.00  0.00     0.006 C
BRANCH  12  17
HETATM   17  C2  UNL     1      35.509  30.482  20.415  1.00  0.00     0.172 C
BRANCH  17  18
HETATM   18  O1  UNL     1      35.462  30.358  21.780  1.00  0.00    -0.396 OA
HETATM   19  C1  UNL     1      36.364  29.454  22.269  1.00  0.00     0.201 C
ENDBRANCH  17  18
ENDBRANCH  12  17
ENDBRANCH  10  11
ENDBRANCH   9  10
ENDBRANCH   8   9
ENDBRANCH   1   8
BRANCH   7  20
HETATM   20  C15 UNL     1      30.692  32.700  15.217  1.00  0.00    -0.049 C
HETATM   21  C16 UNL     1      30.962  33.651  16.358  1.00  0.00     0.036 C
HETATM   22  C17 UNL     1      30.503  35.027  16.028  1.00  0.00     0.004 C
HETATM   23  C18 UNL     1      31.187  35.386  14.695  1.00  0.00     0.001 C
HETATM   24  C19 UNL     1      30.545  34.523  13.629  1.00  0.00     0.004 C
HETATM   25  C20 UNL     1      31.127  33.095  13.883  1.00  0.00     0.036 C
ENDBRANCH   7  20
BRANCH   6  26
HETATM   26  C12 UNL     1      28.351  30.877  16.469  1.00  0.00     0.196 A
HETATM   27  N4  UNL     1      27.400  31.413  15.679  1.00  0.00    -0.220 N
HETATM   28  O2  UNL     1      26.285  31.559  16.362  1.00  0.00    -0.153 OA
ATOM     29  H4  UNL     1      27.526  31.668  14.699  1.00  0.00     0.198 HD
HETATM   30  N5  UNL     1      26.450  31.151  17.565  1.00  0.00    -0.222 N
HETATM   31  C13 UNL     1      27.733  30.707  17.687  1.00  0.00     0.169 A
ATOM     32  H5  UNL     1      25.745  31.158  18.302  1.00  0.00     0.198 HD
BRANCH  31  33
HETATM   33  N6  UNL     1      28.172  30.230  18.788  1.00  0.00    -0.381 N
ATOM     34  H62 UNL     1      27.616  29.582  19.348  1.00  0.00     0.157 HD
ATOM     35  H61 UNL     1      29.058  30.376  19.273  1.00  0.00     0.157 HD
ENDBRANCH  31  33
ENDBRANCH   6  26
TORSDOF 9
ENDMDL