MODEL 4
REMARK VINA RESULT: -7.315776738      1.262      1.504
REMARK  9 active torsions:
REMARK  status: ('A' for Active; 'I' for Inactive)
REMARK    1  A    between atoms: C4_4  and  S1_5
REMARK    2  A    between atoms: S1_5  and  C5_6
REMARK    3  A    between atoms: C5_6  and  C6_7
REMARK    4  A    between atoms: N1_9  and  C8_10
REMARK    5  A    between atoms: C8_10  and  C9_11
REMARK    6  A    between atoms: C9_11  and  C10_12
REMARK    7  A    between atoms: C10_12  and  N2_13
REMARK    8  A    between atoms: C13_19  and  C14_20
REMARK    9  A    between atoms: C17_23  and  N5_24
ROOT
HETATM    1  C1  UNL     1      30.203  33.240  14.296  1.00  0.00     0.056 C
HETATM    2  C2  UNL     1      30.618  32.619  15.609  1.00  0.00    -0.019 A
HETATM    3  C3  UNL     1      29.817  32.211  16.639  1.00  0.00     0.034 A
HETATM    4  C4  UNL     1      30.411  31.679  17.721  1.00  0.00     0.021 A
HETATM    5  C13 UNL     1      31.764  31.584  17.718  1.00  0.00     0.049 A
HETATM    6  S2  UNL     1      32.178  32.252  16.170  1.00  0.00    -0.092 SA
ENDROOT
BRANCH   5   7
HETATM    7  C14 UNL     1      32.723  31.065  18.714  1.00  0.00     0.053 A
HETATM    8  C15 UNL     1      34.074  31.159  18.736  1.00  0.00     0.050 A
HETATM    9  C16 UNL     1      34.584  30.515  19.877  1.00  0.00     0.054 A
HETATM   10  C17 UNL     1      35.853  30.324  20.361  1.00  0.00     0.113 A
HETATM   11  C19 UNL     1      33.463  30.037  20.523  1.00  0.00     0.120 A
HETATM   12  N6  UNL     1      36.034  29.652  21.502  1.00  0.00    -0.338 N
HETATM   13  C18 UNL     1      34.939  29.181  22.139  1.00  0.00     0.183 A
ATOM     14  H6  UNL     1      36.970  29.498  21.880  1.00  0.00     0.168 HD
HETATM   15  N7  UNL     1      33.689  29.360  21.678  1.00  0.00    -0.338 N
ATOM     16  H7  UNL     1      32.900  28.981  22.201  1.00  0.00     0.168 HD
HETATM   17  N8  UNL     1      32.376  30.369  19.827  1.00  0.00    -0.341 N
ATOM     18  H8  UNL     1      31.420  30.134  20.094  1.00  0.00     0.167 HD
BRANCH  10  19
HETATM   19  N5  UNL     1      36.852  30.787  19.721  1.00  0.00    -0.385 N
ATOM     20  H52 UNL     1      36.744  31.599  19.112  1.00  0.00     0.157 HD
ATOM     21  H51 UNL     1      37.766  30.345  19.816  1.00  0.00     0.157 HD
ENDBRANCH  10  19
ENDBRANCH   5   7
BRANCH   4  22
HETATM   22  S1  UNL     1      29.403  31.110  19.140  1.00  0.00    -0.122 SA
BRANCH  22  23
HETATM   23  C5  UNL     1      27.654  31.437  18.788  1.00  0.00     0.139 C
BRANCH  23  24
HETATM   24  C6  UNL     1      26.804  31.159  19.977  1.00  0.00     0.050 A
HETATM   25  C7  UNL     1      25.835  30.209  20.154  1.00  0.00     0.134 A
HETATM   26  N1  UNL     1      25.321  30.324  21.393  1.00  0.00    -0.285 N
HETATM   27  N3  UNL     1      25.970  31.337  21.970  1.00  0.00    -0.021 NA
HETATM   28  N4  UNL     1      26.863  31.846  21.129  1.00  0.00    -0.286 N
ATOM     29  H4  UNL     1      27.488  32.627  21.325  1.00  0.00     0.184 HD
BRANCH  26  30
HETATM   30  C8  UNL     1      24.288  29.554  22.015  1.00  0.00     0.147 C
BRANCH  30  31
HETATM   31  C9  UNL     1      23.290  30.429  22.740  1.00  0.00     0.052 C
BRANCH  31  32
HETATM   32  C10 UNL     1      22.339  29.567  23.546  1.00  0.00     0.273 C
BRANCH  32  33
HETATM   33  N2  UNL     1      21.070  29.358  22.867  1.00  0.00     0.080 N
HETATM   34  C11 UNL     1      19.981  29.735  23.788  1.00  0.00     0.309 C
HETATM   35  C12 UNL     1      20.994  27.936  22.570  1.00  0.00     0.309 C
ENDBRANCH  32  33
ENDBRANCH  31  32
ENDBRANCH  30  31
ENDBRANCH  26  30
ENDBRANCH  23  24
ENDBRANCH  22  23
ENDBRANCH   4  22
TORSDOF 9
ENDMDL