MODEL 4
REMARK VINA RESULT: -7.050676781      1.261      1.538
REMARK  11 active torsions:
REMARK  status: ('A' for Active; 'I' for Inactive)
REMARK    1  A    between atoms: C2_2  and  C3_3
REMARK    2  A    between atoms: C3_3  and  C4_4
REMARK    3  A    between atoms: C4_4  and  C5_5
REMARK    4  A    between atoms: C5_5  and  S1_6
REMARK    5  A    between atoms: C7_9  and  C12_15
REMARK    6  A    between atoms: C8_11  and  C9_12
REMARK    7  A    between atoms: C15_18  and  O3_19
REMARK       I    between atoms: N1_21  and  C16_22
REMARK    8  A    between atoms: C16_22  and  C17_24
REMARK    9  A    between atoms: C17_24  and  N2_25
REMARK   10  A    between atoms: N2_25  and  C18_28
REMARK   11  A    between atoms: C20_30  and  O5_31
ROOT
HETATM    1  C9  UNL     1      31.747  32.530  15.745  1.00  0.00     0.076 C
HETATM    2  C10 UNL     1      31.015  33.732  16.224  1.00  0.00    -0.018 C
HETATM    3  C11 UNL     1      30.293  33.617  17.322  1.00  0.00    -0.018 C
HETATM    4  C12 UNL     1      30.232  32.308  18.040  1.00  0.00     0.077 C
HETATM    5  C13 UNL     1      31.665  31.856  18.137  1.00  0.00     0.015 A
HETATM    6  C14 UNL     1      32.414  31.972  16.980  1.00  0.00     0.015 A
HETATM    7  C15 UNL     1      33.658  31.516  17.289  1.00  0.00     0.159 A
HETATM    8  N1  UNL     1      33.728  31.122  18.571  1.00  0.00    -0.239 N
HETATM    9  C16 UNL     1      34.862  30.584  19.264  1.00  0.00     0.257 C
HETATM   10  O4  UNL     1      35.929  30.458  18.616  1.00  0.00    -0.271 OA
HETATM   11  C20 UNL     1      32.486  31.337  19.088  1.00  0.00     0.159 A
ENDROOT
BRANCH   7  12
HETATM   12  O3  UNL     1      34.705  31.480  16.351  1.00  0.00    -0.345 OA
ATOM     13  H3  UNL     1      34.648  31.906  15.504  1.00  0.00     0.219 HD
ENDBRANCH   7  12
BRANCH   9  14
HETATM   14  C17 UNL     1      34.833  30.184  20.667  1.00  0.00     0.335 C
BRANCH  14  15
HETATM   15  N2  UNL     1      35.159  28.777  20.777  1.00  0.00    -0.067 N
ATOM     16  H22 UNL     1      35.324  28.345  19.868  1.00  0.00     0.277 HD
ATOM     17  H21 UNL     1      36.084  28.624  21.178  1.00  0.00     0.277 HD
BRANCH  15  18
HETATM   18  C18 UNL     1      34.104  28.100  21.533  1.00  0.00     0.228 C
HETATM   19  C19 UNL     1      34.478  26.653  21.711  1.00  0.00     0.034 C
ENDBRANCH  15  18
ENDBRANCH  14  15
ENDBRANCH   9  14
BRANCH  11  20
HETATM   20  O5  UNL     1      32.085  31.073  20.400  1.00  0.00    -0.345 OA
ATOM     21  H5  UNL     1      32.624  31.247  21.162  1.00  0.00     0.219 HD
ENDBRANCH  11  20
BRANCH   1  22
HETATM   22  C8  UNL     1      30.786  31.439  15.305  1.00  0.00     0.152 C
HETATM   23  O2  UNL     1      29.940  31.889  14.276  1.00  0.00    -0.375 OA
HETATM   24  C7  UNL     1      30.686  31.907  13.112  1.00  0.00     0.165 C
HETATM   25  C6  UNL     1      31.482  30.613  13.217  1.00  0.00     0.184 C
HETATM   26  O1  UNL     1      30.661  29.514  13.005  1.00  0.00    -0.322 OA
HETATM   27  C21 UNL     1      31.512  30.269  14.690  1.00  0.00     0.126 C
HETATM   28  S1  UNL     1      30.603  28.618  14.498  1.00  0.00    -0.079 SA
BRANCH  28  29
HETATM   29  C5  UNL     1      31.310  26.867  14.963  1.00  0.00     0.092 C
BRANCH  29  30
HETATM   30  C4  UNL     1      32.681  26.730  14.387  1.00  0.00     0.012 C
BRANCH  30  31
HETATM   31  C3  UNL     1      33.272  25.355  14.630  1.00  0.00     0.000 C
BRANCH  31  32
HETATM   32  C2  UNL     1      32.275  24.382  15.166  1.00  0.00    -0.005 C
HETATM   33  C1  UNL     1      33.012  23.092  15.495  1.00  0.00     0.005 C
ENDBRANCH  31  32
ENDBRANCH  30  31
ENDBRANCH  29  30
ENDBRANCH  28  29
ENDBRANCH   1  22
TORSDOF 11
ENDMDL