MODEL 3
REMARK VINA RESULT: -6.849078137      0.307      1.170
REMARK  11 active torsions:
REMARK  status: ('A' for Active; 'I' for Inactive)
REMARK    1  A    between atoms: C2_2  and  C3_3
REMARK    2  A    between atoms: C3_3  and  C4_4
REMARK    3  A    between atoms: C3_3  and  C6_6
REMARK    4  A    between atoms: C6_6  and  C7_7
REMARK    5  A    between atoms: C7_7  and  N1_8
REMARK    6  A    between atoms: C8_9  and  S1_10
REMARK    7  A    between atoms: S1_10  and  C9_11
REMARK    8  A    between atoms: C9_11  and  C10_12
REMARK    9  A    between atoms: C12_19  and  N4_20
REMARK   10  A    between atoms: C13_23  and  N5_24
REMARK   11  A    between atoms: N5_24  and  O2_26
ROOT
HETATM    1  N1  UNL     1      31.466  31.451  17.777  1.00  0.00    -0.293 N
HETATM    2  C8  UNL     1      30.626  30.888  18.667  1.00  0.00     0.150 A
HETATM    3  N6  UNL     1      31.054  30.270  19.756  1.00  0.00    -0.335 N
ATOM      4  H6  UNL     1      30.355  29.870  20.381  1.00  0.00     0.168 HD
HETATM    5  C14 UNL     1      32.372  30.133  20.100  1.00  0.00     0.057 A
HETATM    6  C15 UNL     1      32.893  29.521  21.188  1.00  0.00     0.038 A
HETATM    7  C16 UNL     1      34.251  29.516  21.314  1.00  0.00     0.053 A
HETATM    8  S2  UNL     1      34.770  30.355  19.924  1.00  0.00    -0.094 SA
HETATM    9  C17 UNL     1      33.252  30.692  19.220  1.00  0.00     0.099 A
HETATM   10  C18 UNL     1      32.788  31.338  18.079  1.00  0.00     0.269 A
HETATM   11  O3  UNL     1      33.648  31.830  17.313  1.00  0.00    -0.266 OA
ENDROOT
BRANCH   2  12
HETATM   12  S1  UNL     1      28.843  30.964  18.436  1.00  0.00    -0.087 SA
BRANCH  12  13
HETATM   13  C9  UNL     1      27.889  31.058  19.915  1.00  0.00     0.142 C
BRANCH  13  14
HETATM   14  C10 UNL     1      26.812  30.071  20.096  1.00  0.00     0.055 A
HETATM   15  N2  UNL     1      26.588  28.969  19.385  1.00  0.00    -0.309 N
HETATM   16  C11 UNL     1      25.513  28.159  19.636  1.00  0.00     0.326 A
ATOM     17  H2  UNL     1      27.233  28.721  18.634  1.00  0.00     0.170 HD
HETATM   18  O1  UNL     1      25.350  27.128  18.934  1.00  0.00    -0.247 OA
HETATM   19  N3  UNL     1      24.629  28.417  20.598  1.00  0.00    -0.293 N
HETATM   20  C12 UNL     1      24.814  29.519  21.339  1.00  0.00     0.134 A
ATOM     21  H3  UNL     1      23.837  27.796  20.766  1.00  0.00     0.172 HD
HETATM   22  C13 UNL     1      25.881  30.340  21.105  1.00  0.00     0.121 A
BRANCH  20  23
HETATM   23  N4  UNL     1      23.932  29.746  22.275  1.00  0.00    -0.383 N
ATOM     24  H42 UNL     1      23.436  29.001  22.766  1.00  0.00     0.157 HD
ATOM     25  H41 UNL     1      23.750  30.724  22.500  1.00  0.00     0.157 HD
ENDBRANCH  20  23
BRANCH  22  26
HETATM   26  N5  UNL     1      26.039  31.486  21.904  1.00  0.00    -0.264 N
ATOM     27  H5  UNL     1      25.817  32.398  21.504  1.00  0.00     0.194 HD
BRANCH  26  28
HETATM   28  O2  UNL     1      26.437  31.431  23.076  1.00  0.00    -0.289 OA
ATOM     29  H2  UNL     1      27.240  30.987  23.322  1.00  0.00     0.244 HD
ENDBRANCH  26  28
ENDBRANCH  22  26
ENDBRANCH  13  14
ENDBRANCH  12  13
ENDBRANCH   2  12
BRANCH   1  30
HETATM   30  C7  UNL     1      31.017  32.099  16.580  1.00  0.00     0.135 C
BRANCH  30  31
HETATM   31  C6  UNL     1      30.847  33.582  16.658  1.00  0.00     0.025 C
BRANCH  31  32
HETATM   32  C3  UNL     1      30.901  34.217  15.285  1.00  0.00    -0.014 C
BRANCH  32  33
HETATM   33  C2  UNL     1      30.621  35.666  15.270  1.00  0.00     0.000 C
HETATM   34  C1  UNL     1      31.769  36.518  14.816  1.00  0.00     0.005 C
ENDBRANCH  32  33
BRANCH  32  35
HETATM   35  C4  UNL     1      32.192  33.824  14.615  1.00  0.00     0.000 C
HETATM   36  C5  UNL     1      31.920  33.239  13.237  1.00  0.00     0.005 C
ENDBRANCH  32  35
ENDBRANCH  31  32
ENDBRANCH  30  31
ENDBRANCH   1  30
TORSDOF 11
ENDMDL