MODEL 5
REMARK VINA RESULT: -6.780105668      2.692      3.781
REMARK  11 active torsions:
REMARK  status: ('A' for Active; 'I' for Inactive)
REMARK    1  A    between atoms: C3_3  and  O1_5
REMARK    2  A    between atoms: C3_3  and  C5_7
REMARK    3  A    between atoms: C5_7  and  S1_8
REMARK    4  A    between atoms: S1_8  and  C6_9
REMARK    5  A    between atoms: N3_15  and  C8_16
REMARK    6  A    between atoms: C9_18  and  C10_19
REMARK    7  A    between atoms: C10_19  and  O2_20
REMARK    8  A    between atoms: C10_19  and  N4_22
REMARK    9  A    between atoms: N4_22  and  C11_24
REMARK   10  A    between atoms: C11_24  and  C12_25
REMARK   11  A    between atoms: C12_25  and  C13_26
ROOT
HETATM    1  C1  UNL     1      32.711  24.687  15.109  1.00  0.00     0.015 C
HETATM    2  C2  UNL     1      33.652  25.112  14.482  1.00  0.00    -0.079 C
HETATM    3  C3  UNL     1      34.812  25.645  13.734  1.00  0.00     0.125 C
HETATM    4  C4  UNL     1      35.347  24.576  12.842  1.00  0.00     0.061 C
ENDROOT
BRANCH   3   5
HETATM    5  O1  UNL     1      35.849  25.874  14.697  1.00  0.00    -0.377 OA
ATOM      6  H1  UNL     1      35.963  26.814  14.755  1.00  0.00     0.211 HD
ENDBRANCH   3   5
BRANCH   3   7
HETATM    7  C5  UNL     1      34.516  26.968  13.136  1.00  0.00     0.133 C
BRANCH   7   8
HETATM    8  S1  UNL     1      33.928  28.246  14.233  1.00  0.00    -0.088 SA
BRANCH   8   9
HETATM    9  C6  UNL     1      34.030  29.868  13.549  1.00  0.00     0.167 A
HETATM   10  N1  UNL     1      33.978  30.336  12.291  1.00  0.00    -0.279 N
HETATM   11  N2  UNL     1      34.102  31.657  12.273  1.00  0.00    -0.294 N
ATOM     12  H1  UNL     1      33.859  29.754  11.461  1.00  0.00     0.189 HD
HETATM   13  C7  UNL     1      34.240  32.072  13.549  1.00  0.00     0.208 A
ATOM     14  H2  UNL     1      34.093  32.251  11.444  1.00  0.00     0.187 HD
HETATM   15  N3  UNL     1      34.196  30.979  14.319  1.00  0.00    -0.279 N
BRANCH  15  16
HETATM   16  C8  UNL     1      34.304  30.949  15.762  1.00  0.00     0.091 A
HETATM   17  S2  UNL     1      35.676  30.699  16.733  1.00  0.00    -0.067 SA
HETATM   18  C9  UNL     1      34.935  30.821  18.310  1.00  0.00     0.064 A
HETATM   19  C15 UNL     1      33.647  31.052  17.994  1.00  0.00    -0.028 A
HETATM   20  C16 UNL     1      33.319  31.118  16.681  1.00  0.00    -0.016 A
HETATM   21  C20 UNL     1      32.444  31.267  18.900  1.00  0.00     0.041 C
HETATM   22  C17 UNL     1      31.858  31.375  16.363  1.00  0.00     0.042 C
HETATM   23  C18 UNL     1      31.380  32.625  17.090  1.00  0.00     0.005 C
HETATM   24  C19 UNL     1      31.752  32.574  18.550  1.00  0.00     0.005 C
BRANCH  18  25
HETATM   25  C10 UNL     1      35.686  30.683  19.548  1.00  0.00     0.153 C
BRANCH  25  26
HETATM   26  O2  UNL     1      36.994  30.672  19.420  1.00  0.00    -0.345 OA
ATOM     27  H2  UNL     1      37.394  29.812  19.374  1.00  0.00     0.219 HD
ENDBRANCH  25  26
BRANCH  25  28
HETATM   28  N4  UNL     1      35.256  30.557  20.858  1.00  0.00    -0.370 N
ATOM     29  H4  UNL     1      34.868  31.373  21.331  1.00  0.00     0.161 HD
BRANCH  28  30
HETATM   30  C11 UNL     1      35.342  29.306  21.573  1.00  0.00     0.121 C
BRANCH  30  31
HETATM   31  C12 UNL     1      34.085  28.516  21.529  1.00  0.00     0.019 C
BRANCH  31  32
HETATM   32  C13 UNL     1      34.339  27.017  21.593  1.00  0.00    -0.003 C
HETATM   33  C14 UNL     1      35.602  26.686  22.351  1.00  0.00     0.005 C
ENDBRANCH  31  32
ENDBRANCH  30  31
ENDBRANCH  28  30
ENDBRANCH  25  28
ENDBRANCH  18  25
ENDBRANCH  15  16
ENDBRANCH   8   9
ENDBRANCH   7   8
ENDBRANCH   3   7
TORSDOF 11
ENDMDL