MODEL 5
REMARK VINA RESULT: -6.362082868      2.043      4.397
REMARK  11 active torsions:
REMARK  status: ('A' for Active; 'I' for Inactive)
REMARK    1  A    between atoms: C2_2  and  C3_3
REMARK    2  A    between atoms: C4_4  and  C5_5
REMARK    3  A    between atoms: C5_5  and  C6_6
REMARK    4  A    between atoms: C6_6  and  C7_7
REMARK    5  A    between atoms: C6_6  and  O5_26
REMARK    6  A    between atoms: C7_7  and  S1_8
REMARK    7  A    between atoms: S1_8  and  C8_9
REMARK    8  A    between atoms: C15_18  and  O3_19
REMARK    9  A    between atoms: C18_23  and  O4_24
REMARK   10  A    between atoms: O5_26  and  C19_27
REMARK       I    between atoms: C19_27  and  N1_29
REMARK   11  A    between atoms: N1_29  and  C20_31
ROOT
HETATM    1  C8  UNL     1      30.993  32.339  16.386  1.00  0.00     0.169 C
HETATM    2  C9  UNL     1      30.816  33.793  16.149  1.00  0.00     0.065 C
HETATM    3  O1  UNL     1      30.439  31.552  15.375  1.00  0.00    -0.215 OA
HETATM    4  O2  UNL     1      29.246  31.200  15.765  1.00  0.00    -0.225 OA
HETATM    5  C10 UNL     1      29.311  30.901  17.110  1.00  0.00     0.131 C
HETATM    6  C11 UNL     1      29.878  29.526  17.377  1.00  0.00     0.045 C
HETATM    7  C12 UNL     1      29.046  28.518  16.603  1.00  0.00     0.010 C
HETATM    8  C13 UNL     1      27.654  28.547  17.181  1.00  0.00     0.011 C
HETATM    9  C14 UNL     1      26.787  27.654  16.307  1.00  0.00     0.012 C
HETATM   10  C15 UNL     1      27.035  29.909  17.216  1.00  0.00     0.128 C
HETATM   11  C16 UNL     1      27.967  30.977  17.755  1.00  0.00     0.051 C
HETATM   12  C17 UNL     1      28.028  30.791  19.251  1.00  0.00     0.016 C
HETATM   13  C18 UNL     1      30.249  31.926  17.652  1.00  0.00     0.204 C
ENDROOT
BRANCH   1  14
HETATM   14  S1  UNL     1      32.730  31.874  16.492  1.00  0.00    -0.123 SA
BRANCH  14  15
HETATM   15  C7  UNL     1      33.350  31.697  18.170  1.00  0.00     0.110 C
BRANCH  15  16
HETATM   16  C6  UNL     1      34.450  30.715  18.365  1.00  0.00     0.146 C
BRANCH  16  17
HETATM   17  C5  UNL     1      34.688  30.519  19.871  1.00  0.00     0.060 C
BRANCH  17  18
HETATM   18  C4  UNL     1      33.462  30.014  20.481  1.00  0.00    -0.028 C
HETATM   19  C3  UNL     1      33.435  29.069  21.381  1.00  0.00    -0.031 C
BRANCH  19  20
HETATM   20  C2  UNL     1      34.569  28.327  21.963  1.00  0.00     0.022 C
HETATM   21  C1  UNL     1      34.502  26.840  21.581  1.00  0.00     0.009 C
ENDBRANCH  19  20
ENDBRANCH  17  18
ENDBRANCH  16  17
BRANCH  16  22
HETATM   22  O5  UNL     1      35.659  31.099  17.753  1.00  0.00    -0.298 OA
BRANCH  22  23
HETATM   23  C19 UNL     1      36.222  30.637  16.613  1.00  0.00     0.360 C
HETATM   24  O6  UNL     1      36.452  31.414  15.682  1.00  0.00    -0.239 OA
HETATM   25  N1  UNL     1      36.577  29.263  16.418  1.00  0.00    -0.337 N
ATOM     26  H1  UNL     1      36.396  28.603  17.175  1.00  0.00     0.164 HD
BRANCH  25  27
HETATM   27  C20 UNL     1      37.173  28.769  15.216  1.00  0.00     0.120 C
HETATM   28  C21 UNL     1      36.228  27.965  14.352  1.00  0.00     0.026 C
ENDBRANCH  25  27
ENDBRANCH  22  23
ENDBRANCH  16  22
ENDBRANCH  15  16
ENDBRANCH  14  15
ENDBRANCH   1  14
BRANCH  13  29
HETATM   29  O4  UNL     1      29.536  32.979  18.202  1.00  0.00    -0.388 OA
ATOM     30  H4  UNL     1      29.660  33.040  19.142  1.00  0.00     0.210 HD
ENDBRANCH  13  29
BRANCH  10  31
HETATM   31  O3  UNL     1      25.932  29.852  18.087  1.00  0.00    -0.395 OA
ATOM     32  H3  UNL     1      25.298  30.494  17.789  1.00  0.00     0.210 HD
ENDBRANCH  10  31
TORSDOF 11
ENDMDL