MODEL 1
REMARK VINA RESULT: -7.375518225      0.000      0.000
REMARK  10 active torsions:
REMARK  status: ('A' for Active; 'I' for Inactive)
REMARK    1  A    between atoms: C2_2  and  C3_3
REMARK    2  A    between atoms: C3_3  and  C4_4
REMARK    3  A    between atoms: C3_3  and  C6_6
REMARK    4  A    between atoms: C9_11  and  S1_12
REMARK    5  A    between atoms: S1_12  and  C10_13
REMARK    6  A    between atoms: C10_13  and  C11_14
REMARK    7  A    between atoms: C11_14  and  N3_17
REMARK    8  A    between atoms: N3_17  and  C13_19
REMARK    9  A    between atoms: C14_22  and  C15_23
REMARK   10  A    between atoms: C17_27  and  N6_28
ROOT
HETATM    1  C11 UNL     1      25.748  29.186  19.637  1.00  0.00     0.200 C
HETATM    2  C12 UNL     1      25.577  27.772  19.776  1.00  0.00     0.085 C
HETATM    3  N2  UNL     1      25.406  26.647  19.916  1.00  0.00    -0.195 NA
ENDROOT
BRANCH   1   4
HETATM    4  C10 UNL     1      26.920  29.702  18.899  1.00  0.00     0.122 C
BRANCH   4   5
HETATM    5  S1  UNL     1      27.892  30.881  19.776  1.00  0.00    -0.091 SA
BRANCH   5   6
HETATM    6  C9  UNL     1      29.477  31.290  19.127  1.00  0.00     0.144 A
HETATM    7  N1  UNL     1      29.695  32.211  18.200  1.00  0.00    -0.347 N
HETATM    8  C8  UNL     1      30.886  32.547  17.687  1.00  0.00     0.092 A
ATOM      9  H1  UNL     1      28.881  32.711  17.844  1.00  0.00     0.167 HD
HETATM   10  C7  UNL     1      31.989  31.865  18.174  1.00  0.00     0.042 A
HETATM   11  C6  UNL     1      31.804  30.893  19.146  1.00  0.00     0.016 A
HETATM   12  N9  UNL     1      30.584  30.624  19.599  1.00  0.00    -0.340 N
ATOM     13  H9  UNL     1      30.466  29.905  20.314  1.00  0.00     0.167 HD
BRANCH  11  14
HETATM   14  C3  UNL     1      33.017  30.175  19.651  1.00  0.00     0.035 C
BRANCH  14  15
HETATM   15  C2  UNL     1      32.894  29.798  21.091  1.00  0.00     0.006 C
HETATM   16  C1  UNL     1      33.719  28.611  21.479  1.00  0.00     0.006 C
ENDBRANCH  14  15
BRANCH  14  17
HETATM   17  C4  UNL     1      34.156  31.197  19.543  1.00  0.00     0.006 C
HETATM   18  C5  UNL     1      35.334  30.540  18.854  1.00  0.00     0.006 C
ENDBRANCH  14  17
ENDBRANCH  11  14
ENDBRANCH   5   6
ENDBRANCH   4   5
ENDBRANCH   1   4
BRANCH   1  19
HETATM   19  N3  UNL     1      25.674  29.795  20.985  1.00  0.00    -0.351 N
ATOM     20  H3  UNL     1      26.431  29.717  21.665  1.00  0.00     0.163 HD
BRANCH  19  21
HETATM   21  C13 UNL     1      24.562  30.443  21.238  1.00  0.00     0.163 A
HETATM   22  N4  UNL     1      23.458  29.935  21.765  1.00  0.00    -0.320 N
HETATM   23  C14 UNL     1      22.432  30.705  21.955  1.00  0.00     0.142 A
ATOM     24  H4  UNL     1      23.416  28.949  22.019  1.00  0.00     0.169 HD
HETATM   25  N8  UNL     1      22.540  31.991  21.606  1.00  0.00    -0.308 N
HETATM   26  S2  UNL     1      24.114  32.074  21.008  1.00  0.00     0.024 SA
ATOM     27  H8  UNL     1      21.845  32.733  21.682  1.00  0.00     0.176 HD
BRANCH  23  28
HETATM   28  C15 UNL     1      21.168  30.189  22.541  1.00  0.00     0.092 A
HETATM   29  C16 UNL     1      20.862  28.847  22.548  1.00  0.00     0.123 A
HETATM   30  N5  UNL     1      19.703  28.397  23.085  1.00  0.00    -0.349 N
HETATM   31  C17 UNL     1      18.813  29.238  23.629  1.00  0.00     0.114 A
ATOM     32  H5  UNL     1      19.503  27.396  23.076  1.00  0.00     0.167 HD
HETATM   33  C18 UNL     1      19.110  30.582  23.626  1.00  0.00     0.136 A
HETATM   34  N7  UNL     1      20.264  31.013  23.090  1.00  0.00    -0.358 N
ATOM     35  H7  UNL     1      20.460  32.014  23.101  1.00  0.00     0.165 HD
BRANCH  31  36
HETATM   36  N6  UNL     1      17.704  28.787  24.139  1.00  0.00    -0.384 N
ATOM     37  H62 UNL     1      17.635  28.529  25.124  1.00  0.00     0.157 HD
ATOM     38  H61 UNL     1      16.873  28.680  23.557  1.00  0.00     0.157 HD
ENDBRANCH  31  36
ENDBRANCH  23  28
ENDBRANCH  19  21
ENDBRANCH   1  19
TORSDOF 10
ENDMDL