MODEL 1
REMARK VINA RESULT: -5.776503043      0.000      0.000
REMARK  10 active torsions:
REMARK  status: ('A' for Active; 'I' for Inactive)
REMARK    1  A    between atoms: C2_2  and  C3_3
REMARK    2  A    between atoms: C2_2  and  N1_11
REMARK    3  A    between atoms: C3_3  and  C4_4
REMARK    4  A    between atoms: C4_4  and  O1_5
REMARK    5  A    between atoms: C10_17  and  C11_18
REMARK    6  A    between atoms: C12_21  and  S3_22
REMARK    7  A    between atoms: S3_22  and  C13_23
REMARK    8  A    between atoms: C13_23  and  C14_24
REMARK    9  A    between atoms: C14_24  and  C15_25
REMARK   10  A    between atoms: C15_25  and  O3_26
ROOT
HETATM    1  N1  UNL     1      34.834  30.743  18.117  1.00  0.00    -0.335 N
HETATM    2  C8  UNL     1      35.975  30.339  17.520  1.00  0.00     0.184 A
HETATM    3  N2  UNL     1      35.926  30.660  16.227  1.00  0.00    -0.345 N
ATOM      4  H2  UNL     1      36.646  30.480  15.527  1.00  0.00     0.167 HD
HETATM    5  C9  UNL     1      34.740  31.268  16.025  1.00  0.00     0.104 A
HETATM    6  S2  UNL     1      33.727  32.012  14.872  1.00  0.00    -0.064 SA
HETATM    7  C10 UNL     1      32.412  32.405  15.873  1.00  0.00     0.091 A
HETATM    8  C12 UNL     1      32.800  31.941  17.096  1.00  0.00     0.052 A
HETATM    9  C18 UNL     1      34.017  31.345  17.184  1.00  0.00     0.088 A
ENDROOT
BRANCH   1  10
HETATM   10  C2  UNL     1      34.598  30.565  19.528  1.00  0.00     0.090 C
HETATM   11  C1  UNL     1      35.631  31.466  20.296  1.00  0.00     0.033 C
BRANCH  10  12
HETATM   12  C3  UNL     1      34.759  29.234  20.109  1.00  0.00     0.064 C
BRANCH  12  13
HETATM   13  C4  UNL     1      33.966  28.821  21.292  1.00  0.00     0.069 C
HETATM   14  C5  UNL     1      33.826  27.408  21.643  1.00  0.00     0.049 C
HETATM   15  C6  UNL     1      35.182  26.824  22.018  1.00  0.00     0.077 C
HETATM   16  S1  UNL     1      35.952  28.245  22.849  1.00  0.00    -0.166 SA
HETATM   17  C7  UNL     1      34.642  29.469  22.573  1.00  0.00     0.111 C
BRANCH  13  18
HETATM   18  O1  UNL     1      32.704  29.453  21.329  1.00  0.00    -0.389 OA
ATOM     19  H1  UNL     1      32.045  28.910  21.745  1.00  0.00     0.210 HD
ENDBRANCH  13  18
ENDBRANCH  12  13
ENDBRANCH  10  12
ENDBRANCH   1  10
BRANCH   8  20
HETATM   20  S3  UNL     1      31.650  32.173  18.497  1.00  0.00    -0.125 SA
BRANCH  20  21
HETATM   21  C13 UNL     1      30.729  30.616  18.704  1.00  0.00     0.091 C
BRANCH  21  22
HETATM   22  C14 UNL     1      29.257  30.808  18.586  1.00  0.00    -0.010 A
HETATM   23  C16 UNL     1      28.602  29.919  17.529  1.00  0.00     0.013 A
HETATM   24  C17 UNL     1      28.708  31.398  17.321  1.00  0.00     0.013 A
BRANCH  22  25
HETATM   25  C15 UNL     1      28.427  30.930  19.842  1.00  0.00     0.174 C
BRANCH  25  26
HETATM   26  O3  UNL     1      27.598  32.053  19.796  1.00  0.00    -0.400 OA
ATOM     27  H3  UNL     1      26.719  31.848  20.096  1.00  0.00     0.209 HD
ENDBRANCH  25  26
ENDBRANCH  22  25
ENDBRANCH  21  22
ENDBRANCH  20  21
ENDBRANCH   8  20
BRANCH   7  28
HETATM   28  C11 UNL     1      31.167  33.084  15.468  1.00  0.00     0.273 C
HETATM   29  N3  UNL     1      30.795  34.338  15.968  1.00  0.00    -0.057 NA
HETATM   30  O2  UNL     1      30.426  32.497  14.641  1.00  0.00    -0.270 OA
ENDBRANCH   7  28
TORSDOF 10
ENDMDL