MODEL 3
REMARK VINA RESULT: -7.361792491      2.044      3.158
REMARK  6 active torsions:
REMARK  status: ('A' for Active; 'I' for Inactive)
REMARK    1  A    between atoms: C2_2  and  C3_3
REMARK    2  A    between atoms: C3_3  and  O1_4
REMARK    3  A    between atoms: O1_4  and  C4_5
REMARK    4  A    between atoms: N1_11  and  O2_13
REMARK    5  A    between atoms: O2_13  and  C10_14
REMARK    6  A    between atoms: C16_20  and  O3_21
ROOT
HETATM    1  C4  UNL     1      78.689   5.328  24.348  1.00  0.00     0.220 C
HETATM    2  C5  UNL     1      79.878   4.453  24.352  1.00  0.00     0.041 C
HETATM    3  C6  UNL     1      81.027   4.866  24.847  1.00  0.00    -0.015 C
HETATM    4  C7  UNL     1      81.274   6.200  25.439  1.00  0.00     0.069 C
HETATM    5  C8  UNL     1      82.108   6.121  26.694  1.00  0.00     0.071 C
HETATM    6  C9  UNL     1      81.265   5.633  27.781  1.00  0.00     0.044 C
HETATM    7  N1  UNL     1      81.777   5.125  28.845  1.00  0.00    -0.266 N
ATOM      8  H1  UNL     1      81.150   4.798  29.580  1.00  0.00     0.194 HD
HETATM    9  C13 UNL     1      79.769   5.695  27.718  1.00  0.00     0.195 C
HETATM   10  C14 UNL     1      79.189   4.352  27.552  1.00  0.00     0.009 C
HETATM   11  C15 UNL     1      78.308   4.006  26.464  1.00  0.00     0.009 C
HETATM   12  C16 UNL     1      77.755   4.976  25.503  1.00  0.00     0.208 C
HETATM   13  O4  UNL     1      79.362   6.663  26.858  1.00  0.00    -0.346 OA
HETATM   14  C17 UNL     1      79.937   6.838  25.670  1.00  0.00     0.273 C
HETATM   15  O5  UNL     1      79.091   6.659  24.636  1.00  0.00    -0.318 OA
ENDROOT
BRANCH   7  16
HETATM   16  O2  UNL     1      83.134   5.005  29.036  1.00  0.00    -0.244 OA
BRANCH  16  17
HETATM   17  C10 UNL     1      83.710   5.455  30.217  1.00  0.00     0.063 C
HETATM   18  C11 UNL     1      84.967   5.840  30.205  1.00  0.00     0.048 C
HETATM   19  C12 UNL     1      82.943   5.510  31.488  1.00  0.00     0.078 C
ENDBRANCH  16  17
ENDBRANCH   7  16
BRANCH  12  20
HETATM   20  O3  UNL     1      76.660   4.310  24.905  1.00  0.00    -0.386 OA
ATOM     21  H3  UNL     1      76.410   4.854  24.167  1.00  0.00     0.210 HD
ENDBRANCH  12  20
BRANCH   1  22
HETATM   22  O1  UNL     1      78.105   5.516  23.158  1.00  0.00    -0.319 OA
BRANCH  22  23
HETATM   23  C3  UNL     1      77.515   6.529  22.618  1.00  0.00     0.138 C
BRANCH  23  24
HETATM   24  C2  UNL     1      76.131   6.919  22.966  1.00  0.00     0.014 C
HETATM   25  C1  UNL     1      75.064   6.279  22.494  1.00  0.00     0.013 C
ENDBRANCH  23  24
ENDBRANCH  22  23
ENDBRANCH   1  22
TORSDOF 6
ENDMDL