MODEL 4
REMARK VINA RESULT: -6.214408344      1.665      2.264
REMARK  7 active torsions:
REMARK  status: ('A' for Active; 'I' for Inactive)
REMARK    1  A    between atoms: C2_2  and  C3_3
REMARK    2  A    between atoms: C3_3  and  N1_5
REMARK    3  A    between atoms: C9_17  and  S1_18
REMARK    4  A    between atoms: S1_18  and  C10_19
REMARK    5  A    between atoms: C10_19  and  C11_20
REMARK    6  A    between atoms: C11_20  and  O1_23
REMARK    7  A    between atoms: N5_25  and  C14_26
ROOT
HETATM    1  N1  UNL     1      80.629   5.006  30.975  1.00  0.00    -0.367 N
ATOM      2  H1  UNL     1      79.899   4.940  30.266  1.00  0.00     0.161 HD
HETATM    3  C5  UNL     1      81.733   5.279  30.482  1.00  0.00     0.133 A
HETATM    4  N2  UNL     1      82.840   5.420  31.213  1.00  0.00    -0.337 N
ATOM      5  H2  UNL     1      82.797   5.306  32.226  1.00  0.00     0.168 HD
HETATM    6  C6  UNL     1      84.019   5.714  30.619  1.00  0.00     0.183 A
HETATM    7  N3  UNL     1      84.125   5.872  29.302  1.00  0.00    -0.336 N
ATOM      8  H3  UNL     1      85.031   6.092  28.890  1.00  0.00     0.168 HD
HETATM    9  C7  UNL     1      83.029   5.740  28.497  1.00  0.00     0.141 A
HETATM   10  C8  UNL     1      81.833   5.442  29.104  1.00  0.00     0.123 A
HETATM   11  N4  UNL     1      80.935   5.364  28.093  1.00  0.00    -0.331 N
ATOM     12  H4  UNL     1      79.943   5.155  28.207  1.00  0.00     0.168 HD
HETATM   13  C9  UNL     1      81.533   5.599  26.931  1.00  0.00     0.148 A
HETATM   14  N5  UNL     1      82.865   5.838  27.177  1.00  0.00    -0.312 N
ENDROOT
BRANCH  13  15
HETATM   15  S1  UNL     1      80.898   5.673  25.236  1.00  0.00    -0.091 SA
BRANCH  15  16
HETATM   16  C10 UNL     1      79.277   6.401  25.242  1.00  0.00     0.119 C
BRANCH  16  17
HETATM   17  C11 UNL     1      78.121   5.424  25.170  1.00  0.00     0.059 C
HETATM   18  C12 UNL     1      77.048   5.789  24.192  1.00  0.00     0.046 C
HETATM   19  C13 UNL     1      78.621   4.007  24.989  1.00  0.00     0.046 C
BRANCH  17  20
HETATM   20  O1  UNL     1      77.522   5.478  26.464  1.00  0.00    -0.390 OA
ATOM     21  H1  UNL     1      77.019   6.284  26.462  1.00  0.00     0.210 HD
ENDBRANCH  17  20
ENDBRANCH  16  17
ENDBRANCH  15  16
ENDBRANCH  13  15
BRANCH  14  22
HETATM   22  C14 UNL     1      83.852   6.162  26.162  1.00  0.00     0.128 C
HETATM   23  C15 UNL     1      84.150   7.624  26.123  1.00  0.00     0.027 C
ENDBRANCH  14  22
BRANCH   1  24
HETATM   24  C3  UNL     1      80.131   4.766  32.274  1.00  0.00     0.101 C
HETATM   25  C4  UNL     1      81.026   4.032  33.216  1.00  0.00     0.036 C
BRANCH  24  26
HETATM   26  C2  UNL     1      79.830   6.113  32.886  1.00  0.00    -0.013 C
HETATM   27  C1  UNL     1      80.520   6.498  33.918  1.00  0.00     0.009 C
ENDBRANCH  24  26
ENDBRANCH   1  24
TORSDOF 7
ENDMDL