MODEL 1
REMARK VINA RESULT: -7.956962000      0.000      0.000
REMARK  5 active torsions:
REMARK  status: ('A' for Active; 'I' for Inactive)
REMARK    1  A    between atoms: C2_2  and  N1_3
REMARK    2  A    between atoms: C6_7  and  C7_8
REMARK    3  A    between atoms: C8_13  and  N4_14
REMARK    4  A    between atoms: C13_23  and  O2_24
REMARK    5  A    between atoms: O2_24  and  C14_25
ROOT
HETATM    1  C14 UNL     1      79.176   4.958  29.164  1.00  0.00     0.299 C
HETATM    2  C15 UNL     1      78.530   6.224  29.634  1.00  0.00     0.085 C
HETATM    3  N6  UNL     1      78.042   7.221  29.986  1.00  0.00    -0.195 NA
ENDROOT
BRANCH   1   4
HETATM    4  O2  UNL     1      79.839   5.141  28.053  1.00  0.00    -0.331 OA
BRANCH   4   5
HETATM    5  C13 UNL     1      80.462   5.409  26.956  1.00  0.00     0.143 A
HETATM    6  C7  UNL     1      81.774   5.893  26.862  1.00  0.00     0.089 A
HETATM    7  N2  UNL     1      82.022   6.014  25.565  1.00  0.00    -0.296 N
HETATM    8  N3  UNL     1      80.988   5.653  24.834  1.00  0.00    -0.283 N
ATOM      9  H2  UNL     1      82.906   6.346  25.180  1.00  0.00     0.187 HD
HETATM   10  C8  UNL     1      79.976   5.261  25.618  1.00  0.00     0.158 A
ATOM     11  H3  UNL     1      80.962   5.669  23.814  1.00  0.00     0.188 HD
BRANCH   6  12
HETATM   12  C6  UNL     1      82.658   6.335  27.938  1.00  0.00    -0.030 C
HETATM   13  C5  UNL     1      83.326   7.647  27.869  1.00  0.00     0.043 C
HETATM   14  C4  UNL     1      84.586   7.522  28.752  1.00  0.00     0.049 C
HETATM   15  C3  UNL     1      84.257   7.071  30.143  1.00  0.00     0.063 C
HETATM   16  N1  UNL     1      83.549   5.853  30.091  1.00  0.00    -0.370 N
HETATM   17  C16 UNL     1      83.334   5.292  28.764  1.00  0.00     0.163 C
BRANCH  16  18
HETATM   18  C2  UNL     1      82.626   5.541  31.092  1.00  0.00     0.059 C
HETATM   19  C1  UNL     1      81.686   6.629  31.561  1.00  0.00     0.055 C
ENDBRANCH  16  18
ENDBRANCH   6  12
BRANCH  10  20
HETATM   20  N4  UNL     1      78.731   4.746  25.394  1.00  0.00    -0.324 N
HETATM   21  C9  UNL     1      77.710   5.073  24.765  1.00  0.00     0.129 A
HETATM   22  C10 UNL     1      77.440   6.181  23.991  1.00  0.00     0.084 A
HETATM   23  N5  UNL     1      76.554   4.314  24.712  1.00  0.00    -0.245 N
HETATM   24  C11 UNL     1      76.154   6.032  23.518  1.00  0.00     0.076 A
HETATM   25  C12 UNL     1      75.377   6.943  22.628  1.00  0.00     0.079 C
HETATM   26  O1  UNL     1      75.699   4.915  23.983  1.00  0.00    -0.241 OA
ATOM     27  H5  UNL     1      76.410   3.420  25.180  1.00  0.00     0.196 HD
ATOM     28  H4  UNL     1      78.605   3.854  25.871  1.00  0.00     0.169 HD
ENDBRANCH  10  20
ENDBRANCH   4   5
ENDBRANCH   1   4
TORSDOF 5
ENDMDL