MODEL 2
REMARK VINA RESULT: -7.666776276      0.957      1.401
REMARK  7 active torsions:
REMARK  status: ('A' for Active; 'I' for Inactive)
REMARK    1  A    between atoms: C2_2  and  N1_3
REMARK    2  A    between atoms: C6_7  and  C7_8
REMARK    3  A    between atoms: C7_8  and  C8_9
REMARK    4  A    between atoms: C8_9  and  N2_10
REMARK    5  A    between atoms: C9_11  and  O1_12
REMARK    6  A    between atoms: C11_15  and  N3_16
REMARK    7  A    between atoms: C17_23  and  O3_24
ROOT
HETATM    1  N2  UNL     1      78.239   5.750  29.725  1.00  0.00    -0.307 N
HETATM    2  C9  UNL     1      77.993   6.996  29.270  1.00  0.00     0.146 A
HETATM    3  C10 UNL     1      78.079   7.026  27.900  1.00  0.00     0.089 A
HETATM    4  C11 UNL     1      78.392   5.738  27.509  1.00  0.00     0.086 A
HETATM    5  C17 UNL     1      78.483   4.981  28.648  1.00  0.00     0.171 A
ENDROOT
BRANCH   1   6
HETATM    6  C8  UNL     1      78.228   5.365  31.120  1.00  0.00     0.135 C
BRANCH   6   7
HETATM    7  C7  UNL     1      79.612   5.001  31.587  1.00  0.00     0.056 C
BRANCH   7   8
HETATM    8  C6  UNL     1      80.405   6.194  32.047  1.00  0.00     0.224 C
HETATM    9  N1  UNL     1      81.811   5.911  31.871  1.00  0.00     0.092 N
HETATM   10  C3  UNL     1      82.249   5.233  33.068  1.00  0.00     0.273 C
HETATM   11  C4  UNL     1      81.201   5.469  34.134  1.00  0.00     0.032 C
HETATM   12  C5  UNL     1      80.291   6.505  33.498  1.00  0.00     0.037 C
BRANCH   9  13
HETATM   13  C2  UNL     1      82.608   7.106  31.712  1.00  0.00     0.268 C
HETATM   14  C1  UNL     1      82.181   7.810  30.434  1.00  0.00     0.037 C
ENDBRANCH   9  13
ENDBRANCH   7   8
ENDBRANCH   6   7
ENDBRANCH   1   6
BRANCH   2  15
HETATM   15  O1  UNL     1      77.699   8.069  30.096  1.00  0.00    -0.346 OA
ATOM     16  H1  UNL     1      76.918   8.603  30.005  1.00  0.00     0.219 HD
ENDBRANCH   2  15
BRANCH   5  17
HETATM   17  O3  UNL     1      78.781   3.632  28.679  1.00  0.00    -0.344 OA
ATOM     18  H3  UNL     1      79.525   3.223  28.254  1.00  0.00     0.219 HD
ENDBRANCH   5  17
BRANCH   4  19
HETATM   19  N3  UNL     1      78.563   5.359  26.165  1.00  0.00    -0.373 N
HETATM   20  C12 UNL     1      79.813   4.726  25.716  1.00  0.00     0.149 C
HETATM   21  C13 UNL     1      79.456   3.783  24.609  1.00  0.00     0.188 C
HETATM   22  O2  UNL     1      79.021   4.477  23.483  1.00  0.00    -0.383 OA
HETATM   23  C14 UNL     1      78.386   5.667  23.817  1.00  0.00     0.135 C
HETATM   24  C15 UNL     1      77.396   5.978  22.715  1.00  0.00     0.041 C
HETATM   25  C16 UNL     1      77.574   5.542  25.110  1.00  0.00     0.154 C
ENDBRANCH   4  19
TORSDOF 7
ENDMDL