MODEL 5
REMARK VINA RESULT: -6.651120431      1.854      2.622
REMARK  7 active torsions:
REMARK  status: ('A' for Active; 'I' for Inactive)
REMARK    1  A    between atoms: N1_7  and  C7_8
REMARK    2  A    between atoms: C9_10  and  O1_11
REMARK    3  A    between atoms: N2_13  and  C10_14
REMARK    4  A    between atoms: C10_14  and  C11_15
REMARK    5  A    between atoms: C11_15  and  C12_16
REMARK    6  A    between atoms: C12_16  and  N3_17
REMARK    7  A    between atoms: C17_23  and  O3_24
ROOT
HETATM    1  C7  UNL     1      82.034   5.672  30.050  1.00  0.00     0.086 A
HETATM    2  C8  UNL     1      82.950   5.062  29.183  1.00  0.00     0.089 A
HETATM    3  C9  UNL     1      82.898   5.674  27.971  1.00  0.00     0.146 A
HETATM    4  N2  UNL     1      81.975   6.653  28.049  1.00  0.00    -0.307 N
HETATM    5  C17 UNL     1      81.450   6.662  29.290  1.00  0.00     0.171 A
ENDROOT
BRANCH   4   6
HETATM    6  C10 UNL     1      81.606   7.552  26.976  1.00  0.00     0.135 C
BRANCH   6   7
HETATM    7  C11 UNL     1      80.894   6.825  25.852  1.00  0.00     0.050 C
BRANCH   7   8
HETATM    8  C12 UNL     1      79.455   6.703  26.237  1.00  0.00     0.274 C
BRANCH   8   9
HETATM    9  N3  UNL     1      78.975   5.351  26.384  1.00  0.00     0.092 N
HETATM   10  C13 UNL     1      77.710   5.285  25.650  1.00  0.00     0.298 C
HETATM   11  C14 UNL     1      77.882   5.510  24.183  1.00  0.00     0.198 C
HETATM   12  O2  UNL     1      78.901   4.711  23.654  1.00  0.00    -0.388 OA
HETATM   13  C15 UNL     1      79.297   3.765  24.566  1.00  0.00     0.198 C
HETATM   14  C16 UNL     1      79.913   4.421  25.806  1.00  0.00     0.298 C
ENDBRANCH   8   9
ENDBRANCH   7   8
ENDBRANCH   6   7
ENDBRANCH   4   6
BRANCH   3  15
HETATM   15  O1  UNL     1      83.686   5.310  26.872  1.00  0.00    -0.346 OA
ATOM     16  H1  UNL     1      83.371   5.283  25.976  1.00  0.00     0.219 HD
ENDBRANCH   3  15
BRANCH   5  17
HETATM   17  O3  UNL     1      80.484   7.537  29.699  1.00  0.00    -0.344 OA
ATOM     18  H3  UNL     1      80.534   8.485  29.677  1.00  0.00     0.219 HD
ENDBRANCH   5  17
BRANCH   1  19
HETATM   19  N1  UNL     1      81.813   5.305  31.389  1.00  0.00    -0.373 N
HETATM   20  C2  UNL     1      82.935   5.323  32.324  1.00  0.00     0.080 C
HETATM   21  C1  UNL     1      83.327   6.707  32.727  1.00  0.00     0.032 C
HETATM   22  C3  UNL     1      82.646   4.468  33.547  1.00  0.00     0.025 C
HETATM   23  C4  UNL     1      81.443   4.978  34.297  1.00  0.00     0.004 C
HETATM   24  C5  UNL     1      80.386   5.491  33.374  1.00  0.00     0.020 C
HETATM   25  C6  UNL     1      80.559   4.898  31.967  1.00  0.00     0.123 C
ENDBRANCH   1  19
TORSDOF 7
ENDMDL