MODEL 2
REMARK VINA RESULT: -6.217189033      3.964      6.303
REMARK  6 active torsions:
REMARK  status: ('A' for Active; 'I' for Inactive)
REMARK    1  A    between atoms: C2_2  and  C4_4
REMARK    2  A    between atoms: C4_4  and  C5_5
REMARK    3  A    between atoms: C5_5  and  N1_6
REMARK    4  A    between atoms: N3_13  and  C10_14
REMARK    5  A    between atoms: C10_14  and  C11_15
REMARK    6  A    between atoms: C11_15  and  O1_16
ROOT
HETATM    1  N1  UNL     1      81.732   6.262  28.912  1.00  0.00    -0.345 N
HETATM    2  C6  UNL     1      82.959   6.774  28.590  1.00  0.00     0.022 A
HETATM    3  C7  UNL     1      83.165   6.584  27.254  1.00  0.00    -0.005 A
HETATM    4  C8  UNL     1      82.040   5.944  26.752  1.00  0.00     0.071 A
HETATM    5  N2  UNL     1      81.685   5.514  25.529  1.00  0.00    -0.350 N
ATOM      6  H2  UNL     1      82.342   5.661  24.763  1.00  0.00     0.166 HD
HETATM    7  C9  UNL     1      80.522   4.905  25.249  1.00  0.00     0.184 A
HETATM    8  N3  UNL     1      79.682   4.729  26.282  1.00  0.00    -0.330 N
HETATM    9  C12 UNL     1      79.968   5.133  27.538  1.00  0.00     0.133 A
HETATM   10  S1  UNL     1      78.863   4.867  28.701  1.00  0.00    -0.058 SA
HETATM   11  C13 UNL     1      81.170   5.759  27.811  1.00  0.00     0.101 A
HETATM   12  C14 UNL     1      84.266   6.913  26.358  1.00  0.00     0.070 C
HETATM   13  C15 UNL     1      85.470   7.523  26.971  1.00  0.00     0.237 C
HETATM   14  N4  UNL     1      85.027   8.579  27.849  1.00  0.00    -0.074 N
ATOM     15  H41 UNL     1      84.127   8.974  27.576  1.00  0.00     0.277 HD
ATOM     16  H42 UNL     1      85.577   9.433  27.758  1.00  0.00     0.277 HD
HETATM   17  C16 UNL     1      85.027   8.052  29.173  1.00  0.00     0.238 C
HETATM   18  C17 UNL     1      83.782   7.393  29.619  1.00  0.00     0.085 C
ENDROOT
BRANCH   1  19
HETATM   19  C5  UNL     1      81.119   6.245  30.227  1.00  0.00     0.129 C
BRANCH  19  20
HETATM   20  C4  UNL     1      81.695   5.215  31.158  1.00  0.00     0.024 C
BRANCH  20  21
HETATM   21  C2  UNL     1      80.564   4.815  32.106  1.00  0.00    -0.021 C
HETATM   22  C1  UNL     1      79.866   6.104  32.494  1.00  0.00     0.009 C
HETATM   23  C3  UNL     1      81.104   4.079  33.311  1.00  0.00     0.009 C
ENDBRANCH  20  21
ENDBRANCH  19  20
ENDBRANCH   1  19
BRANCH   8  24
HETATM   24  C10 UNL     1      78.402   4.070  26.026  1.00  0.00     0.156 C
BRANCH  24  25
HETATM   25  C11 UNL     1      77.607   4.919  25.036  1.00  0.00     0.184 C
BRANCH  25  26
HETATM   26  O1  UNL     1      76.421   4.297  24.737  1.00  0.00    -0.399 OA
ATOM     27  H1  UNL     1      76.496   3.844  23.905  1.00  0.00     0.209 HD
ENDBRANCH  25  26
ENDBRANCH  24  25
ENDBRANCH   8  24
TORSDOF 6
ENDMDL