MODEL 2
REMARK VINA RESULT: -7.375448048      1.133      1.314
REMARK  6 active torsions:
REMARK  status: ('A' for Active; 'I' for Inactive)
REMARK    1  A    between atoms: C2_2  and  O1_4
REMARK    2  A    between atoms: O1_4  and  C4_5
REMARK    3  A    between atoms: C8_12  and  N3_13
REMARK    4  A    between atoms: N3_13  and  C9_15
REMARK    5  A    between atoms: C9_15  and  C10_16
REMARK    6  A    between atoms: N6_24  and  C15_25
ROOT
HETATM    1  C4  UNL     1      80.503   5.271  30.270  1.00  0.00     0.169 A
HETATM    2  C5  UNL     1      79.231   5.373  29.785  1.00  0.00     0.125 A
HETATM    3  C6  UNL     1      77.993   5.212  30.480  1.00  0.00     0.106 C
HETATM    4  N1  UNL     1      76.971   5.086  31.023  1.00  0.00    -0.191 NA
HETATM    5  C7  UNL     1      79.267   5.677  28.428  1.00  0.00     0.104 A
HETATM    6  N2  UNL     1      78.313   5.886  27.480  1.00  0.00    -0.188 N
ATOM      7  H2  UNL     1      77.328   5.825  27.736  1.00  0.00     0.184 HD
HETATM    8  C8  UNL     1      78.650   6.172  26.214  1.00  0.00     0.680 A
HETATM    9  N4  UNL     1      79.933   6.255  25.869  1.00  0.00    -0.177 N
ATOM     10  H4  UNL     1      80.184   6.474  24.904  1.00  0.00     0.185 HD
HETATM   11  C13 UNL     1      80.916   6.052  26.795  1.00  0.00     0.161 A
HETATM   12  N5  UNL     1      82.276   6.144  26.421  1.00  0.00    -0.080 NA
HETATM   13  C14 UNL     1      80.607   5.752  28.121  1.00  0.00     0.108 A
HETATM   14  N6  UNL     1      81.337   5.511  29.214  1.00  0.00    -0.317 N
ENDROOT
BRANCH   1  15
HETATM   15  O1  UNL     1      80.934   4.999  31.496  1.00  0.00    -0.330 OA
BRANCH  15  16
HETATM   16  C2  UNL     1      80.449   4.806  32.739  1.00  0.00     0.122 C
HETATM   17  C1  UNL     1      80.151   6.199  33.339  1.00  0.00     0.040 C
HETATM   18  C3  UNL     1      81.394   4.061  33.679  1.00  0.00     0.040 C
ENDBRANCH  15  16
ENDBRANCH   1  15
BRANCH  14  19
HETATM   19  C15 UNL     1      82.759   5.499  29.289  1.00  0.00     0.092 A
HETATM   20  C16 UNL     1      83.403   6.792  29.695  1.00  0.00     0.028 A
HETATM   21  C17 UNL     1      83.535   5.556  30.541  1.00  0.00     0.028 A
ENDBRANCH  14  19
BRANCH   8  22
HETATM   22  N3  UNL     1      77.727   6.360  25.356  1.00  0.00    -0.226 N
ATOM     23  H3  UNL     1      77.212   7.238  25.433  1.00  0.00     0.177 HD
BRANCH  22  24
HETATM   24  C9  UNL     1      77.329   5.485  24.301  1.00  0.00     0.142 C
BRANCH  24  25
HETATM   25  C10 UNL     1      76.953   6.230  23.036  1.00  0.00     0.004 A
HETATM   26  C11 UNL     1      75.516   6.034  22.566  1.00  0.00     0.007 A
HETATM   27  C12 UNL     1      75.939   7.355  23.138  1.00  0.00     0.007 A
ENDBRANCH  24  25
ENDBRANCH  22  24
ENDBRANCH   8  22
TORSDOF 6
ENDMDL