MODEL 1
REMARK VINA RESULT: -7.533472138      0.000      0.000
REMARK  7 active torsions:
REMARK  status: ('A' for Active; 'I' for Inactive)
REMARK    1  A    between atoms: C2_2  and  C3_3
REMARK    2  A    between atoms: C3_3  and  C4_4
REMARK    3  A    between atoms: C4_4  and  C5_5
REMARK    4  A    between atoms: C5_5  and  C6_6
REMARK    5  A    between atoms: C6_6  and  N1_7
REMARK       I    between atoms: N1_7  and  C7_9
REMARK    6  A    between atoms: C7_9  and  O2_11
REMARK    7  A    between atoms: C13_17  and  O3_18
ROOT
HETATM    1  C5  UNL     1      79.921   5.442  27.790  1.00  0.00     0.044 C
HETATM    2  C9  UNL     1      79.655   4.659  26.590  1.00  0.00     0.073 C
HETATM    3  C10 UNL     1      80.478   4.458  25.441  1.00  0.00    -0.006 C
HETATM    4  C11 UNL     1      80.892   5.462  24.466  1.00  0.00     0.010 C
HETATM    5  C12 UNL     1      79.375   3.712  24.589  1.00  0.00     0.042 C
HETATM    6  C13 UNL     1      78.340   4.856  24.647  1.00  0.00     0.184 C
HETATM    7  C14 UNL     1      78.475   5.449  25.963  1.00  0.00     0.231 C
HETATM    8  O4  UNL     1      77.398   5.469  26.778  1.00  0.00    -0.194 OA
HETATM    9  O5  UNL     1      77.732   6.256  27.772  1.00  0.00    -0.197 OA
HETATM   10  C15 UNL     1      79.062   6.636  27.555  1.00  0.00     0.206 C
HETATM   11  C16 UNL     1      79.331   7.873  28.246  1.00  0.00     0.083 C
HETATM   12  O6  UNL     1      78.993   6.714  26.139  1.00  0.00    -0.310 OA
ENDROOT
BRANCH   1  13
HETATM   13  C4  UNL     1      81.261   5.606  28.302  1.00  0.00     0.017 C
BRANCH  13  14
HETATM   14  C3  UNL     1      82.358   6.323  27.656  1.00  0.00     0.001 C
BRANCH  14  15
HETATM   15  C2  UNL     1      83.643   5.874  28.407  1.00  0.00    -0.005 C
HETATM   16  C1  UNL     1      83.294   5.141  29.682  1.00  0.00     0.005 C
ENDBRANCH  14  15
ENDBRANCH  13  14
ENDBRANCH   1  13
BRANCH   1  17
HETATM   17  C6  UNL     1      79.188   4.680  28.937  1.00  0.00     0.140 C
BRANCH  17  18
HETATM   18  N1  UNL     1      79.638   5.208  30.215  1.00  0.00    -0.336 N
HETATM   19  C7  UNL     1      78.632   5.528  31.195  1.00  0.00     0.360 C
HETATM   20  O1  UNL     1      77.417   5.356  30.949  1.00  0.00    -0.239 OA
ATOM     21  H1  UNL     1      80.629   5.347  30.411  1.00  0.00     0.164 HD
BRANCH  19  22
HETATM   22  O2  UNL     1      79.046   6.030  32.411  1.00  0.00    -0.309 OA
HETATM   23  C8  UNL     1      80.185   5.488  33.090  1.00  0.00     0.215 C
ENDBRANCH  19  22
ENDBRANCH  17  18
ENDBRANCH   1  17
BRANCH   6  24
HETATM   24  O3  UNL     1      77.101   4.159  24.619  1.00  0.00    -0.390 OA
ATOM     25  H3  UNL     1      76.947   3.971  25.537  1.00  0.00     0.210 HD
ENDBRANCH   6  24
TORSDOF 7
ENDMDL