MODEL 4
REMARK VINA RESULT: -8.509890041      2.525      9.250
REMARK  6 active torsions:
REMARK  status: ('A' for Active; 'I' for Inactive)
REMARK    1  A    between atoms: C2_2  and  C3_3
REMARK    2  A    between atoms: C4_7  and  C5_8
REMARK    3  A    between atoms: C5_8  and  C6_9
REMARK    4  A    between atoms: C6_9  and  N2_10
REMARK    5  A    between atoms: N2_10  and  C7_12
REMARK    6  A    between atoms: C9_18  and  C10_19
ROOT
HETATM    1  C7  UNL     1      79.277   4.720  27.203  1.00  0.00     0.680 A
HETATM    2  N3  UNL     1      78.781   4.515  28.421  1.00  0.00    -0.174 N
ATOM      3  H3  UNL     1      77.876   4.059  28.533  1.00  0.00     0.186 HD
HETATM    4  C8  UNL     1      79.473   4.906  29.502  1.00  0.00     0.151 A
HETATM    5  N4  UNL     1      79.206   4.819  30.804  1.00  0.00    -0.329 N
ATOM      6  H4  UNL     1      78.359   4.404  31.193  1.00  0.00     0.168 HD
HETATM    7  C9  UNL     1      80.201   5.351  31.536  1.00  0.00     0.087 A
HETATM    8  N5  UNL     1      81.117   5.784  30.667  1.00  0.00    -0.341 N
ATOM      9  H5  UNL     1      81.995   6.239  30.917  1.00  0.00     0.167 HD
HETATM   10  C14 UNL     1      80.706   5.529  29.411  1.00  0.00     0.101 A
HETATM   11  C15 UNL     1      81.201   5.732  28.142  1.00  0.00     0.053 A
HETATM   12  C16 UNL     1      82.508   6.389  28.004  1.00  0.00     0.071 C
HETATM   13  N6  UNL     1      80.459   5.316  27.082  1.00  0.00    -0.194 N
ATOM     14  H6  UNL     1      80.830   5.469  26.145  1.00  0.00     0.184 HD
ENDROOT
BRANCH   1  15
HETATM   15  N2  UNL     1      78.625   4.351  26.166  1.00  0.00    -0.226 N
ATOM     16  H2  UNL     1      77.980   3.566  26.246  1.00  0.00     0.177 HD
BRANCH  15  17
HETATM   17  C6  UNL     1      78.771   5.006  24.879  1.00  0.00     0.146 C
BRANCH  17  18
HETATM   18  C5  UNL     1      77.795   6.160  24.794  1.00  0.00     0.107 C
BRANCH  18  19
HETATM   19  C4  UNL     1      76.631   5.793  23.912  1.00  0.00     0.149 A
HETATM   20  O1  UNL     1      75.854   4.743  23.994  1.00  0.00    -0.223 OA
HETATM   21  N1  UNL     1      74.951   4.766  23.052  1.00  0.00    -0.247 N
HETATM   22  C3  UNL     1      75.137   5.876  22.316  1.00  0.00     0.103 A
ATOM     23  H1  UNL     1      74.228   4.063  22.900  1.00  0.00     0.196 HD
HETATM   24  N7  UNL     1      76.184   6.504  22.862  1.00  0.00    -0.327 N
ATOM     25  H7  UNL     1      76.580   7.385  22.534  1.00  0.00     0.169 HD
BRANCH  22  26
HETATM   26  C2  UNL     1      74.317   6.298  21.129  1.00  0.00     0.074 C
HETATM   27  C1  UNL     1      73.592   7.567  21.436  1.00  0.00     0.013 C
ENDBRANCH  22  26
ENDBRANCH  18  19
ENDBRANCH  17  18
ENDBRANCH  15  17
ENDBRANCH   1  15
BRANCH   7  28
HETATM   28  C10 UNL     1      80.174   5.393  33.008  1.00  0.00     0.053 C
HETATM   29  C11 UNL     1      81.324   4.715  33.706  1.00  0.00     0.012 C
HETATM   30  C12 UNL     1      81.257   5.844  34.745  1.00  0.00     0.002 C
HETATM   31  C13 UNL     1      80.653   6.701  33.624  1.00  0.00     0.012 C
ENDBRANCH   7  28
TORSDOF 6
ENDMDL