MODEL 3
REMARK VINA RESULT: -6.957082144      1.289      1.837
REMARK  6 active torsions:
REMARK  status: ('A' for Active; 'I' for Inactive)
REMARK    1  A    between atoms: C3_5  and  N2_6
REMARK    2  A    between atoms: C10_15  and  N4_16
REMARK    3  A    between atoms: C11_19  and  S1_20
REMARK    4  A    between atoms: S1_20  and  C12_21
REMARK    5  A    between atoms: C12_21  and  C13_22
REMARK    6  A    between atoms: C13_22  and  O1_24
ROOT
HETATM    1  O1  UNL     1      78.085   5.218  23.409  1.00  0.00    -0.278 OA
HETATM    2  C15 UNL     1      77.103   6.158  23.303  1.00  0.00     0.228 C
HETATM    3  N5  UNL     1      76.279   6.973  23.217  1.00  0.00    -0.164 NA
ENDROOT
BRANCH   1   4
HETATM    4  C13 UNL     1      78.849   5.027  24.567  1.00  0.00     0.147 C
HETATM    5  C14 UNL     1      79.508   3.658  24.471  1.00  0.00     0.042 C
BRANCH   4   6
HETATM    6  C12 UNL     1      77.989   5.056  25.825  1.00  0.00     0.112 C
BRANCH   6   7
HETATM    7  S1  UNL     1      78.483   6.498  26.794  1.00  0.00    -0.122 SA
BRANCH   7   8
HETATM    8  C11 UNL     1      79.358   6.063  28.263  1.00  0.00     0.067 A
HETATM    9  C2  UNL     1      80.694   5.748  28.208  1.00  0.00     0.043 A
HETATM   10  C1  UNL     1      81.404   5.776  26.901  1.00  0.00     0.070 C
HETATM   11  N1  UNL     1      81.384   5.410  29.323  1.00  0.00    -0.194 N
HETATM   12  C3  UNL     1      80.771   5.376  30.517  1.00  0.00     0.682 A
ATOM     13  H1  UNL     1      82.376   5.180  29.256  1.00  0.00     0.184 HD
HETATM   14  N3  UNL     1      79.455   5.680  30.612  1.00  0.00    -0.176 N
HETATM   15  C10 UNL     1      78.747   6.022  29.496  1.00  0.00     0.133 A
ATOM     16  H3  UNL     1      78.992   5.653  31.520  1.00  0.00     0.186 HD
BRANCH  12  17
HETATM   17  N2  UNL     1      81.475   5.022  31.686  1.00  0.00    -0.218 N
HETATM   18  C4  UNL     1      82.833   5.415  31.857  1.00  0.00     0.141 C
HETATM   19  C5  UNL     1      82.986   6.783  32.487  1.00  0.00     0.020 C
HETATM   20  C6  UNL     1      82.422   6.817  33.889  1.00  0.00     0.002 C
HETATM   21  C7  UNL     1      81.033   6.277  33.987  1.00  0.00     0.002 C
HETATM   22  C8  UNL     1      81.113   4.758  34.058  1.00  0.00     0.020 C
HETATM   23  C9  UNL     1      80.703   4.249  32.672  1.00  0.00     0.141 C
ENDBRANCH  12  17
BRANCH  15  24
HETATM   24  N4  UNL     1      77.495   6.318  29.544  1.00  0.00    -0.384 N
ATOM     25  H42 UNL     1      76.978   6.031  30.374  1.00  0.00     0.157 HD
ATOM     26  H41 UNL     1      77.027   6.817  28.788  1.00  0.00     0.157 HD
ENDBRANCH  15  24
ENDBRANCH   7   8
ENDBRANCH   6   7
ENDBRANCH   4   6
ENDBRANCH   1   4
TORSDOF 6
ENDMDL