MODEL 5
REMARK VINA RESULT: -9.159475374      2.243     10.925
REMARK  12 active torsions:
REMARK  status: ('A' for Active; 'I' for Inactive)
REMARK    1  A    between atoms: C3_3  and  O1_4
REMARK    2  A    between atoms: C3_3  and  C4_6
REMARK    3  A    between atoms: C3_3  and  C22_28
REMARK    4  A    between atoms: C5_7  and  C6_8
REMARK       I    between atoms: C6_8  and  N1_10
REMARK    5  A    between atoms: C12_16  and  C13_17
REMARK    6  A    between atoms: C13_17  and  O3_18
REMARK    7  A    between atoms: O3_18  and  C14_19
REMARK    8  A    between atoms: C24_30  and  C25_31
REMARK    9  A    between atoms: C25_31  and  C27_33
REMARK   10  A    between atoms: C27_33  and  O5_34
REMARK   11  A    between atoms: C27_33  and  C28_36
REMARK   12  A    between atoms: C28_36  and  O6_38
ROOT
HETATM    1  C1  UNL     1      -0.114  16.058  31.915  1.00  0.00     0.016 C
HETATM    2  C2  UNL     1       1.073  15.887  32.024  1.00  0.00    -0.065 C
HETATM    3  C3  UNL     1       2.505  15.677  32.182  1.00  0.00     0.189 C
ENDROOT
BRANCH   3   4
HETATM    4  O1  UNL     1       2.759  14.624  33.060  1.00  0.00    -0.367 OA
ATOM      5  H1  UNL     1       3.685  14.413  33.078  1.00  0.00     0.212 HD
ENDBRANCH   3   4
BRANCH   3   6
HETATM    6  C4  UNL     1       3.049  16.948  32.722  1.00  0.00    -0.044 C
HETATM    7  C5  UNL     1       3.491  17.990  33.144  1.00  0.00    -0.001 C
BRANCH   7   8
HETATM    8  C6  UNL     1       4.002  19.242  33.631  1.00  0.00     0.298 C
HETATM    9  O2  UNL     1       3.729  19.530  34.841  1.00  0.00    -0.258 OA
HETATM   10  N1  UNL     1       4.758  20.105  32.830  1.00  0.00    -0.341 N
HETATM   11  C7  UNL     1       5.037  19.735  31.476  1.00  0.00     0.129 C
HETATM   12  C21 UNL     1       5.242  21.341  33.366  1.00  0.00     0.129 C
HETATM   13  C8  UNL     1       5.192  20.920  30.558  1.00  0.00     0.058 C
HETATM   14  C9  UNL     1       6.102  21.975  31.078  1.00  0.00     0.064 C
HETATM   15  C10 UNL     1       5.623  23.374  30.738  1.00  0.00     0.041 C
HETATM   16  O4  UNL     1       7.329  21.886  30.420  1.00  0.00    -0.373 OA
HETATM   17  C20 UNL     1       6.375  21.919  32.543  1.00  0.00     0.058 C
HETATM   18  C11 UNL     1       6.925  24.152  30.780  1.00  0.00     0.037 C
HETATM   19  C12 UNL     1       7.972  23.079  30.732  1.00  0.00     0.146 C
BRANCH  19  20
HETATM   20  C13 UNL     1       9.014  23.318  29.668  1.00  0.00     0.200 C
BRANCH  20  21
HETATM   21  O3  UNL     1      10.104  22.502  29.888  1.00  0.00    -0.383 OA
BRANCH  21  22
HETATM   22  C14 UNL     1      11.288  23.177  29.601  1.00  0.00     0.121 C
HETATM   23  C15 UNL     1      11.192  24.574  30.127  1.00  0.00     0.032 C
HETATM   24  C16 UNL     1      12.321  24.928  31.069  1.00  0.00     0.002 C
HETATM   25  C17 UNL     1      13.641  24.662  30.397  1.00  0.00     0.000 C
HETATM   26  C18 UNL     1      13.726  23.243  29.904  1.00  0.00     0.002 C
HETATM   27  C19 UNL     1      12.478  22.453  30.227  1.00  0.00     0.032 C
ENDBRANCH  21  22
ENDBRANCH  20  21
ENDBRANCH  19  20
ENDBRANCH   7   8
ENDBRANCH   3   6
BRANCH   3  28
HETATM   28  C22 UNL     1       3.226  15.441  30.876  1.00  0.00     0.051 A
HETATM   29  C23 UNL     1       2.547  14.676  29.784  1.00  0.00     0.015 A
HETATM   30  C24 UNL     1       2.756  16.150  29.683  1.00  0.00     0.001 A
BRANCH  30  31
HETATM   31  C25 UNL     1       3.697  16.760  28.682  1.00  0.00     0.017 C
HETATM   32  C26 UNL     1       3.798  16.024  27.402  1.00  0.00     0.013 C
BRANCH  31  33
HETATM   33  C27 UNL     1       3.295  18.197  28.491  1.00  0.00     0.150 C
BRANCH  33  34
HETATM   34  O5  UNL     1       2.400  18.668  29.438  1.00  0.00    -0.393 OA
ATOM     35  H5  UNL     1       1.518  18.329  29.343  1.00  0.00     0.210 HD
ENDBRANCH  33  34
BRANCH  33  36
HETATM   36  C28 UNL     1       2.936  18.561  27.074  1.00  0.00     0.143 C
HETATM   37  C29 UNL     1       1.708  19.436  26.968  1.00  0.00     0.042 C
BRANCH  36  38
HETATM   38  O6  UNL     1       3.989  19.364  26.558  1.00  0.00    -0.393 OA
ATOM     39  H6  UNL     1       3.623  19.911  25.873  1.00  0.00     0.210 HD
ENDBRANCH  36  38
ENDBRANCH  33  36
ENDBRANCH  31  33
ENDBRANCH  30  31
ENDBRANCH   3  28
TORSDOF 12
ENDMDL