MODEL 3
REMARK VINA RESULT: -7.245017758      1.430      1.891
REMARK  8 active torsions:
REMARK  status: ('A' for Active; 'I' for Inactive)
REMARK    1  A    between atoms: C2_2  and  C4_4
REMARK    2  A    between atoms: C6_9  and  C7_10
REMARK    3  A    between atoms: C7_10  and  C9_12
REMARK    4  A    between atoms: C11_14  and  O2_15
REMARK    5  A    between atoms: C12_19  and  C13_20
REMARK    6  A    between atoms: C17_27  and  C18_28
REMARK    7  A    between atoms: C18_28  and  C19_29
REMARK    8  A    between atoms: C19_29  and  C20_30
ROOT
HETATM    1  C4  UNL     1       2.896  16.131  31.027  1.00  0.00     0.205 C
HETATM    2  C5  UNL     1       2.976  17.534  30.605  1.00  0.00     0.236 C
HETATM    3  O1  UNL     1       4.165  18.050  30.606  1.00  0.00    -0.272 OA
HETATM    4  N1  UNL     1       1.974  18.419  30.201  1.00  0.00    -0.348 N
ATOM      5  H1  UNL     1       1.914  19.266  30.766  1.00  0.00     0.163 HD
HETATM    6  C6  UNL     1       1.012  18.356  29.132  1.00  0.00     0.162 C
HETATM    7  C11 UNL     1      -0.308  18.882  29.645  1.00  0.00     0.135 C
HETATM    8  N2  UNL     1      -1.314  19.552  28.949  1.00  0.00    -0.359 N
ATOM      9  H2  UNL     1      -1.469  20.512  29.256  1.00  0.00     0.162 HD
HETATM   10  C12 UNL     1      -2.173  19.129  27.877  1.00  0.00     0.179 C
HETATM   11  C16 UNL     1      -3.621  19.194  28.323  1.00  0.00     0.241 C
HETATM   12  O3  UNL     1      -4.031  20.358  28.573  1.00  0.00    -0.271 OA
HETATM   13  N3  UNL     1      -4.486  18.115  28.469  1.00  0.00    -0.346 N
ATOM     14  H3  UNL     1      -5.478  18.350  28.523  1.00  0.00     0.163 HD
HETATM   15  C17 UNL     1      -4.177  16.727  28.554  1.00  0.00     0.176 C
HETATM   16  C22 UNL     1      -3.861  16.313  29.962  1.00  0.00     0.240 C
HETATM   17  O4  UNL     1      -4.598  16.780  30.864  1.00  0.00    -0.271 OA
HETATM   18  N4  UNL     1      -2.809  15.454  30.321  1.00  0.00    -0.359 N
ATOM     19  H4  UNL     1      -2.404  15.559  31.251  1.00  0.00     0.162 HD
HETATM   20  C23 UNL     1      -2.265  14.431  29.459  1.00  0.00     0.125 C
HETATM   21  C24 UNL     1      -1.080  13.739  30.107  1.00  0.00     0.046 C
HETATM   22  C25 UNL     1      -0.128  14.769  30.713  1.00  0.00     0.180 C
HETATM   23  O5  UNL     1       1.197  14.454  30.412  1.00  0.00    -0.321 OA
HETATM   24  C26 UNL     1       2.260  15.200  30.065  1.00  0.00     0.276 C
HETATM   25  O6  UNL     1       2.760  15.136  28.915  1.00  0.00    -0.264 OA
ENDROOT
BRANCH   6  26
HETATM   26  C7  UNL     1       1.456  19.049  27.908  1.00  0.00     0.012 C
HETATM   27  C8  UNL     1       1.522  18.074  26.729  1.00  0.00     0.012 C
BRANCH  26  28
HETATM   28  C9  UNL     1       2.686  19.881  27.971  1.00  0.00     0.002 C
HETATM   29  C10 UNL     1       2.875  20.872  26.867  1.00  0.00     0.005 C
ENDBRANCH  26  28
ENDBRANCH   6  26
BRANCH   7  30
HETATM   30  O2  UNL     1      -0.464  18.647  30.914  1.00  0.00    -0.348 OA
ATOM     31  H2  UNL     1      -1.243  19.066  31.258  1.00  0.00     0.219 HD
ENDBRANCH   7  30
BRANCH   1  32
HETATM   32  C2  UNL     1       2.431  15.916  32.411  1.00  0.00    -0.071 C
HETATM   33  C1  UNL     1       1.633  16.766  33.006  1.00  0.00     0.015 C
HETATM   34  C3  UNL     1       2.882  14.705  33.141  1.00  0.00     0.044 C
ENDBRANCH   1  32
BRANCH  10  35
HETATM   35  C13 UNL     1      -2.092  20.065  26.694  1.00  0.00     0.009 C
HETATM   36  C14 UNL     1      -1.154  21.213  26.977  1.00  0.00     0.012 C
HETATM   37  C15 UNL     1      -1.706  19.464  25.403  1.00  0.00     0.012 C
ENDBRANCH  10  35
BRANCH  15  38
HETATM   38  C18 UNL     1      -5.257  15.794  28.111  1.00  0.00     0.035 C
BRANCH  38  39
HETATM   39  C19 UNL     1      -5.029  14.951  26.926  1.00  0.00     0.002 C
BRANCH  39  40
HETATM   40  C20 UNL     1      -3.990  15.399  25.962  1.00  0.00    -0.004 C
HETATM   41  C21 UNL     1      -3.787  14.344  24.864  1.00  0.00     0.005 C
ENDBRANCH  39  40
ENDBRANCH  38  39
ENDBRANCH  15  38
TORSDOF 8
ENDMDL