MODEL 5
REMARK VINA RESULT: -6.383868143      2.036      2.644
REMARK  9 active torsions:
REMARK  status: ('A' for Active; 'I' for Inactive)
REMARK       I    between atoms: N2_9  and  C8_11
REMARK    1  A    between atoms: C8_11  and  C9_13
REMARK    2  A    between atoms: C9_13  and  C10_14
REMARK    3  A    between atoms: C10_14  and  N3_17
REMARK    4  A    between atoms: C14_23  and  C15_24
REMARK    5  A    between atoms: C15_24  and  C16_25
REMARK    6  A    between atoms: C16_25  and  C17_26
REMARK    7  A    between atoms: C17_26  and  C18_27
REMARK    8  A    between atoms: C18_27  and  N4_28
REMARK    9  A    between atoms: C20_36  and  C21_37
ROOT
HETATM    1  C1  UNL     1       1.016  13.169  29.633  1.00  0.00     0.032 C
HETATM    2  C2  UNL     1       1.190  13.868  30.936  1.00  0.00     0.085 C
HETATM    3  C3  UNL     1       0.281  15.024  31.141  1.00  0.00     0.084 C
HETATM    4  C4  UNL     1       0.378  16.048  30.001  1.00  0.00     0.044 C
HETATM    5  C5  UNL     1      -0.710  16.423  29.428  1.00  0.00     0.098 C
HETATM    6  C6  UNL     1      -1.961  15.764  29.987  1.00  0.00     0.104 C
HETATM    7  N1  UNL     1      -2.960  15.251  30.402  1.00  0.00    -0.191 NA
HETATM    8  C7  UNL     1      -1.135  17.336  28.373  1.00  0.00     0.106 C
HETATM    9  N2  UNL     1      -1.967  16.957  27.468  1.00  0.00    -0.323 N
ATOM     10  H2  UNL     1      -2.255  15.987  27.602  1.00  0.00     0.169 HD
HETATM   11  C8  UNL     1      -2.558  17.510  26.385  1.00  0.00     0.224 C
HETATM   12  O1  UNL     1      -2.142  17.177  25.217  1.00  0.00    -0.273 OA
HETATM   13  C13 UNL     1      -0.697  18.759  28.202  1.00  0.00     0.200 C
HETATM   14  O2  UNL     1      -0.658  19.152  27.013  1.00  0.00    -0.288 OA
HETATM   15  C14 UNL     1      -0.338  19.625  29.304  1.00  0.00     0.161 C
HETATM   16  N5  UNL     1       1.087  19.834  29.477  1.00  0.00    -0.344 N
ATOM     17  H5  UNL     1       1.422  20.795  29.418  1.00  0.00     0.163 HD
HETATM   18  C19 UNL     1       2.059  18.832  29.721  1.00  0.00     0.269 C
HETATM   19  O3  UNL     1       2.901  19.113  30.662  1.00  0.00    -0.266 OA
HETATM   20  C20 UNL     1       2.199  17.532  29.024  1.00  0.00     0.111 C
HETATM   21  N6  UNL     1       1.788  16.400  29.804  1.00  0.00    -0.285 N
HETATM   22  C24 UNL     1       2.808  15.588  30.377  1.00  0.00     0.179 C
HETATM   23  S1  UNL     1       4.390  15.996  30.264  1.00  0.00    -0.040 SA
HETATM   24  N7  UNL     1       2.519  14.396  31.152  1.00  0.00    -0.362 N
ATOM     25  H7  UNL     1       3.191  13.970  31.790  1.00  0.00     0.162 HD
ENDROOT
BRANCH  20  26
HETATM   26  C21 UNL     1       3.245  17.571  27.985  1.00  0.00    -0.055 C
HETATM   27  C22 UNL     1       3.550  18.827  27.273  1.00  0.00     0.045 C
HETATM   28  C23 UNL     1       3.556  16.285  27.259  1.00  0.00     0.045 C
ENDBRANCH  20  26
BRANCH  11  29
HETATM   29  C9  UNL     1      -3.679  18.491  26.369  1.00  0.00     0.141 C
BRANCH  29  30
HETATM   30  C10 UNL     1      -4.916  17.922  25.692  1.00  0.00     0.124 C
HETATM   31  C11 UNL     1      -5.339  16.615  26.367  1.00  0.00     0.046 C
HETATM   32  C12 UNL     1      -6.069  18.883  25.851  1.00  0.00     0.046 C
BRANCH  30  33
HETATM   33  N3  UNL     1      -4.730  17.670  24.282  1.00  0.00    -0.071 N
ATOM     34  H33 UNL     1      -5.421  18.178  23.729  1.00  0.00     0.275 HD
ATOM     35  H32 UNL     1      -3.879  18.119  23.943  1.00  0.00     0.275 HD
ATOM     36  H31 UNL     1      -4.736  16.678  24.045  1.00  0.00     0.275 HD
ENDBRANCH  30  33
ENDBRANCH  29  30
ENDBRANCH  11  29
BRANCH  15  37
HETATM   37  C15 UNL     1      -1.059  20.921  29.274  1.00  0.00     0.033 C
BRANCH  37  38
HETATM   38  C16 UNL     1      -2.127  21.047  30.295  1.00  0.00     0.004 C
BRANCH  38  39
HETATM   39  C17 UNL     1      -1.900  22.318  31.156  1.00  0.00     0.027 C
BRANCH  39  40
HETATM   40  C18 UNL     1      -0.872  23.183  30.439  1.00  0.00     0.229 C
BRANCH  40  41
HETATM   41  N4  UNL     1      -0.307  24.106  31.436  1.00  0.00    -0.079 N
ATOM     42  H43 UNL     1      -0.909  24.233  32.249  1.00  0.00     0.274 HD
ATOM     43  H42 UNL     1       0.499  23.718  31.927  1.00  0.00     0.274 HD
ATOM     44  H41 UNL     1      -0.098  24.981  30.955  1.00  0.00     0.274 HD
ENDBRANCH  40  41
ENDBRANCH  39  40
ENDBRANCH  38  39
ENDBRANCH  37  38
ENDBRANCH  15  37
TORSDOF 9
ENDMDL