MODEL 2
REMARK VINA RESULT: -8.187366883      1.927      3.308
REMARK  10 active torsions:
REMARK  status: ('A' for Active; 'I' for Inactive)
REMARK    1  A    between atoms: C2_2  and  C3_3
REMARK    2  A    between atoms: C3_3  and  C4_4
REMARK    3  A    between atoms: C4_4  and  C5_5
REMARK    4  A    between atoms: C5_5  and  C6_6
REMARK    5  A    between atoms: C6_6  and  C7_7
REMARK    6  A    between atoms: C7_7  and  O1_8
REMARK    7  A    between atoms: C7_7  and  C8_10
REMARK    8  A    between atoms: C9_11  and  C10_12
REMARK    9  A    between atoms: C13_15  and  O2_16
REMARK   10  A    between atoms: C16_25  and  C17_26
ROOT
HETATM    1  C10 UNL     1       2.217  19.515  28.551  1.00  0.00     0.149 C
HETATM    2  C11 UNL     1       3.229  18.680  27.800  1.00  0.00     0.044 C
HETATM    3  C12 UNL     1       2.840  17.231  27.646  1.00  0.00     0.086 C
HETATM    4  C13 UNL     1       3.870  16.257  28.007  1.00  0.00     0.111 C
HETATM    5  N1  UNL     1       4.459  15.925  29.209  1.00  0.00    -0.361 N
ATOM      6  H1  UNL     1       5.478  15.953  29.208  1.00  0.00     0.162 HD
HETATM    7  C14 UNL     1       3.851  15.534  30.495  1.00  0.00     0.182 C
HETATM    8  C15 UNL     1       2.675  14.621  30.301  1.00  0.00     0.241 C
HETATM    9  O3  UNL     1       2.993  13.366  30.391  1.00  0.00    -0.271 OA
HETATM   10  N2  UNL     1       1.330  14.929  30.046  1.00  0.00    -0.346 N
ATOM     11  H2  UNL     1       1.080  14.688  29.087  1.00  0.00     0.163 HD
HETATM   12  C16 UNL     1       0.223  15.473  30.729  1.00  0.00     0.180 C
HETATM   13  C20 UNL     1       0.121  16.998  30.741  1.00  0.00     0.253 C
HETATM   14  O4  UNL     1      -0.800  17.576  30.132  1.00  0.00    -0.270 OA
HETATM   15  N3  UNL     1       1.080  17.774  31.443  1.00  0.00    -0.235 N
HETATM   16  C21 UNL     1       1.606  17.397  32.688  1.00  0.00     0.235 C
HETATM   17  O5  UNL     1       1.212  17.493  33.878  1.00  0.00    -0.272 OA
HETATM   18  C22 UNL     1       2.999  16.701  32.556  1.00  0.00     0.090 C
HETATM   19  C23 UNL     1       3.941  17.875  32.723  1.00  0.00     0.047 C
HETATM   20  C24 UNL     1       3.808  18.074  31.225  1.00  0.00     0.134 C
HETATM   21  O6  UNL     1       2.965  19.123  30.886  1.00  0.00    -0.338 OA
HETATM   22  C25 UNL     1       1.618  18.913  30.680  1.00  0.00     0.383 C
HETATM   23  O7  UNL     1       1.316  18.804  29.314  1.00  0.00    -0.334 OA
HETATM   24  C26 UNL     1       3.347  16.723  31.099  1.00  0.00     0.060 C
ENDROOT
BRANCH   1  25
HETATM   25  C9  UNL     1       1.502  20.474  27.623  1.00  0.00     0.003 C
HETATM   26  C8  UNL     1       0.355  21.022  27.934  1.00  0.00     0.003 C
BRANCH  26  27
HETATM   27  C7  UNL     1      -0.392  21.968  27.066  1.00  0.00     0.140 C
BRANCH  27  28
HETATM   28  C6  UNL     1      -1.701  21.401  26.616  1.00  0.00     0.036 C
BRANCH  28  29
HETATM   29  C5  UNL     1      -2.257  20.270  27.433  1.00  0.00     0.003 C
BRANCH  29  30
HETATM   30  C4  UNL     1      -2.665  19.052  26.698  1.00  0.00     0.004 C
BRANCH  30  31
HETATM   31  C3  UNL     1      -1.690  17.934  26.906  1.00  0.00     0.026 C
BRANCH  31  32
HETATM   32  C2  UNL     1      -0.521  17.907  26.012  1.00  0.00    -0.037 C
HETATM   33  C1  UNL     1      -0.610  17.885  24.712  1.00  0.00     0.007 C
ENDBRANCH  31  32
ENDBRANCH  30  31
ENDBRANCH  29  30
ENDBRANCH  28  29
ENDBRANCH  27  28
BRANCH  27  34
HETATM   34  O1  UNL     1       0.328  22.428  26.007  1.00  0.00    -0.392 OA
ATOM     35  H1  UNL     1       1.192  22.034  25.987  1.00  0.00     0.210 HD
ENDBRANCH  27  34
ENDBRANCH  26  27
ENDBRANCH   1  25
BRANCH   4  36
HETATM   36  O2  UNL     1       4.330  15.560  27.007  1.00  0.00    -0.350 OA
ATOM     37  H2  UNL     1       5.000  15.998  26.494  1.00  0.00     0.219 HD
ENDBRANCH   4  36
BRANCH  12  38
HETATM   38  C17 UNL     1      -1.113  14.912  30.259  1.00  0.00     0.009 C
HETATM   39  C18 UNL     1      -2.072  14.965  31.401  1.00  0.00     0.012 C
HETATM   40  C19 UNL     1      -0.852  13.446  29.929  1.00  0.00     0.012 C
ENDBRANCH  12  38
TORSDOF 10
ENDMDL