MODEL 4
REMARK VINA RESULT: -6.887183577      1.429      1.940
REMARK  8 active torsions:
REMARK  status: ('A' for Active; 'I' for Inactive)
REMARK    1  A    between atoms: C2_2  and  C4_4
REMARK    2  A    between atoms: C4_4  and  C5_5
REMARK    3  A    between atoms: C5_5  and  C7_7
REMARK    4  A    between atoms: C7_7  and  C8_8
REMARK    5  A    between atoms: C10_13  and  C11_14
REMARK    6  A    between atoms: C11_14  and  C12_15
REMARK    7  A    between atoms: C16_22  and  C17_23
REMARK    8  A    between atoms: C23_33  and  O5_34
ROOT
HETATM    1  C8  UNL     1       1.663  17.676  28.198  1.00  0.00     0.090 C
HETATM    2  N1  UNL     1       1.054  17.816  26.917  1.00  0.00    -0.354 N
ATOM      3  H1  UNL     1       1.574  17.405  26.141  1.00  0.00     0.162 HD
HETATM    4  C9  UNL     1      -0.151  18.433  26.568  1.00  0.00     0.240 C
HETATM    5  O1  UNL     1      -0.094  19.117  25.476  1.00  0.00    -0.271 OA
HETATM    6  C10 UNL     1      -1.447  18.423  27.244  1.00  0.00     0.177 C
HETATM    7  N2  UNL     1      -1.409  18.707  28.664  1.00  0.00    -0.346 N
ATOM      8  H2  UNL     1      -1.460  17.904  29.291  1.00  0.00     0.163 HD
HETATM    9  C15 UNL     1      -1.310  19.967  29.266  1.00  0.00     0.241 C
HETATM   10  O2  UNL     1      -1.128  19.982  30.539  1.00  0.00    -0.271 OA
HETATM   11  C16 UNL     1      -1.386  21.298  28.628  1.00  0.00     0.180 C
HETATM   12  N3  UNL     1      -0.444  22.150  29.358  1.00  0.00    -0.345 N
ATOM     13  H3  UNL     1      -0.454  22.052  30.373  1.00  0.00     0.163 HD
HETATM   14  C20 UNL     1       0.466  23.075  28.850  1.00  0.00     0.250 C
HETATM   15  O3  UNL     1       0.277  24.318  29.133  1.00  0.00    -0.271 OA
HETATM   16  C21 UNL     1       1.658  22.838  28.009  1.00  0.00     0.247 A
HETATM   17  O4  UNL     1       1.801  23.459  26.780  1.00  0.00    -0.360 OA
HETATM   18  C22 UNL     1       1.651  21.983  26.933  1.00  0.00     0.215 A
HETATM   19  C23 UNL     1       3.021  21.365  26.666  1.00  0.00     0.288 C
HETATM   20  O6  UNL     1       2.995  20.006  26.535  1.00  0.00    -0.358 OA
HETATM   21  C24 UNL     1       3.516  19.295  27.621  1.00  0.00     0.177 C
HETATM   22  C25 UNL     1       2.445  18.914  28.607  1.00  0.00     0.028 C
HETATM   23  C26 UNL     1       2.966  18.684  30.002  1.00  0.00     0.014 C
ENDROOT
BRANCH   1  24
HETATM   24  C7  UNL     1       2.533  16.489  28.426  1.00  0.00     0.029 C
BRANCH  24  25
HETATM   25  C5  UNL     1       2.047  15.386  29.286  1.00  0.00    -0.016 C
HETATM   26  C6  UNL     1       0.575  15.669  29.569  1.00  0.00     0.010 C
BRANCH  25  27
HETATM   27  C4  UNL     1       2.847  14.960  30.440  1.00  0.00     0.008 C
BRANCH  27  28
HETATM   28  C2  UNL     1       2.190  14.187  31.530  1.00  0.00    -0.023 C
HETATM   29  C1  UNL     1       2.120  12.698  31.354  1.00  0.00     0.009 C
HETATM   30  C3  UNL     1       2.968  14.408  32.840  1.00  0.00     0.009 C
ENDBRANCH  27  28
ENDBRANCH  25  27
ENDBRANCH  24  25
ENDBRANCH   1  24
BRANCH   6  31
HETATM   31  C11 UNL     1      -2.328  17.245  27.030  1.00  0.00     0.038 C
BRANCH  31  32
HETATM   32  C12 UNL     1      -2.823  16.966  25.654  1.00  0.00    -0.020 C
HETATM   33  C13 UNL     1      -3.662  15.750  25.455  1.00  0.00     0.009 C
HETATM   34  C14 UNL     1      -3.653  18.153  25.131  1.00  0.00     0.009 C
ENDBRANCH  31  32
ENDBRANCH   6  31
BRANCH  19  35
HETATM   35  O5  UNL     1       3.938  21.840  27.575  1.00  0.00    -0.369 OA
ATOM     36  H5  UNL     1       3.974  21.267  28.331  1.00  0.00     0.212 HD
ENDBRANCH  19  35
BRANCH  11  37
HETATM   37  C17 UNL     1      -2.739  21.945  28.883  1.00  0.00     0.009 C
HETATM   38  C18 UNL     1      -2.974  23.225  28.173  1.00  0.00     0.012 C
HETATM   39  C19 UNL     1      -3.890  21.015  28.609  1.00  0.00     0.012 C
ENDBRANCH  11  37
TORSDOF 8
ENDMDL