MODEL 5
REMARK VINA RESULT: -9.924005007      1.634      2.263
REMARK  8 active torsions:
REMARK  status: ('A' for Active; 'I' for Inactive)
REMARK       I    between atoms: C1_2  and  N1_3
REMARK       I    between atoms: C1_2  and  N2_13
REMARK    1  A    between atoms: N1_3  and  C2_5
REMARK    2  A    between atoms: C2_5  and  C3_6
REMARK    3  A    between atoms: N2_13  and  S1_15
REMARK    4  A    between atoms: S1_15  and  N3_18
REMARK    5  A    between atoms: N3_18  and  S2_20
REMARK    6  A    between atoms: S2_20  and  N4_23
REMARK       I    between atoms: N4_23  and  C10_25
REMARK    7  A    between atoms: C10_25  and  O7_27
REMARK    8  A    between atoms: O7_27  and  C11_28
ROOT
HETATM    1  N3  UNL     1       2.453  24.232  29.114  1.00  0.00    -0.177 N
ATOM      2  H3  UNL     1       1.995  23.699  29.853  1.00  0.00     0.195 HD
ENDROOT
BRANCH   1   3
HETATM    3  S1  UNL     1       3.459  25.606  29.347  1.00  0.00     0.337 S
HETATM    4  O2  UNL     1       3.335  26.041  30.793  1.00  0.00    -0.181 OA
HETATM    5  O3  UNL     1       3.000  26.745  28.455  1.00  0.00    -0.181 OA
BRANCH   3   6
HETATM    6  N2  UNL     1       5.089  25.179  28.995  1.00  0.00    -0.218 N
HETATM    7  C1  UNL     1       5.760  24.166  29.713  1.00  0.00     0.330 C
HETATM    8  O1  UNL     1       5.149  23.532  30.643  1.00  0.00    -0.246 OA
HETATM    9  N1  UNL     1       7.104  23.863  29.398  1.00  0.00    -0.342 N
ATOM     10  H1  UNL     1       7.590  24.371  28.660  1.00  0.00     0.164 HD
ATOM     11  H2  UNL     1       5.583  25.670  28.250  1.00  0.00     0.185 HD
BRANCH   9  12
HETATM   12  C2  UNL     1       7.776  22.823  30.142  1.00  0.00     0.129 C
BRANCH  12  13
HETATM   13  C3  UNL     1       9.140  23.264  30.549  1.00  0.00     0.008 C
HETATM   14  C4  UNL     1       9.175  24.562  31.325  1.00  0.00     0.011 C
HETATM   15  C5  UNL     1      10.424  25.201  30.747  1.00  0.00    -0.014 C
HETATM   16  C6  UNL     1      11.623  24.312  30.942  1.00  0.00     0.005 C
HETATM   17  C9  UNL     1      10.139  24.937  29.256  1.00  0.00     0.010 C
HETATM   18  C7  UNL     1      11.486  23.168  29.937  1.00  0.00     0.005 C
HETATM   19  C8  UNL     1      10.093  23.404  29.396  1.00  0.00    -0.009 C
ENDBRANCH  12  13
ENDBRANCH   9  12
ENDBRANCH   3   6
ENDBRANCH   1   3
BRANCH   1  20
HETATM   20  S2  UNL     1       2.345  23.901  27.405  1.00  0.00     0.337 S
HETATM   21  O4  UNL     1       1.253  24.820  26.888  1.00  0.00    -0.181 OA
HETATM   22  O5  UNL     1       3.638  24.282  26.777  1.00  0.00    -0.181 OA
BRANCH  20  23
HETATM   23  N4  UNL     1       1.931  22.244  27.151  1.00  0.00    -0.212 N
HETATM   24  C10 UNL     1       2.633  21.242  27.860  1.00  0.00     0.375 C
HETATM   25  O6  UNL     1       3.529  21.589  28.661  1.00  0.00    -0.237 OA
ATOM     26  H4  UNL     1       1.189  21.992  26.497  1.00  0.00     0.185 HD
BRANCH  24  27
HETATM   27  O7  UNL     1       2.394  19.891  27.722  1.00  0.00    -0.297 OA
BRANCH  27  28
HETATM   28  C11 UNL     1       3.167  18.849  28.223  1.00  0.00     0.142 C
HETATM   29  C12 UNL     1       2.604  17.588  27.524  1.00  0.00     0.016 C
HETATM   30  C13 UNL     1       1.207  17.328  27.981  1.00  0.00     0.012 C
HETATM   31  C17 UNL     1       3.475  16.409  27.790  1.00  0.00     0.012 C
HETATM   32  C14 UNL     1       1.164  17.049  29.470  1.00  0.00    -0.013 C
HETATM   33  C15 UNL     1       2.018  15.842  29.737  1.00  0.00     0.009 C
HETATM   34  C20 UNL     1       1.696  18.262  30.167  1.00  0.00     0.012 C
HETATM   35  C16 UNL     1       3.422  16.131  29.279  1.00  0.00    -0.013 C
HETATM   36  C18 UNL     1       3.933  17.348  29.977  1.00  0.00     0.012 C
HETATM   37  C19 UNL     1       3.090  18.586  29.677  1.00  0.00     0.016 C
ENDBRANCH  27  28
ENDBRANCH  24  27
ENDBRANCH  20  23
ENDBRANCH   1  20
TORSDOF 8
ENDMDL