MODEL 2
REMARK VINA RESULT: -8.584820704      1.311      1.530
REMARK  7 active torsions:
REMARK  status: ('A' for Active; 'I' for Inactive)
REMARK    1  A    between atoms: C6_6  and  C7_7
REMARK    2  A    between atoms: C7_7  and  S1_8
REMARK    3  A    between atoms: S1_8  and  N1_11
REMARK    4  A    between atoms: N1_11  and  C8_13
REMARK       I    between atoms: N2_16  and  C11_17
REMARK    5  A    between atoms: C11_17  and  C12_19
REMARK    6  A    between atoms: C15_22  and  N3_23
REMARK    7  A    between atoms: N3_23  and  C16_25
ROOT
HETATM    1  C8  UNL     1       3.722  23.356  28.462  1.00  0.00     0.096 C
HETATM    2  C9  UNL     1       4.442  22.615  29.534  1.00  0.00     0.045 C
HETATM    3  C10 UNL     1       5.725  23.338  29.893  1.00  0.00     0.128 C
HETATM    4  N2  UNL     1       6.572  23.281  28.713  1.00  0.00    -0.350 N
HETATM    5  C11 UNL     1       7.945  22.917  28.731  1.00  0.00     0.250 C
HETATM    6  O3  UNL     1       8.537  22.897  27.598  1.00  0.00    -0.271 OA
HETATM    7  C20 UNL     1       5.921  23.628  27.462  1.00  0.00     0.128 C
HETATM    8  C21 UNL     1       4.652  24.369  27.826  1.00  0.00     0.045 C
ENDROOT
BRANCH   1   9
HETATM    9  N1  UNL     1       3.259  22.499  27.390  1.00  0.00    -0.315 N
ATOM     10  H1  UNL     1       3.855  22.112  26.659  1.00  0.00     0.172 HD
BRANCH   9  11
HETATM   11  S1  UNL     1       1.518  22.216  27.523  1.00  0.00     0.227 S
HETATM   12  O1  UNL     1       1.064  23.585  28.035  1.00  0.00    -0.206 OA
HETATM   13  O2  UNL     1       1.042  22.076  26.144  1.00  0.00    -0.206 OA
BRANCH  11  14
HETATM   14  C7  UNL     1       1.258  20.959  28.631  1.00  0.00     0.175 C
BRANCH  14  15
HETATM   15  C6  UNL     1       1.963  19.696  28.679  1.00  0.00    -0.002 C
HETATM   16  C2  UNL     1       1.359  18.370  28.546  1.00  0.00    -0.028 C
HETATM   17  C1  UNL     1       0.381  18.052  27.462  1.00  0.00     0.016 C
HETATM   18  C3  UNL     1       1.035  17.617  29.812  1.00  0.00     0.016 C
HETATM   19  C4  UNL     1       2.731  17.862  28.038  1.00  0.00     0.056 C
HETATM   20  C5  UNL     1       2.973  19.322  27.650  1.00  0.00     0.025 C
HETATM   21  C23 UNL     1       3.560  17.547  29.200  1.00  0.00     0.078 C
HETATM   22  N5  UNL     1       3.560  18.558  30.203  1.00  0.00    -0.383 N
HETATM   23  S2  UNL     1       4.392  16.158  29.297  1.00  0.00    -0.065 SA
HETATM   24  C22 UNL     1       2.739  19.692  30.028  1.00  0.00     0.131 C
ATOM     25  H5  UNL     1       4.144  18.464  31.035  1.00  0.00     0.160 HD
ENDBRANCH  14  15
ENDBRANCH  11  14
ENDBRANCH   9  11
ENDBRANCH   1   9
BRANCH   5  26
HETATM   26  C12 UNL     1       8.706  22.566  29.960  1.00  0.00     0.277 C
HETATM   27  C13 UNL     1       9.097  23.788  30.700  1.00  0.00     0.045 C
HETATM   28  C14 UNL     1      10.535  24.153  30.752  1.00  0.00     0.029 C
HETATM   29  C15 UNL     1      11.527  23.054  30.692  1.00  0.00     0.102 C
HETATM   30  C19 UNL     1      10.753  21.725  30.682  1.00  0.00     0.257 C
HETATM   31  N4  UNL     1       9.837  21.752  29.552  1.00  0.00    -0.060 N
ATOM     32  H42 UNL     1       9.570  20.823  29.226  1.00  0.00     0.278 HD
ATOM     33  H41 UNL     1      10.272  22.070  28.686  1.00  0.00     0.278 HD
BRANCH  29  34
HETATM   34  N3  UNL     1      12.444  23.055  29.618  1.00  0.00    -0.411 N
ATOM     35  H3  UNL     1      12.225  22.544  28.762  1.00  0.00     0.154 HD
BRANCH  34  36
HETATM   36  C16 UNL     1      13.662  23.759  29.724  1.00  0.00     0.077 A
HETATM   37  C17 UNL     1      14.552  23.638  30.909  1.00  0.00     0.027 A
HETATM   38  C18 UNL     1      13.918  24.963  30.522  1.00  0.00     0.027 A
ENDBRANCH  34  36
ENDBRANCH  29  34
ENDBRANCH   5  26
TORSDOF 7
ENDMDL