MODEL 4
REMARK VINA RESULT: -6.451961873      1.206      1.214
REMARK  11 active torsions:
REMARK  status: ('A' for Active; 'I' for Inactive)
REMARK    1  A    between atoms: C2_2  and  C3_3
REMARK    2  A    between atoms: C3_3  and  C6_6
REMARK    3  A    between atoms: C7_7  and  C8_8
REMARK    4  A    between atoms: C11_13  and  N2_14
REMARK       I    between atoms: N2_14  and  C12_16
REMARK    5  A    between atoms: C12_16  and  C13_18
REMARK    6  A    between atoms: C13_18  and  N3_20
REMARK    7  A    between atoms: C17_26  and  O3_27
REMARK    8  A    between atoms: C18_29  and  C19_30
REMARK    9  A    between atoms: C21_33  and  C23_35
REMARK   10  A    between atoms: C23_35  and  S1_36
REMARK   11  A    between atoms: C25_38  and  O5_39
ROOT
HETATM    1  C6  UNL     1       1.341  16.736  29.690  1.00  0.00     0.079 C
HETATM    2  C7  UNL     1       2.731  17.002  30.189  1.00  0.00     0.100 C
HETATM    3  N1  UNL     1       2.436  18.409  30.179  1.00  0.00    -0.306 N
HETATM    4  C10 UNL     1       3.073  19.669  30.279  1.00  0.00     0.269 C
HETATM    5  O1  UNL     1       4.087  19.681  31.018  1.00  0.00    -0.266 OA
HETATM    6  C11 UNL     1       2.764  20.966  29.677  1.00  0.00     0.086 C
HETATM    7  C15 UNL     1       1.516  21.116  28.944  1.00  0.00     0.058 C
HETATM    8  C16 UNL     1       0.397  20.394  29.670  1.00  0.00     0.060 C
HETATM    9  C17 UNL     1       0.342  19.011  29.045  1.00  0.00     0.137 C
HETATM   10  C18 UNL     1       1.009  19.221  27.724  1.00  0.00     0.014 C
HETATM   11  C21 UNL     1       1.297  20.665  27.565  1.00  0.00     0.004 C
HETATM   12  C22 UNL     1       2.444  20.793  26.598  1.00  0.00     0.022 C
HETATM   13  C25 UNL     1       1.064  18.117  30.014  1.00  0.00     0.179 C
ENDROOT
BRANCH   6  14
HETATM   14  N2  UNL     1       3.971  21.497  29.097  1.00  0.00    -0.324 N
HETATM   15  C12 UNL     1       4.179  22.906  28.854  1.00  0.00     0.252 C
HETATM   16  O2  UNL     1       3.227  23.658  29.185  1.00  0.00    -0.271 OA
ATOM     17  H2  UNL     1       4.715  20.846  28.845  1.00  0.00     0.169 HD
BRANCH  15  18
HETATM   18  C13 UNL     1       5.396  23.455  28.267  1.00  0.00     0.271 C
HETATM   19  C14 UNL     1       6.538  23.608  29.251  1.00  0.00     0.050 C
BRANCH  18  20
HETATM   20  N3  UNL     1       5.824  22.711  27.080  1.00  0.00    -0.067 N
ATOM     21  H33 UNL     1       5.239  21.890  26.928  1.00  0.00     0.275 HD
ATOM     22  H32 UNL     1       5.607  23.225  26.226  1.00  0.00     0.275 HD
ATOM     23  H31 UNL     1       6.811  22.459  27.117  1.00  0.00     0.275 HD
ENDBRANCH  18  20
ENDBRANCH  15  18
ENDBRANCH   6  14
BRANCH  11  24
HETATM   24  C23 UNL     1       0.173  21.538  27.024  1.00  0.00     0.088 C
BRANCH  24  25
HETATM   25  S1  UNL     1       0.425  23.298  27.224  1.00  0.00    -0.172 SA
HETATM   26  C24 UNL     1       0.813  23.992  25.594  1.00  0.00     0.089 C
ENDBRANCH  24  25
ENDBRANCH  11  24
BRANCH   2  27
HETATM   27  C8  UNL     1       3.834  16.564  29.243  1.00  0.00     0.021 C
HETATM   28  C9  UNL     1       4.794  15.702  30.026  1.00  0.00     0.007 C
ENDBRANCH   2  27
BRANCH  13  29
HETATM   29  O5  UNL     1       0.386  18.224  31.255  1.00  0.00    -0.367 OA
ATOM     30  H5  UNL     1      -0.456  17.784  31.225  1.00  0.00     0.212 HD
ENDBRANCH  13  29
BRANCH   9  31
HETATM   31  O3  UNL     1      -0.991  18.695  28.995  1.00  0.00    -0.380 OA
ATOM     32  H3  UNL     1      -1.377  19.338  28.411  1.00  0.00     0.211 HD
ENDBRANCH   9  31
BRANCH  10  33
HETATM   33  C19 UNL     1       0.609  18.388  26.631  1.00  0.00     0.151 C
HETATM   34  C20 UNL     1      -0.539  18.423  25.704  1.00  0.00     0.096 C
HETATM   35  O4  UNL     1       1.320  17.397  26.322  1.00  0.00    -0.293 OA
ENDBRANCH  10  33
BRANCH   1  36
HETATM   36  C3  UNL     1       0.733  15.604  30.452  1.00  0.00    -0.021 C
HETATM   37  C4  UNL     1       1.004  14.318  29.651  1.00  0.00     0.019 C
HETATM   38  C5  UNL     1      -0.762  15.637  30.593  1.00  0.00     0.019 C
BRANCH  36  39
HETATM   39  C2  UNL     1       1.312  15.348  31.787  1.00  0.00    -0.027 C
HETATM   40  C1  UNL     1       1.994  14.250  32.095  1.00  0.00     0.007 C
ENDBRANCH  36  39
ENDBRANCH   1  36
TORSDOF 11
ENDMDL