MODEL 2
REMARK VINA RESULT: -8.066777827      0.825      1.026
REMARK  7 active torsions:
REMARK  status: ('A' for Active; 'I' for Inactive)
REMARK    1  A    between atoms: C4_5  and  C5_6
REMARK    2  A    between atoms: C14_19  and  O4_20
REMARK    3  A    between atoms: C18_25  and  C19_26
REMARK       I    between atoms: C19_26  and  N2_28
REMARK    4  A    between atoms: N2_28  and  C20_30
REMARK    5  A    between atoms: C20_30  and  C21_31
REMARK    6  A    between atoms: C21_31  and  C22_32
REMARK    7  A    between atoms: C22_32  and  N3_33
ROOT
HETATM    1  C1  UNL     1      -0.478  15.610  30.845  1.00  0.00     0.026 C
HETATM    2  C2  UNL     1       0.986  15.932  30.638  1.00  0.00     0.048 C
HETATM    3  C3  UNL     1       1.701  15.512  31.903  1.00  0.00     0.152 C
HETATM    4  O1  UNL     1       2.349  14.571  32.292  1.00  0.00    -0.296 OA
HETATM    5  C4  UNL     1       1.209  16.839  32.443  1.00  0.00     0.162 C
HETATM    6  C6  UNL     1       1.329  17.311  31.001  1.00  0.00     0.025 C
HETATM    7  C7  UNL     1       0.358  18.368  30.564  1.00  0.00     0.008 C
HETATM    8  C8  UNL     1       1.048  19.481  29.838  1.00  0.00     0.011 C
HETATM    9  C9  UNL     1       1.512  19.215  28.462  1.00  0.00    -0.030 C
HETATM   10  C10 UNL     1       3.009  19.473  28.401  1.00  0.00     0.054 C
HETATM   11  C11 UNL     1       3.671  18.886  27.212  1.00  0.00     0.056 C
HETATM   12  N1  UNL     1       3.342  17.558  26.889  1.00  0.00    -0.397 N
ATOM     13  H1  UNL     1       3.877  17.038  26.194  1.00  0.00     0.159 HD
HETATM   14  C12 UNL     1       2.234  16.959  27.563  1.00  0.00     0.087 C
HETATM   15  C13 UNL     1       2.648  16.111  28.746  1.00  0.00     0.058 C
HETATM   16  C14 UNL     1       1.510  15.399  29.370  1.00  0.00     0.136 C
HETATM   17  C15 UNL     1       1.125  17.925  27.828  1.00  0.00     0.017 C
HETATM   18  C16 UNL     1       0.477  18.151  26.443  1.00  0.00     0.008 C
HETATM   19  C17 UNL     1      -0.819  18.877  26.576  1.00  0.00     0.014 C
HETATM   20  C18 UNL     1      -0.581  20.123  27.386  1.00  0.00     0.078 C
HETATM   21  C27 UNL     1       0.907  20.333  27.585  1.00  0.00     0.024 C
ENDROOT
BRANCH  20  22
HETATM   22  C19 UNL     1      -1.057  21.287  26.606  1.00  0.00     0.221 C
HETATM   23  O5  UNL     1      -2.085  21.182  25.883  1.00  0.00    -0.273 OA
HETATM   24  N2  UNL     1      -0.406  22.551  26.624  1.00  0.00    -0.361 N
ATOM     25  H2  UNL     1       0.426  22.654  27.205  1.00  0.00     0.162 HD
BRANCH  24  26
HETATM   26  C20 UNL     1      -0.846  23.684  25.878  1.00  0.00     0.124 C
BRANCH  26  27
HETATM   27  C21 UNL     1       0.301  24.545  25.388  1.00  0.00     0.039 C
BRANCH  27  28
HETATM   28  C22 UNL     1       1.595  24.171  26.112  1.00  0.00     0.118 C
BRANCH  28  29
HETATM   29  N3  UNL     1       2.273  25.322  26.608  1.00  0.00    -0.408 N
HETATM   30  C23 UNL     1       3.618  25.102  27.011  1.00  0.00     0.143 C
HETATM   31  C24 UNL     1       3.972  25.534  28.393  1.00  0.00     0.187 C
HETATM   32  O6  UNL     1       3.283  26.644  28.839  1.00  0.00    -0.388 OA
HETATM   33  C25 UNL     1       1.915  26.311  28.821  1.00  0.00     0.187 C
HETATM   34  C26 UNL     1       1.506  26.234  27.381  1.00  0.00     0.143 C
ENDBRANCH  28  29
ENDBRANCH  27  28
ENDBRANCH  26  27
ENDBRANCH  24  26
ENDBRANCH  20  22
BRANCH  16  35
HETATM   35  O4  UNL     1       1.810  14.032  29.588  1.00  0.00    -0.394 OA
ATOM     36  H4  UNL     1       1.511  13.819  30.464  1.00  0.00     0.210 HD
ENDBRANCH  16  35
BRANCH   5  37
HETATM   37  C5  UNL     1       2.213  17.426  33.356  1.00  0.00     0.184 C
HETATM   38  O2  UNL     1       1.861  17.815  34.489  1.00  0.00    -0.647 OA
HETATM   39  O3  UNL     1       3.555  17.551  32.964  1.00  0.00    -0.647 OA
ENDBRANCH   5  37
TORSDOF 7
ENDMDL