MODEL 5
REMARK VINA RESULT: -7.967945502      3.194      6.254
REMARK  10 active torsions:
REMARK  status: ('A' for Active; 'I' for Inactive)
REMARK    1  A    between atoms: C2_2  and  C3_3
REMARK    2  A    between atoms: C3_3  and  C5_5
REMARK    3  A    between atoms: C12_18  and  C13_19
REMARK    4  A    between atoms: C16_24  and  O2_25
REMARK    5  A    between atoms: C17_27  and  C18_28
REMARK    6  A    between atoms: C18_28  and  C19_29
REMARK    7  A    between atoms: C19_29  and  C20_30
REMARK    8  A    between atoms: C20_30  and  C21_31
REMARK    9  A    between atoms: C21_31  and  N4_32
REMARK   10  A    between atoms: C26_43  and  O5_44
ROOT
HETATM    1  C5  UNL     1      17.270   7.222  -0.465  1.00  0.00     0.163 C
HETATM    2  N1  UNL     1      17.808   6.153  -1.257  1.00  0.00    -0.343 N
ATOM      3  H1  UNL     1      17.099   5.469  -1.520  1.00  0.00     0.163 HD
HETATM    4  C6  UNL     1      19.060   5.831  -1.748  1.00  0.00     0.269 C
HETATM    5  O1  UNL     1      19.322   4.562  -1.815  1.00  0.00    -0.266 OA
HETATM    6  C7  UNL     1      20.172   6.732  -2.216  1.00  0.00     0.108 A
HETATM    7  N2  UNL     1      20.091   7.885  -2.876  1.00  0.00    -0.352 N
ATOM      8  H2  UNL     1      19.237   8.279  -3.272  1.00  0.00     0.166 HD
HETATM    9  C8  UNL     1      21.306   8.449  -2.941  1.00  0.00     0.051 A
HETATM   10  C9  UNL     1      22.195   7.597  -2.304  1.00  0.00     0.044 A
HETATM   11 BR1  UNL     1      24.076   7.792  -2.060  1.00  0.00    -0.048 Br
HETATM   12  C10 UNL     1      21.509   6.517  -1.844  1.00  0.00    -0.010 A
HETATM   13  C11 UNL     1      22.083   5.328  -1.100  1.00  0.00     0.052 C
HETATM   14  C12 UNL     1      21.652   9.807  -3.424  1.00  0.00     0.138 C
HETATM   15  N3  UNL     1      21.175  10.835  -2.475  1.00  0.00    -0.362 N
ATOM     16  H3  UNL     1      21.495  11.783  -2.674  1.00  0.00     0.162 HD
HETATM   17  C16 UNL     1      20.363  10.720  -1.357  1.00  0.00     0.135 C
HETATM   18  C17 UNL     1      18.923  10.393  -1.186  1.00  0.00     0.158 C
HETATM   19  N6  UNL     1      18.613   9.478  -0.116  1.00  0.00    -0.361 N
ATOM     20  H6  UNL     1      18.620   9.935   0.796  1.00  0.00     0.162 HD
HETATM   21  C26 UNL     1      18.307   8.134  -0.021  1.00  0.00     0.135 C
ENDROOT
BRANCH  18  22
HETATM   22  C18 UNL     1      18.180  11.736  -0.840  1.00  0.00     0.033 C
BRANCH  22  23
HETATM   23  C19 UNL     1      17.961  12.494  -2.129  1.00  0.00     0.004 C
BRANCH  23  24
HETATM   24  C20 UNL     1      16.774  12.019  -2.864  1.00  0.00     0.020 C
BRANCH  24  25
HETATM   25  C21 UNL     1      15.488  12.744  -2.694  1.00  0.00     0.137 C
BRANCH  25  26
HETATM   26  N4  UNL     1      14.771  12.501  -1.493  1.00  0.00    -0.270 N
HETATM   27  C22 UNL     1      14.248  11.237  -1.135  1.00  0.00     0.229 C
HETATM   28  O3  UNL     1      13.792  10.419  -1.951  1.00  0.00    -0.273 OA
HETATM   29  C23 UNL     1      14.252  10.888   0.311  1.00  0.00     0.123 C
HETATM   30  C24 UNL     1      13.615  11.913   1.188  1.00  0.00     0.133 C
HETATM   31  N5  UNL     1      13.839  13.244   0.680  1.00  0.00    -0.342 N
HETATM   32  C25 UNL     1      14.543  13.545  -0.520  1.00  0.00     0.325 C
ATOM     33  H5  UNL     1      13.465  14.025   1.219  1.00  0.00     0.164 HD
HETATM   34  O4  UNL     1      14.945  14.712  -0.697  1.00  0.00    -0.247 OA
ENDBRANCH  25  26
ENDBRANCH  24  25
ENDBRANCH  23  24
ENDBRANCH  22  23
ENDBRANCH  18  22
BRANCH  17  35
HETATM   35  O2  UNL     1      20.946  10.943  -0.216  1.00  0.00    -0.348 OA
ATOM     36  H2  UNL     1      20.381  10.908   0.546  1.00  0.00     0.219 HD
ENDBRANCH  17  35
BRANCH  21  37
HETATM   37  O5  UNL     1      19.198   7.452   0.671  1.00  0.00    -0.348 OA
ATOM     38  H5  UNL     1      19.038   6.525   0.536  1.00  0.00     0.219 HD
ENDBRANCH  21  37
BRANCH  14  39
HETATM   39  C13 UNL     1      21.432  10.268  -4.768  1.00  0.00     0.006 C
HETATM   40  C14 UNL     1      21.955   9.372  -5.879  1.00  0.00     0.012 C
HETATM   41  C15 UNL     1      20.053  10.815  -5.098  1.00  0.00     0.012 C
ENDBRANCH  14  39
BRANCH   1  42
HETATM   42  C3  UNL     1      16.000   7.795  -0.994  1.00  0.00     0.012 C
HETATM   43  C4  UNL     1      15.923   7.728  -2.488  1.00  0.00     0.012 C
BRANCH  42  44
HETATM   44  C2  UNL     1      14.783   7.112  -0.433  1.00  0.00     0.002 C
HETATM   45  C1  UNL     1      14.959   7.060   1.091  1.00  0.00     0.005 C
ENDBRANCH  42  44
ENDBRANCH   1  42
TORSDOF 10
ENDMDL