MODEL 2
REMARK VINA RESULT: -6.168702771      3.879      7.499
REMARK  9 active torsions:
REMARK  status: ('A' for Active; 'I' for Inactive)
REMARK    1  A    between atoms: C2_2  and  C3_3
REMARK    2  A    between atoms: C3_3  and  C5_5
REMARK    3  A    between atoms: C7_10  and  C8_11
REMARK    4  A    between atoms: C12_18  and  C13_19
REMARK    5  A    between atoms: C16_26  and  C17_27
REMARK    6  A    between atoms: C17_27  and  C18_28
REMARK    7  A    between atoms: C21_33  and  O4_34
REMARK    8  A    between atoms: C22_36  and  C23_37
REMARK    9  A    between atoms: C29_45  and  O5_46
ROOT
HETATM    1  C5  UNL     1      14.485   8.565   2.177  1.00  0.00     0.163 C
HETATM    2  N1  UNL     1      15.567   8.121   1.382  1.00  0.00    -0.347 N
ATOM      3  H1  UNL     1      15.308   7.300   0.835  1.00  0.00     0.163 HD
HETATM    4  C6  UNL     1      16.873   8.489   1.141  1.00  0.00     0.241 C
HETATM    5  O1  UNL     1      17.745   7.537   1.194  1.00  0.00    -0.271 OA
HETATM    6  C7  UNL     1      17.479   9.803   0.822  1.00  0.00     0.180 C
HETATM    7  N2  UNL     1      18.922   9.788   0.972  1.00  0.00    -0.346 N
ATOM      8  H2  UNL     1      19.365   8.911   0.698  1.00  0.00     0.163 HD
HETATM    9  C11 UNL     1      19.804  10.761   1.425  1.00  0.00     0.242 C
HETATM   10  O2  UNL     1      20.692  11.210   0.597  1.00  0.00    -0.271 OA
HETATM   11  C12 UNL     1      19.883  11.394   2.792  1.00  0.00     0.194 C
HETATM   12  N3  UNL     1      20.172  10.407   3.801  1.00  0.00    -0.345 N
ATOM     13  H3  UNL     1      20.612   9.567   3.426  1.00  0.00     0.163 HD
HETATM   14  C15 UNL     1      19.981  10.356   5.159  1.00  0.00     0.241 C
HETATM   15  O3  UNL     1      21.056  10.102   5.845  1.00  0.00    -0.271 OA
HETATM   16  C16 UNL     1      18.757  10.539   5.976  1.00  0.00     0.176 C
HETATM   17  N4  UNL     1      17.522  10.269   5.277  1.00  0.00    -0.356 N
ATOM     18  H4  UNL     1      17.451  10.770   4.391  1.00  0.00     0.162 HD
HETATM   19  C21 UNL     1      16.416   9.482   5.539  1.00  0.00     0.160 C
HETATM   20  C22 UNL     1      16.135   8.041   5.316  1.00  0.00     0.066 C
HETATM   21  N5  UNL     1      14.853   7.891   4.695  1.00  0.00    -0.338 N
ATOM     22  H5  UNL     1      14.097   7.898   5.380  1.00  0.00     0.167 HD
HETATM   23  C29 UNL     1      14.377   7.739   3.412  1.00  0.00     0.139 C
ENDROOT
BRANCH  20  24
HETATM   24  C23 UNL     1      17.257   7.198   4.880  1.00  0.00     0.040 C
HETATM   25  C24 UNL     1      16.883   5.792   4.494  1.00  0.00     0.011 C
HETATM   26  C25 UNL     1      18.186   5.018   4.213  1.00  0.00     0.001 C
HETATM   27  C26 UNL     1      18.869   4.668   5.512  1.00  0.00     0.000 C
HETATM   28  C27 UNL     1      18.308   5.611   6.554  1.00  0.00     0.001 C
HETATM   29  C28 UNL     1      18.284   6.992   6.004  1.00  0.00     0.011 C
ENDBRANCH  20  24
BRANCH  19  30
HETATM   30  O4  UNL     1      15.349  10.025   6.091  1.00  0.00    -0.345 OA
ATOM     31  H4  UNL     1      14.493   9.650   5.922  1.00  0.00     0.219 HD
ENDBRANCH  19  30
BRANCH  23  32
HETATM   32  O5  UNL     1      13.689   6.652   3.225  1.00  0.00    -0.348 OA
ATOM     33  H5  UNL     1      13.306   6.321   4.029  1.00  0.00     0.219 HD
ENDBRANCH  23  32
BRANCH  16  34
HETATM   34  C17 UNL     1      18.646  11.908   6.622  1.00  0.00     0.038 C
BRANCH  34  35
HETATM   35  C18 UNL     1      18.125  11.804   8.005  1.00  0.00    -0.020 C
HETATM   36  C19 UNL     1      18.581  12.914   8.912  1.00  0.00     0.009 C
HETATM   37  C20 UNL     1      18.574  10.480   8.642  1.00  0.00     0.009 C
ENDBRANCH  34  35
ENDBRANCH  16  34
BRANCH   1  38
HETATM   38  C3  UNL     1      14.290  10.032   2.393  1.00  0.00     0.012 C
HETATM   39  C4  UNL     1      13.941  10.719   1.084  1.00  0.00     0.012 C
BRANCH  38  40
HETATM   40  C2  UNL     1      13.011  10.262   3.206  1.00  0.00     0.002 C
HETATM   41  C1  UNL     1      12.369  11.587   2.798  1.00  0.00     0.005 C
ENDBRANCH  38  40
ENDBRANCH   1  38
BRANCH  11  42
HETATM   42  C13 UNL     1      21.057  12.391   2.763  1.00  0.00     0.110 C
HETATM   43  C14 UNL     1      22.356  11.728   3.165  1.00  0.00     0.029 C
HETATM   44 CL1  UNL     1      20.828  13.834   3.674  1.00  0.00    -0.123 Cl
ENDBRANCH  11  42
BRANCH   6  45
HETATM   45  C8  UNL     1      17.245  10.119  -0.679  1.00  0.00     0.009 C
HETATM   46  C9  UNL     1      17.283  11.573  -0.954  1.00  0.00     0.012 C
HETATM   47  C10 UNL     1      18.365   9.471  -1.489  1.00  0.00     0.012 C
ENDBRANCH   6  45
TORSDOF 9
ENDMDL