MODEL 1
REMARK VINA RESULT: -8.101663941      0.000      0.000
REMARK  8 active torsions:
REMARK  status: ('A' for Active; 'I' for Inactive)
REMARK    1  A    between atoms: C2_2  and  C3_3
REMARK    2  A    between atoms: C3_3  and  C4_4
REMARK    3  A    between atoms: C4_4  and  C5_5
REMARK    4  A    between atoms: C6_8  and  O1_9
REMARK    5  A    between atoms: C8_13  and  C9_14
REMARK    6  A    between atoms: C13_21  and  C14_22
REMARK    7  A    between atoms: C14_22  and  C15_23
REMARK    8  A    between atoms: C19_30  and  C20_31
ROOT
HETATM    1  C5  UNL     1      14.624  11.769   0.426  1.00  0.00     0.175 C
HETATM    2  N1  UNL     1      15.744  12.435  -0.137  1.00  0.00    -0.355 N
ATOM      3  H1  UNL     1      16.534  12.548   0.498  1.00  0.00     0.162 HD
HETATM    4  C6  UNL     1      15.948  12.970  -1.437  1.00  0.00     0.185 C
HETATM    5  C7  UNL     1      15.933  12.276  -2.707  1.00  0.00     0.222 C
HETATM    6  O2  UNL     1      15.013  12.670  -3.520  1.00  0.00    -0.286 OA
HETATM    7  C8  UNL     1      16.815  11.192  -3.194  1.00  0.00     0.166 C
HETATM    8  N2  UNL     1      18.213  11.550  -3.238  1.00  0.00    -0.347 N
ATOM      9  H2  UNL     1      18.450  12.248  -3.944  1.00  0.00     0.163 HD
HETATM   10  C12 UNL     1      19.289  11.105  -2.485  1.00  0.00     0.241 C
HETATM   11  O3  UNL     1      19.881  11.998  -1.763  1.00  0.00    -0.271 OA
HETATM   12  C13 UNL     1      19.847   9.735  -2.403  1.00  0.00     0.177 C
HETATM   13  N3  UNL     1      20.416   9.469  -1.089  1.00  0.00    -0.346 N
ATOM     14  H3  UNL     1      20.809  10.275  -0.604  1.00  0.00     0.163 HD
HETATM   15  C18 UNL     1      20.494   8.245  -0.404  1.00  0.00     0.241 C
HETATM   16  O4  UNL     1      21.647   7.828  -0.016  1.00  0.00    -0.271 OA
HETATM   17  C19 UNL     1      19.351   7.340  -0.061  1.00  0.00     0.180 C
HETATM   18  N4  UNL     1      18.988   7.444   1.322  1.00  0.00    -0.346 N
ATOM     19  H4  UNL     1      19.584   8.066   1.869  1.00  0.00     0.163 HD
HETATM   20  C23 UNL     1      17.970   6.849   2.042  1.00  0.00     0.237 C
HETATM   21  O5  UNL     1      18.283   6.205   3.121  1.00  0.00    -0.272 OA
HETATM   22  C24 UNL     1      16.511   6.836   1.756  1.00  0.00     0.179 C
HETATM   23 CL1  UNL     1      16.105   6.980   0.057  1.00  0.00    -0.115 Cl
HETATM   24  C25 UNL     1      15.729   7.722   2.671  1.00  0.00     0.031 C
HETATM   25  C26 UNL     1      14.382   7.104   2.979  1.00  0.00     0.014 C
HETATM   26  C27 UNL     1      15.508   9.136   2.220  1.00  0.00     0.086 C
HETATM   27  C28 UNL     1      16.754   9.933   2.094  1.00  0.00     0.032 C
HETATM   28  N5  UNL     1      14.643   9.253   1.093  1.00  0.00    -0.355 N
ATOM     29  H5  UNL     1      14.025   8.458   0.931  1.00  0.00     0.162 HD
HETATM   30  C29 UNL     1      14.519  10.311   0.173  1.00  0.00     0.240 C
HETATM   31  O6  UNL     1      14.287   9.956  -1.017  1.00  0.00    -0.271 OA
ENDROOT
BRANCH   1  32
HETATM   32  C4  UNL     1      13.269  12.311  -0.003  1.00  0.00     0.035 C
BRANCH  32  33
HETATM   33  C3  UNL     1      12.134  12.032   0.892  1.00  0.00     0.002 C
BRANCH  33  34
HETATM   34  C2  UNL     1      12.462  12.413   2.312  1.00  0.00    -0.004 C
HETATM   35  C1  UNL     1      12.277  11.183   3.196  1.00  0.00     0.005 C
ENDBRANCH  33  34
ENDBRANCH  32  33
ENDBRANCH   1  32
BRANCH   4  36
HETATM   36  O1  UNL     1      16.181  14.260  -1.512  1.00  0.00    -0.344 OA
ATOM     37  H1  UNL     1      15.422  14.831  -1.511  1.00  0.00     0.219 HD
ENDBRANCH   4  36
BRANCH   7  38
HETATM   38  C9  UNL     1      16.306  10.770  -4.563  1.00  0.00     0.008 C
HETATM   39  C10 UNL     1      15.638   9.390  -4.474  1.00  0.00     0.012 C
HETATM   40  C11 UNL     1      17.386  10.752  -5.618  1.00  0.00     0.012 C
ENDBRANCH   7  38
BRANCH  12  41
HETATM   41  C14 UNL     1      20.773   9.408  -3.503  1.00  0.00     0.038 C
BRANCH  41  42
HETATM   42  C15 UNL     1      21.421  10.438  -4.317  1.00  0.00    -0.020 C
HETATM   43  C16 UNL     1      21.743  10.144  -5.732  1.00  0.00     0.009 C
HETATM   44  C17 UNL     1      22.781  10.680  -3.614  1.00  0.00     0.009 C
ENDBRANCH  41  42
ENDBRANCH  12  41
BRANCH  17  45
HETATM   45  C20 UNL     1      19.645   5.900  -0.461  1.00  0.00     0.009 C
HETATM   46  C21 UNL     1      20.669   5.246   0.444  1.00  0.00     0.012 C
HETATM   47  C22 UNL     1      19.988   5.792  -1.912  1.00  0.00     0.012 C
ENDBRANCH  17  45
TORSDOF 8
ENDMDL