MODEL 2
REMARK VINA RESULT: -6.608168699      3.599      7.406
REMARK  10 active torsions:
REMARK  status: ('A' for Active; 'I' for Inactive)
REMARK    1  A    between atoms: C2_2  and  C4_4
REMARK    2  A    between atoms: C4_4  and  C5_5
REMARK    3  A    between atoms: C6_8  and  O1_9
REMARK    4  A    between atoms: C9_14  and  C10_15
REMARK    5  A    between atoms: C10_15  and  O2_19
REMARK    6  A    between atoms: C11_21  and  C12_22
REMARK    7  A    between atoms: C12_22  and  C13_23
REMARK    8  A    between atoms: C16_28  and  O3_29
REMARK    9  A    between atoms: C21_37  and  C22_38
REMARK   10  A    between atoms: C22_38  and  C23_39
ROOT
HETATM    1  C5  UNL     1      14.800   9.940   1.694  1.00  0.00     0.176 C
HETATM    2  N1  UNL     1      16.112  10.381   2.046  1.00  0.00    -0.357 N
ATOM      3  H1  UNL     1      16.130  11.287   2.515  1.00  0.00     0.162 HD
HETATM    4  C6  UNL     1      17.371   9.814   1.872  1.00  0.00     0.144 C
HETATM    5  C7  UNL     1      17.978   8.607   2.430  1.00  0.00     0.013 C
HETATM    6  C8  UNL     1      18.777   7.930   1.630  1.00  0.00     0.068 C
HETATM    7 BR1  UNL     1      19.138   8.461  -0.132  1.00  0.00    -0.063 Br
HETATM    8  C9  UNL     1      17.753   8.117   3.800  1.00  0.00     0.120 C
HETATM    9  C11 UNL     1      18.355   9.016   4.906  1.00  0.00     0.100 C
HETATM   10  N3  UNL     1      17.388   9.993   5.291  1.00  0.00    -0.367 N
ATOM     11  H3  UNL     1      17.424  10.860   4.755  1.00  0.00     0.161 HD
HETATM   12  C16 UNL     1      16.390   9.963   6.290  1.00  0.00     0.134 C
HETATM   13  C17 UNL     1      15.877   8.935   7.139  1.00  0.00     0.157 C
HETATM   14  C18 UNL     1      16.949   7.993   7.721  1.00  0.00     0.041 C
HETATM   15  N4  UNL     1      14.777   8.119   6.759  1.00  0.00    -0.343 N
HETATM   16  C19 UNL     1      14.391   7.217   7.886  1.00  0.00     0.153 C
HETATM   17  C20 UNL     1      14.026   7.983   5.615  1.00  0.00     0.243 C
HETATM   18  O4  UNL     1      13.503   6.815   5.442  1.00  0.00    -0.271 OA
HETATM   19  C21 UNL     1      13.699   8.932   4.528  1.00  0.00     0.177 C
HETATM   20  N5  UNL     1      13.675   8.239   3.267  1.00  0.00    -0.346 N
ATOM     21  H5  UNL     1      13.068   7.423   3.199  1.00  0.00     0.163 HD
HETATM   22  C26 UNL     1      14.420   8.586   2.106  1.00  0.00     0.241 C
HETATM   23  O5  UNL     1      14.814   7.646   1.320  1.00  0.00    -0.271 OA
ENDROOT
BRANCH   8  24
HETATM   24  C10 UNL     1      18.267   6.752   4.009  1.00  0.00     0.119 C
HETATM   25  N2  UNL     1      19.370   6.501   4.635  1.00  0.00    -0.383 N
ATOM     26  H22 UNL     1      19.887   7.305   4.990  1.00  0.00     0.158 HD
ATOM     27  H21 UNL     1      19.725   5.556   4.781  1.00  0.00     0.158 HD
BRANCH  24  28
HETATM   28  O2  UNL     1      17.566   5.663   3.529  1.00  0.00    -0.349 OA
ATOM     29  H2  UNL     1      17.445   4.894   4.074  1.00  0.00     0.219 HD
ENDBRANCH  24  28
ENDBRANCH   8  24
BRANCH   9  30
HETATM   30  C12 UNL     1      19.645   9.604   4.448  1.00  0.00     0.030 C
BRANCH  30  31
HETATM   31  C13 UNL     1      19.749  11.087   4.613  1.00  0.00    -0.021 C
HETATM   32  C14 UNL     1      20.761  11.387   5.759  1.00  0.00     0.009 C
HETATM   33  C15 UNL     1      20.308  11.853   3.439  1.00  0.00     0.009 C
ENDBRANCH  30  31
ENDBRANCH   9  30
BRANCH   4  34
HETATM   34  O1  UNL     1      18.179  10.450   1.073  1.00  0.00    -0.346 OA
ATOM     35  H1  UNL     1      19.072  10.555   1.380  1.00  0.00     0.219 HD
ENDBRANCH   4  34
BRANCH  12  36
HETATM   36  O3  UNL     1      15.831  11.129   6.459  1.00  0.00    -0.348 OA
ATOM     37  H3  UNL     1      14.947  11.055   6.800  1.00  0.00     0.219 HD
ENDBRANCH  12  36
BRANCH   1  38
HETATM   38  C4  UNL     1      14.514  10.099   0.193  1.00  0.00     0.038 C
BRANCH  38  39
HETATM   39  C2  UNL     1      14.896  11.446  -0.323  1.00  0.00    -0.020 C
HETATM   40  C1  UNL     1      13.896  12.515   0.093  1.00  0.00     0.009 C
HETATM   41  C3  UNL     1      14.836  11.433  -1.857  1.00  0.00     0.009 C
ENDBRANCH  38  39
ENDBRANCH   1  38
BRANCH  19  42
HETATM   42  C22 UNL     1      12.487   9.731   4.739  1.00  0.00     0.038 C
BRANCH  42  43
HETATM   43  C23 UNL     1      11.687  10.204   3.604  1.00  0.00    -0.020 C
HETATM   44  C24 UNL     1      11.979  11.568   3.066  1.00  0.00     0.009 C
HETATM   45  C25 UNL     1      10.218  10.193   4.072  1.00  0.00     0.009 C
ENDBRANCH  42  43
ENDBRANCH  19  42
TORSDOF 10
ENDMDL