MODEL 2
REMARK VINA RESULT: -7.296622750      3.102      7.355
REMARK  9 active torsions:
REMARK  status: ('A' for Active; 'I' for Inactive)
REMARK    1  A    between atoms: C2_2  and  C3_3
REMARK    2  A    between atoms: C17_27  and  C18_28
REMARK    3  A    between atoms: C18_28  and  C19_29
REMARK    4  A    between atoms: C19_29  and  C20_30
REMARK    5  A    between atoms: C20_30  and  C21_31
REMARK    6  A    between atoms: C21_31  and  N4_32
REMARK    7  A    between atoms: C23_38  and  O4_39
REMARK    8  A    between atoms: C24_41  and  C25_42
REMARK    9  A    between atoms: C25_42  and  C26_43
ROOT
HETATM    1  C3  UNL     1      21.404   8.477  -0.331  1.00  0.00     0.176 C
HETATM    2  N1  UNL     1      21.589   7.705  -1.556  1.00  0.00    -0.340 N
ATOM      3  H1  UNL     1      20.821   7.072  -1.783  1.00  0.00     0.163 HD
HETATM    4  C4  UNL     1      22.640   7.694  -2.459  1.00  0.00     0.310 C
HETATM    5  O1  UNL     1      23.187   6.541  -2.695  1.00  0.00    -0.262 OA
HETATM    6  C5  UNL     1      23.244   8.784  -3.204  1.00  0.00     0.309 C
HETATM    7  O2  UNL     1      24.529   8.867  -3.111  1.00  0.00    -0.262 OA
HETATM    8  N2  UNL     1      22.635   9.751  -4.005  1.00  0.00    -0.352 N
ATOM      9  H2  UNL     1      22.898  10.724  -3.849  1.00  0.00     0.162 HD
HETATM   10  C6  UNL     1      21.657   9.482  -5.040  1.00  0.00     0.135 C
HETATM   11  C7  UNL     1      20.873  10.734  -5.396  1.00  0.00     0.114 C
HETATM   12  C8  UNL     1      19.550  10.722  -4.921  1.00  0.00    -0.100 C
HETATM   13  C9  UNL     1      18.522  10.685  -4.531  1.00  0.00    -0.067 C
HETATM   14  C10 UNL     1      17.203  10.605  -3.994  1.00  0.00     0.021 A
HETATM   15  C11 UNL     1      16.396  11.623  -4.496  1.00  0.00     0.044 A
HETATM   16  C12 UNL     1      15.087  11.763  -4.118  1.00  0.00     0.037 A
HETATM   17 CL1  UNL     1      14.056  13.032  -4.735  1.00  0.00    -0.084 Cl
HETATM   18  C13 UNL     1      14.643  10.828  -3.216  1.00  0.00     0.053 A
HETATM   19  C14 UNL     1      15.443   9.780  -2.689  1.00  0.00     0.037 A
HETATM   20  C15 UNL     1      16.742   9.662  -3.080  1.00  0.00     0.050 A
HETATM   21  N3  UNL     1      14.666   8.984  -1.767  1.00  0.00    -0.325 N
ATOM     22  H3  UNL     1      13.721   8.793  -2.098  1.00  0.00     0.169 HD
HETATM   23  C16 UNL     1      14.940   8.423  -0.522  1.00  0.00     0.245 C
HETATM   24  O3  UNL     1      14.724   7.166  -0.379  1.00  0.00    -0.271 OA
HETATM   25  C17 UNL     1      15.474   9.165   0.692  1.00  0.00     0.178 C
HETATM   26  N5  UNL     1      16.068   8.196   1.572  1.00  0.00    -0.355 N
HETATM   27  C22 UNL     1      15.121   7.413   2.394  1.00  0.00     0.152 C
HETATM   28  C23 UNL     1      17.423   7.851   1.748  1.00  0.00     0.137 C
HETATM   29  C24 UNL     1      18.639   8.663   1.574  1.00  0.00     0.159 C
HETATM   30  N6  UNL     1      18.936   8.976   0.187  1.00  0.00    -0.347 N
ATOM     31  H6  UNL     1      18.144   8.958  -0.457  1.00  0.00     0.163 HD
HETATM   32  C29 UNL     1      20.188   9.302  -0.374  1.00  0.00     0.241 C
HETATM   33  O5  UNL     1      20.318  10.420  -0.996  1.00  0.00    -0.271 OA
ENDROOT
BRANCH  25  34
HETATM   34  C18 UNL     1      14.264   9.877   1.287  1.00  0.00     0.035 C
BRANCH  34  35
HETATM   35  C19 UNL     1      14.147  11.307   1.000  1.00  0.00     0.004 C
BRANCH  35  36
HETATM   36  C20 UNL     1      12.733  11.794   1.139  1.00  0.00     0.027 C
BRANCH  36  37
HETATM   37  C21 UNL     1      12.701  13.238   1.534  1.00  0.00     0.229 C
BRANCH  37  38
HETATM   38  N4  UNL     1      13.522  14.017   0.586  1.00  0.00    -0.079 N
ATOM     39  H43 UNL     1      14.319  14.464   1.041  1.00  0.00     0.274 HD
ATOM     40  H42 UNL     1      14.041  13.421  -0.059  1.00  0.00     0.274 HD
ATOM     41  H41 UNL     1      12.927  14.687   0.100  1.00  0.00     0.274 HD
ENDBRANCH  37  38
ENDBRANCH  36  37
ENDBRANCH  35  36
ENDBRANCH  34  35
ENDBRANCH  25  34
BRANCH  28  42
HETATM   42  O4  UNL     1      17.667   6.624   2.121  1.00  0.00    -0.348 OA
ATOM     43  H4  UNL     1      18.440   6.491   2.656  1.00  0.00     0.219 HD
ENDBRANCH  28  42
BRANCH  29  44
HETATM   44  C25 UNL     1      18.769   9.890   2.390  1.00  0.00     0.037 C
BRANCH  44  45
HETATM   45  C26 UNL     1      19.952  10.082   3.238  1.00  0.00    -0.020 C
HETATM   46  C27 UNL     1      20.821  11.232   2.694  1.00  0.00     0.009 C
HETATM   47  C28 UNL     1      20.845   8.959   3.553  1.00  0.00     0.009 C
ENDBRANCH  44  45
ENDBRANCH  29  44
BRANCH   1  48
HETATM   48  C2  UNL     1      22.646   9.237  -0.038  1.00  0.00     0.030 C
HETATM   49  C1  UNL     1      23.532   8.651   1.015  1.00  0.00     0.007 C
ENDBRANCH   1  48
TORSDOF 9
ENDMDL