MODEL 5
REMARK VINA RESULT: -7.370170981      2.800      6.226
REMARK  9 active torsions:
REMARK  status: ('A' for Active; 'I' for Inactive)
REMARK    1  A    between atoms: C2_2  and  C3_4
REMARK    2  A    between atoms: C3_4  and  C4_5
REMARK    3  A    between atoms: C4_5  and  C5_6
REMARK    4  A    between atoms: C7_11  and  C8_12
REMARK    5  A    between atoms: C8_12  and  C9_13
REMARK    6  A    between atoms: C13_25  and  C14_26
REMARK    7  A    between atoms: C18_33  and  C19_34
REMARK    8  A    between atoms: C22_39  and  O5_40
REMARK    9  A    between atoms: C23_42  and  C24_43
ROOT
HETATM    1  C5  UNL     1      14.197  10.984  -0.873  1.00  0.00     0.026 C
HETATM    2  N1  UNL     1      14.320   9.589  -1.088  1.00  0.00    -0.328 N
ATOM      3  H1  UNL     1      13.435   9.084  -1.054  1.00  0.00     0.168 HD
HETATM    4  C6  UNL     1      15.443   8.771  -1.340  1.00  0.00     0.245 C
HETATM    5  O2  UNL     1      15.266   7.494  -1.434  1.00  0.00    -0.271 OA
HETATM    6  C7  UNL     1      16.859   9.109  -1.530  1.00  0.00     0.182 C
HETATM    7  N4  UNL     1      17.808   8.322  -0.788  1.00  0.00    -0.346 N
ATOM      8  H4  UNL     1      18.781   8.510  -1.026  1.00  0.00     0.163 HD
HETATM    9  C12 UNL     1      17.640   7.348   0.197  1.00  0.00     0.241 C
HETATM   10  O3  UNL     1      17.858   6.130  -0.159  1.00  0.00    -0.271 OA
HETATM   11  C13 UNL     1      17.247   7.476   1.618  1.00  0.00     0.180 C
HETATM   12  N5  UNL     1      15.951   6.885   1.880  1.00  0.00    -0.346 N
ATOM     13  H5  UNL     1      15.822   5.936   1.531  1.00  0.00     0.163 HD
HETATM   14  C17 UNL     1      14.854   7.433   2.545  1.00  0.00     0.241 C
HETATM   15  O4  UNL     1      14.274   6.627   3.370  1.00  0.00    -0.271 OA
HETATM   16  C18 UNL     1      14.257   8.783   2.451  1.00  0.00     0.179 C
HETATM   17  N6  UNL     1      15.163   9.874   2.353  1.00  0.00    -0.357 N
ATOM     18  H6  UNL     1      15.785   9.953   3.158  1.00  0.00     0.162 HD
HETATM   19  C22 UNL     1      15.384  10.861   1.392  1.00  0.00     0.145 C
HETATM   20  C23 UNL     1      14.520  11.566   0.459  1.00  0.00     0.019 C
ENDROOT
BRANCH   6  21
HETATM   21  C8  UNL     1      17.091   9.068  -3.039  1.00  0.00     0.095 C
BRANCH  21  22
HETATM   22  C9  UNL     1      18.194   9.853  -3.544  1.00  0.00     0.046 A
HETATM   23  N2  UNL     1      19.423   9.993  -2.956  1.00  0.00    -0.353 N
HETATM   24  C10 UNL     1      20.218  10.748  -3.705  1.00  0.00     0.181 A
ATOM     25  H2  UNL     1      19.690   9.574  -2.065  1.00  0.00     0.166 HD
HETATM   26  N3  UNL     1      19.529  11.108  -4.780  1.00  0.00    -0.345 N
HETATM   27  C11 UNL     1      18.282  10.571  -4.704  1.00  0.00     0.103 A
ATOM     28  H3  UNL     1      19.877  11.693  -5.540  1.00  0.00     0.167 HD
HETATM   29 BR1  UNL     1      16.964  10.913  -6.038  1.00  0.00    -0.029 Br
ENDBRANCH  21  22
ENDBRANCH   6  21
BRANCH   1  30
HETATM   30  C4  UNL     1      14.386  11.908  -2.046  1.00  0.00     0.088 C
BRANCH  30  31
HETATM   31  C3  UNL     1      15.717  12.338  -2.446  1.00  0.00     0.029 C
BRANCH  31  32
HETATM   32  C2  UNL     1      16.536  13.304  -1.774  1.00  0.00     0.142 C
HETATM   33  C1  UNL     1      18.042  13.037  -1.798  1.00  0.00     0.095 C
HETATM   34  O1  UNL     1      16.204  14.282  -1.200  1.00  0.00    -0.294 OA
ENDBRANCH  31  32
ENDBRANCH  30  31
ENDBRANCH   1  30
BRANCH  11  35
HETATM   35  C14 UNL     1      18.312   6.736   2.460  1.00  0.00     0.009 C
HETATM   36  C15 UNL     1      19.549   7.609   2.511  1.00  0.00     0.012 C
HETATM   37  C16 UNL     1      17.905   6.462   3.856  1.00  0.00     0.012 C
ENDBRANCH  11  35
BRANCH  20  38
HETATM   38  C24 UNL     1      13.390  12.349   1.101  1.00  0.00     0.017 C
HETATM   39  C25 UNL     1      12.023  11.850   0.913  1.00  0.00     0.015 C
HETATM   40  C26 UNL     1      13.425  13.834   0.857  1.00  0.00     0.015 C
ENDBRANCH  20  38
BRANCH  19  41
HETATM   41  O5  UNL     1      16.663  11.189   1.368  1.00  0.00    -0.346 OA
ATOM     42  H5  UNL     1      16.814  11.858   0.712  1.00  0.00     0.219 HD
ENDBRANCH  19  41
BRANCH  16  43
HETATM   43  C19 UNL     1      13.496   9.056   3.786  1.00  0.00     0.009 C
HETATM   44  C20 UNL     1      12.226   9.837   3.528  1.00  0.00     0.012 C
HETATM   45  C21 UNL     1      14.393   9.672   4.806  1.00  0.00     0.012 C
ENDBRANCH  16  43
TORSDOF 9
ENDMDL