MODEL 1
REMARK VINA RESULT: -10.943857669      0.000      0.000
REMARK  10 active torsions:
REMARK  status: ('A' for Active; 'I' for Inactive)
REMARK    1  A    between atoms: C3_3  and  C4_4
REMARK    2  A    between atoms: C5_5  and  N1_6
REMARK    3  A    between atoms: N1_6  and  C6_8
REMARK    4  A    between atoms: C7_11  and  N3_12
REMARK    5  A    between atoms: C8_17  and  N5_18
REMARK    6  A    between atoms: C9_20  and  C10_21
REMARK    7  A    between atoms: C10_21  and  C11_22
REMARK    8  A    between atoms: C19_33  and  C20_34
REMARK    9  A    between atoms: C20_34  and  N7_35
REMARK   10  A    between atoms: C24_42  and  C25_43
ROOT
HETATM    1  C1  UNL     1      17.486   7.852   3.891  1.00  0.00     0.112 C
HETATM    2  C2  UNL     1      16.751   8.629   2.889  1.00  0.00    -0.104 C
HETATM    3  C3  UNL     1      16.164   9.278   2.060  1.00  0.00    -0.047 C
ENDROOT
BRANCH   3   4
HETATM    4  C4  UNL     1      15.476  10.075   1.055  1.00  0.00     0.117 A
HETATM    5  C5  UNL     1      14.395  10.860   1.380  1.00  0.00     0.102 A
HETATM    6  C17 UNL     1      13.784  11.591   0.390  1.00  0.00     0.043 A
HETATM    7 BR1  UNL     1      12.272  12.693   0.839  1.00  0.00    -0.049 Br
HETATM    8  C18 UNL     1      14.239  11.541  -0.904  1.00  0.00     0.048 A
HETATM    9  C19 UNL     1      15.321  10.752  -1.216  1.00  0.00     0.042 A
HETATM   10  N9  UNL     1      15.893  10.051  -0.222  1.00  0.00    -0.344 N
HETATM   11  C28 UNL     1      17.054   9.194  -0.523  1.00  0.00     0.157 C
BRANCH   5  12
HETATM   12  N1  UNL     1      13.963  10.878   2.734  1.00  0.00    -0.186 N
ATOM     13  H1  UNL     1      14.358  11.579   3.361  1.00  0.00     0.184 HD
BRANCH  12  14
HETATM   14  C6  UNL     1      13.094  10.047   3.208  1.00  0.00     0.712 A
HETATM   15  N2  UNL     1      13.263   8.720   3.212  1.00  0.00    -0.021 N
HETATM   16  C7  UNL     1      12.322   7.897   3.719  1.00  0.00     0.705 A
ATOM     17  H2  UNL     1      14.119   8.324   2.824  1.00  0.00     0.203 HD
HETATM   18  N4  UNL     1      11.180   8.377   4.240  1.00  0.00    -0.021 N
HETATM   19  C8  UNL     1      10.987   9.707   4.248  1.00  0.00     0.710 A
ATOM     20  H4  UNL     1      10.475   7.746   4.621  1.00  0.00     0.203 HD
HETATM   21  N6  UNL     1      11.969  10.525   3.721  1.00  0.00    -0.021 N
ATOM     22  H6  UNL     1      11.822  11.535   3.727  1.00  0.00     0.203 HD
BRANCH  16  23
HETATM   23  N3  UNL     1      12.545   6.610   3.694  1.00  0.00    -0.234 N
ATOM     24  H32 UNL     1      12.489   6.095   2.816  1.00  0.00     0.174 HD
ATOM     25  H31 UNL     1      12.775   6.142   4.571  1.00  0.00     0.174 HD
ENDBRANCH  16  23
BRANCH  19  26
HETATM   26  N5  UNL     1       9.981  10.260   4.698  1.00  0.00    -0.204 N
HETATM   27  C9  UNL     1       8.645  10.500   4.614  1.00  0.00     0.083 C
ATOM     28  H5  UNL     1      10.300  10.781   5.514  1.00  0.00     0.183 HD
BRANCH  27  29
HETATM   29  C10 UNL     1       7.912   9.790   3.508  1.00  0.00     0.083 C
BRANCH  29  30
HETATM   30  C11 UNL     1       6.454   9.654   3.828  1.00  0.00    -0.053 A
HETATM   31  C12 UNL     1       5.604   9.151   2.875  1.00  0.00     0.007 A
HETATM   32  C13 UNL     1       4.235   9.006   3.130  1.00  0.00     0.001 A
HETATM   33  C14 UNL     1       3.756   9.382   4.364  1.00  0.00     0.000 A
HETATM   34  C15 UNL     1       4.599   9.897   5.353  1.00  0.00     0.001 A
HETATM   35  C16 UNL     1       5.942  10.017   5.044  1.00  0.00     0.007 A
ENDBRANCH  29  30
ENDBRANCH  27  29
ENDBRANCH  19  26
ENDBRANCH  12  14
ENDBRANCH   5  12
BRANCH   9  36
HETATM   36  C20 UNL     1      15.891  10.629  -2.563  1.00  0.00     0.330 C
BRANCH  36  37
HETATM   37  N7  UNL     1      16.441  11.817  -3.122  1.00  0.00     0.109 N
HETATM   38  C21 UNL     1      17.850  11.984  -2.882  1.00  0.00     0.293 C
HETATM   39  C22 UNL     1      18.648  10.746  -3.227  1.00  0.00     0.153 C
HETATM   40  N8  UNL     1      18.277  10.255  -4.559  1.00  0.00    -0.358 N
HETATM   41  C23 UNL     1      16.972  10.544  -5.089  1.00  0.00     0.251 C
ATOM     42  H8  UNL     1      18.942   9.710  -5.107  1.00  0.00     0.162 HD
HETATM   43  O1  UNL     1      16.500   9.762  -5.952  1.00  0.00    -0.271 OA
HETATM   44  C24 UNL     1      16.285  11.751  -4.573  1.00  0.00     0.317 C
BRANCH  44  45
HETATM   45  C25 UNL     1      14.862  11.729  -5.026  1.00  0.00     0.020 C
HETATM   46  C26 UNL     1      14.030  12.820  -4.383  1.00  0.00     0.012 C
HETATM   47  C27 UNL     1      14.872  12.032  -6.519  1.00  0.00     0.012 C
ENDBRANCH  44  45
ENDBRANCH  36  37
ENDBRANCH   9  36
ENDBRANCH   3   4
TORSDOF 10
ENDMDL