MODEL 5
REMARK VINA RESULT: -8.111419863      2.733      3.757
REMARK  9 active torsions:
REMARK  status: ('A' for Active; 'I' for Inactive)
REMARK    1  A    between atoms: C2_2  and  C3_3
REMARK    2  A    between atoms: C3_3  and  C4_4
REMARK    3  A    between atoms: C8_11  and  C9_12
REMARK    4  A    between atoms: C9_12  and  C10_13
REMARK    5  A    between atoms: C10_13  and  C11_14
REMARK    6  A    between atoms: C11_14  and  N2_15
REMARK       I    between atoms: N2_15  and  C12_17
REMARK       I    between atoms: C12_17  and  N4_24
REMARK    7  A    between atoms: N3_18  and  C13_20
REMARK    8  A    between atoms: C13_20  and  S2_22
REMARK       I    between atoms: N4_24  and  C15_26
REMARK    9  A    between atoms: C15_26  and  C16_28
ROOT
HETATM    1  C4  UNL     1      16.155  10.224  -4.065  1.00  0.00     0.112 C
HETATM    2  C5  UNL     1      15.584  10.558  -2.652  1.00  0.00     0.122 C
HETATM    3  C6  UNL     1      16.354  11.697  -2.091  1.00  0.00     0.130 C
HETATM    4  C7  UNL     1      15.510  12.751  -1.472  1.00  0.00     0.221 C
HETATM    5  O1  UNL     1      15.284  13.779  -2.208  1.00  0.00    -0.273 OA
HETATM    6  N1  UNL     1      14.950  12.741  -0.204  1.00  0.00    -0.340 N
ATOM      7  H1  UNL     1      15.120  13.554   0.390  1.00  0.00     0.164 HD
HETATM    8  C8  UNL     1      14.119  11.636   0.363  1.00  0.00     0.188 C
HETATM    9  N5  UNL     1      15.029  10.957   1.244  1.00  0.00    -0.322 N
ATOM     10  H5  UNL     1      15.193  11.402   2.147  1.00  0.00     0.166 HD
HETATM   11  C17 UNL     1      15.724   9.752   1.015  1.00  0.00     0.319 C
HETATM   12  O3  UNL     1      16.846   9.686   1.665  1.00  0.00    -0.247 OA
HETATM   13  N6  UNL     1      15.390   8.657   0.217  1.00  0.00    -0.327 N
ATOM     14  H6  UNL     1      15.365   7.764   0.708  1.00  0.00     0.165 HD
HETATM   15  C18 UNL     1      15.079   8.582  -1.173  1.00  0.00     0.256 C
HETATM   16  N7  UNL     1      15.979   9.288  -2.018  1.00  0.00    -0.311 N
HETATM   17  C19 UNL     1      17.306   9.087  -2.488  1.00  0.00     0.322 C
HETATM   18  O4  UNL     1      18.164   8.294  -2.026  1.00  0.00    -0.247 OA
HETATM   19  N8  UNL     1      17.504   9.979  -3.625  1.00  0.00    -0.332 N
HETATM   20  C20 UNL     1      18.727  10.474  -4.137  1.00  0.00     0.155 C
ENDROOT
BRANCH   8  21
HETATM   21  C9  UNL     1      12.969  12.332   0.987  1.00  0.00     0.048 C
BRANCH  21  22
HETATM   22  C10 UNL     1      11.787  11.608   1.448  1.00  0.00     0.024 C
BRANCH  22  23
HETATM   23  C11 UNL     1      11.922  11.027   2.821  1.00  0.00     0.138 C
BRANCH  23  24
HETATM   24  N2  UNL     1      11.088   9.837   2.988  1.00  0.00    -0.226 N
HETATM   25  C12 UNL     1      10.848   9.172   4.201  1.00  0.00     0.682 C
HETATM   26  N3  UNL     1      11.780   8.671   4.899  1.00  0.00    -0.175 N
HETATM   27  N4  UNL     1       9.499   9.024   4.713  1.00  0.00    -0.159 N
ATOM     28  H3  UNL     1      11.473   8.217   5.759  1.00  0.00     0.185 HD
HETATM   29  C15 UNL     1       8.383   9.525   4.023  1.00  0.00     0.245 C
ATOM     30  H4  UNL     1       9.356   8.541   5.600  1.00  0.00     0.187 HD
HETATM   31  O2  UNL     1       8.444  10.128   2.928  1.00  0.00    -0.272 OA
ATOM     32  H2  UNL     1      10.642   9.459   2.152  1.00  0.00     0.177 HD
BRANCH  26  33
HETATM   33  C13 UNL     1      13.156   8.643   4.678  1.00  0.00     0.153 C
HETATM   34  S1  UNL     1      14.192   9.580   5.559  1.00  0.00    -0.052 SA
BRANCH  33  35
HETATM   35  S2  UNL     1      13.878   7.568   3.437  1.00  0.00    -0.104 SA
HETATM   36  C14 UNL     1      15.580   7.198   3.920  1.00  0.00     0.098 C
ENDBRANCH  33  35
ENDBRANCH  26  33
BRANCH  29  37
HETATM   37  C16 UNL     1       7.026   9.341   4.606  1.00  0.00     0.188 C
HETATM   38 BR1  UNL     1       5.644   9.769   3.350  1.00  0.00    -0.087 Br
ENDBRANCH  29  37
ENDBRANCH  23  24
ENDBRANCH  22  23
ENDBRANCH  21  22
ENDBRANCH   8  21
BRANCH   1  39
HETATM   39  C3  UNL     1      15.921  11.325  -5.009  1.00  0.00     0.027 C
BRANCH  39  40
HETATM   40  C2  UNL     1      14.462  11.681  -5.134  1.00  0.00    -0.002 C
HETATM   41  C1  UNL     1      14.295  13.129  -5.600  1.00  0.00     0.005 C
ENDBRANCH  39  40
ENDBRANCH   1  39
TORSDOF 9
ENDMDL