MODEL 3
REMARK VINA RESULT: -7.250967396      3.004      6.160
REMARK  7 active torsions:
REMARK  status: ('A' for Active; 'I' for Inactive)
REMARK    1  A    between atoms: C2_2  and  C3_3
REMARK    2  A    between atoms: C3_3  and  C5_5
REMARK    3  A    between atoms: C7_10  and  C8_11
REMARK    4  A    between atoms: C12_17  and  C13_18
REMARK    5  A    between atoms: C13_18  and  C14_19
REMARK    6  A    between atoms: C18_27  and  C19_28
REMARK    7  A    between atoms: C19_28  and  C20_29
ROOT
HETATM    1  C5  UNL     1      17.977  10.140  -3.233  1.00  0.00     0.084 C
HETATM    2  N1  UNL     1      17.976   8.744  -2.920  1.00  0.00    -0.323 N
ATOM      3  H1  UNL     1      18.298   8.165  -3.696  1.00  0.00     0.169 HD
HETATM    4  C6  UNL     1      17.635   7.999  -1.800  1.00  0.00     0.252 C
HETATM    5  O1  UNL     1      16.578   7.257  -1.836  1.00  0.00    -0.270 OA
HETATM    6  C7  UNL     1      18.295   7.877  -0.469  1.00  0.00     0.227 C
HETATM    7  O2  UNL     1      17.389   8.113   0.511  1.00  0.00    -0.304 OA
HETATM    8  C11 UNL     1      16.655   7.622   1.475  1.00  0.00     0.282 C
HETATM    9  O3  UNL     1      15.632   6.902   1.306  1.00  0.00    -0.263 OA
HETATM   10  C12 UNL     1      16.958   7.871   2.915  1.00  0.00     0.185 C
HETATM   11  N2  UNL     1      15.681   8.075   3.616  1.00  0.00    -0.347 N
ATOM     12  H2  UNL     1      15.541   7.551   4.479  1.00  0.00     0.163 HD
HETATM   13  C15 UNL     1      14.644   8.915   3.213  1.00  0.00     0.218 C
HETATM   14  O4  UNL     1      13.471   8.722   3.691  1.00  0.00    -0.274 OA
HETATM   15  C16 UNL     1      14.698  10.055   2.269  1.00  0.00     0.105 C
HETATM   16  C17 UNL     1      13.377  10.304   1.579  1.00  0.00     0.034 C
HETATM   17  C18 UNL     1      13.573  11.085   0.280  1.00  0.00     0.085 C
HETATM   18  N3  UNL     1      14.305  10.315  -0.688  1.00  0.00    -0.355 N
ATOM     19  H3  UNL     1      14.820   9.523  -0.301  1.00  0.00     0.162 HD
HETATM   20  C23 UNL     1      14.428  10.473  -2.076  1.00  0.00     0.240 C
HETATM   21  O5  UNL     1      13.996   9.506  -2.804  1.00  0.00    -0.271 OA
HETATM   22  C24 UNL     1      14.997  11.613  -2.826  1.00  0.00     0.172 C
HETATM   23  C25 UNL     1      14.914  11.408  -4.324  1.00  0.00     0.042 C
HETATM   24  N4  UNL     1      16.339  11.956  -2.398  1.00  0.00    -0.343 N
ATOM     25  H4  UNL     1      16.507  12.935  -2.168  1.00  0.00     0.163 HD
HETATM   26  C26 UNL     1      17.441  11.081  -2.266  1.00  0.00     0.265 C
HETATM   27  O6  UNL     1      18.045  11.137  -1.129  1.00  0.00    -0.266 OA
ENDROOT
BRANCH   1  28
HETATM   28  C3  UNL     1      19.246  10.577  -3.895  1.00  0.00     0.037 C
HETATM   29  C4  UNL     1      19.038  10.887  -5.359  1.00  0.00     0.016 C
BRANCH  28  30
HETATM   30  C2  UNL     1      20.459   9.754  -3.777  1.00  0.00     0.006 C
HETATM   31  C1  UNL     1      21.242   9.854  -2.514  1.00  0.00     0.006 C
ENDBRANCH  28  30
ENDBRANCH   1  28
BRANCH   6  32
HETATM   32  C8  UNL     1      19.019   6.522  -0.406  1.00  0.00     0.016 C
HETATM   33  C9  UNL     1      19.632   6.121  -1.702  1.00  0.00     0.012 C
HETATM   34  C10 UNL     1      19.932   6.385   0.758  1.00  0.00     0.012 C
ENDBRANCH   6  32
BRANCH  10  35
HETATM   35  C13 UNL     1      17.905   9.012   3.130  1.00  0.00     0.046 C
BRANCH  35  36
HETATM   36  C14 UNL     1      19.229   8.522   3.740  1.00  0.00     0.088 C
HETATM   37 BR1  UNL     1      19.054   6.775   4.497  1.00  0.00    -0.096 Br
ENDBRANCH  35  36
ENDBRANCH  10  35
BRANCH  17  38
HETATM   38  C19 UNL     1      14.299  12.375   0.550  1.00  0.00     0.029 C
BRANCH  38  39
HETATM   39  C20 UNL     1      13.719  13.527  -0.251  1.00  0.00    -0.021 C
HETATM   40  C21 UNL     1      12.637  14.164   0.594  1.00  0.00     0.009 C
HETATM   41  C22 UNL     1      14.758  14.591  -0.531  1.00  0.00     0.009 C
ENDBRANCH  38  39
ENDBRANCH  17  38
TORSDOF 7
ENDMDL