MODEL 5
REMARK VINA RESULT: -6.948784136      2.598      5.853
REMARK  7 active torsions:
REMARK  status: ('A' for Active; 'I' for Inactive)
REMARK    1  A    between atoms: C2_2  and  C3_3
REMARK    2  A    between atoms: C3_3  and  C5_5
REMARK    3  A    between atoms: C7_10  and  C8_11
REMARK    4  A    between atoms: C14_23  and  C15_24
REMARK    5  A    between atoms: C19_31  and  C20_32
REMARK    6  A    between atoms: C20_32  and  C21_33
REMARK    7  A    between atoms: C25_40  and  C26_41
ROOT
HETATM    1  C5  UNL     1      15.394   8.788   4.059  1.00  0.00     0.180 C
HETATM    2  N1  UNL     1      16.666   8.139   3.912  1.00  0.00    -0.342 N
ATOM      3  H1  UNL     1      16.818   7.628   3.042  1.00  0.00     0.163 HD
HETATM    4  C6  UNL     1      17.718   8.130   4.828  1.00  0.00     0.266 C
HETATM    5  O1  UNL     1      18.263   6.987   5.104  1.00  0.00    -0.266 OA
HETATM    6  C7  UNL     1      18.314   9.244   5.540  1.00  0.00     0.091 C
HETATM    7  N2  UNL     1      18.624  10.361   5.037  1.00  0.00    -0.387 N
ATOM      8  H2  UNL     1      19.032  11.016   5.703  1.00  0.00     0.159 HD
HETATM    9  C10 UNL     1      18.511  10.873   3.727  1.00  0.00     0.121 C
HETATM   10  C11 UNL     1      19.401  10.182   2.717  1.00  0.00     0.039 C
HETATM   11  C12 UNL     1      18.934  10.600   1.340  1.00  0.00     0.124 C
HETATM   12  N3  UNL     1      20.043  11.159   0.577  1.00  0.00    -0.359 N
ATOM     13  H3  UNL     1      20.264  12.143   0.727  1.00  0.00     0.162 HD
HETATM   14  C13 UNL     1      20.828  10.459  -0.342  1.00  0.00     0.240 C
HETATM   15  O2  UNL     1      22.097  10.602  -0.269  1.00  0.00    -0.271 OA
HETATM   16  C14 UNL     1      20.346   9.553  -1.413  1.00  0.00     0.180 C
HETATM   17  N4  UNL     1      18.972   9.732  -1.769  1.00  0.00    -0.346 N
ATOM     18  H4  UNL     1      18.629  10.693  -1.757  1.00  0.00     0.163 HD
HETATM   19  C18 UNL     1      18.035   8.749  -2.133  1.00  0.00     0.241 C
HETATM   20  O3  UNL     1      17.345   8.872  -3.205  1.00  0.00    -0.271 OA
HETATM   21  C19 UNL     1      17.752   7.494  -1.333  1.00  0.00     0.177 C
HETATM   22  N5  UNL     1      16.306   7.263  -1.467  1.00  0.00    -0.346 N
ATOM     23  H5  UNL     1      15.974   6.973  -2.387  1.00  0.00     0.163 HD
HETATM   24  C24 UNL     1      15.349   7.397  -0.481  1.00  0.00     0.241 C
HETATM   25  O4  UNL     1      14.308   6.655  -0.525  1.00  0.00    -0.271 OA
HETATM   26  C25 UNL     1      15.386   8.349   0.685  1.00  0.00     0.180 C
HETATM   27  N6  UNL     1      14.651   7.772   1.787  1.00  0.00    -0.346 N
ATOM     28  H6  UNL     1      14.250   6.851   1.613  1.00  0.00     0.163 HD
HETATM   29  C29 UNL     1      14.417   8.298   3.051  1.00  0.00     0.241 C
HETATM   30  O5  UNL     1      13.184   8.381   3.423  1.00  0.00    -0.271 OA
ENDROOT
BRANCH   1  31
HETATM   31  C3  UNL     1      14.808   8.602   5.469  1.00  0.00     0.013 C
HETATM   32  C4  UNL     1      13.862   9.709   5.780  1.00  0.00     0.012 C
BRANCH  31  33
HETATM   33  C2  UNL     1      14.269   7.222   5.651  1.00  0.00     0.002 C
HETATM   34  C1  UNL     1      14.672   6.680   7.002  1.00  0.00     0.005 C
ENDBRANCH  31  33
ENDBRANCH   1  31
BRANCH   6  35
HETATM   35  C8  UNL     1      18.604   9.011   7.012  1.00  0.00     0.133 C
HETATM   36  C9  UNL     1      17.430   9.456   7.854  1.00  0.00     0.033 C
HETATM   37 CL1  UNL     1      20.082   9.864   7.499  1.00  0.00    -0.119 Cl
ENDBRANCH   6  35
BRANCH  26  38
HETATM   38  C26 UNL     1      14.753   9.620   0.151  1.00  0.00     0.009 C
HETATM   39  C27 UNL     1      15.467  10.849   0.653  1.00  0.00     0.012 C
HETATM   40  C28 UNL     1      14.528   9.627  -1.320  1.00  0.00     0.012 C
ENDBRANCH  26  38
BRANCH  21  41
HETATM   41  C20 UNL     1      18.502   6.364  -1.947  1.00  0.00     0.038 C
BRANCH  41  42
HETATM   42  C21 UNL     1      19.534   5.689  -1.131  1.00  0.00    -0.020 C
HETATM   43  C22 UNL     1      20.905   5.579  -1.693  1.00  0.00     0.009 C
HETATM   44  C23 UNL     1      19.681   6.386   0.238  1.00  0.00     0.009 C
ENDBRANCH  41  42
ENDBRANCH  21  41
BRANCH  16  45
HETATM   45  C15 UNL     1      21.194   9.894  -2.641  1.00  0.00     0.009 C
HETATM   46  C16 UNL     1      21.351   8.721  -3.551  1.00  0.00     0.012 C
HETATM   47  C17 UNL     1      20.569  11.026  -3.425  1.00  0.00     0.012 C
ENDBRANCH  16  45
TORSDOF 7
ENDMDL