MODEL 3
REMARK VINA RESULT: -7.742953101      1.904      5.692
REMARK  9 active torsions:
REMARK  status: ('A' for Active; 'I' for Inactive)
REMARK    1  A    between atoms: C2_2  and  C3_3
REMARK    2  A    between atoms: C3_3  and  C5_5
REMARK    3  A    between atoms: C5_5  and  O1_6
REMARK    4  A    between atoms: O1_6  and  C6_7
REMARK       I    between atoms: N1_10  and  C9_12
REMARK    5  A    between atoms: C13_20  and  C14_21
REMARK    6  A    between atoms: C14_21  and  C16_23
REMARK    7  A    between atoms: C19_29  and  C20_30
REMARK    8  A    between atoms: C20_30  and  C22_32
REMARK    9  A    between atoms: C24_36  and  O5_37
ROOT
HETATM    1  C6  UNL     1       8.852  39.378  17.600  1.00  0.00     0.228 C
HETATM    2  C7  UNL     1      10.151  39.124  16.921  1.00  0.00     0.110 C
HETATM    3  C8  UNL     1      10.356  37.793  16.365  1.00  0.00     0.039 C
HETATM    4  N1  UNL     1      11.212  37.601  15.430  1.00  0.00    -0.331 N
ATOM      5  H1  UNL     1      11.350  36.666  15.046  1.00  0.00     0.168 HD
HETATM    6  C9  UNL     1      11.969  38.693  14.930  1.00  0.00     0.217 C
HETATM    7  C10 UNL     1      11.632  39.381  13.673  1.00  0.00     0.117 C
HETATM    8  O2  UNL     1      12.967  39.063  15.617  1.00  0.00    -0.274 OA
HETATM    9  C11 UNL     1       9.544  36.614  16.902  1.00  0.00     0.218 C
HETATM   10  N2  UNL     1       9.775  35.511  16.010  1.00  0.00    -0.330 N
ATOM     11  H2  UNL     1       9.277  35.541  15.120  1.00  0.00     0.164 HD
HETATM   12  C12 UNL     1      10.601  34.399  16.216  1.00  0.00     0.242 C
HETATM   13  O3  UNL     1      11.478  34.131  15.346  1.00  0.00    -0.271 OA
HETATM   14  C13 UNL     1      10.537  33.487  17.389  1.00  0.00     0.180 C
HETATM   15  N3  UNL     1       9.180  33.049  17.626  1.00  0.00    -0.346 N
ATOM     16  H3  UNL     1       8.900  32.140  17.260  1.00  0.00     0.163 HD
HETATM   17  C18 UNL     1       8.202  33.820  18.348  1.00  0.00     0.241 C
HETATM   18  O4  UNL     1       7.033  33.826  17.885  1.00  0.00    -0.271 OA
HETATM   19  C19 UNL     1       8.513  34.566  19.553  1.00  0.00     0.179 C
HETATM   20  N4  UNL     1       9.129  35.866  19.354  1.00  0.00    -0.358 N
ATOM     21  H4  UNL     1       8.993  36.513  20.131  1.00  0.00     0.162 HD
HETATM   22  C24 UNL     1       9.865  36.391  18.311  1.00  0.00     0.157 C
HETATM   23  C25 UNL     1       8.141  37.134  16.715  1.00  0.00     0.262 C
HETATM   24  O6  UNL     1       7.271  36.574  16.021  1.00  0.00    -0.270 OA
HETATM   25  N5  UNL     1       7.863  38.341  17.398  1.00  0.00    -0.331 N
ATOM     26  H5  UNL     1       6.922  38.486  17.765  1.00  0.00     0.165 HD
ENDROOT
BRANCH  22  27
HETATM   27  O5  UNL     1      11.080  36.769  18.618  1.00  0.00    -0.347 OA
ATOM     28  H5  UNL     1      11.732  36.423  18.020  1.00  0.00     0.219 HD
ENDBRANCH  22  27
BRANCH   1  29
HETATM   29  O1  UNL     1       8.257  40.565  17.151  1.00  0.00    -0.366 OA
BRANCH  29  30
HETATM   30  C5  UNL     1       6.885  40.432  16.971  1.00  0.00     0.174 C
BRANCH  30  31
HETATM   31  C3  UNL     1       6.202  41.650  17.525  1.00  0.00     0.005 C
HETATM   32  C4  UNL     1       6.914  42.930  17.108  1.00  0.00     0.012 C
BRANCH  31  33
HETATM   33  C2  UNL     1       6.106  41.602  19.036  1.00  0.00     0.002 C
HETATM   34  C1  UNL     1       4.977  42.470  19.546  1.00  0.00     0.005 C
ENDBRANCH  31  33
ENDBRANCH  30  31
ENDBRANCH  29  30
ENDBRANCH   1  29
BRANCH  14  35
HETATM   35  C14 UNL     1      11.374  32.243  17.149  1.00  0.00     0.013 C
HETATM   36  C15 UNL     1      12.819  32.446  17.515  1.00  0.00     0.012 C
BRANCH  35  37
HETATM   37  C16 UNL     1      10.818  31.127  17.996  1.00  0.00     0.002 C
HETATM   38  C17 UNL     1      11.679  30.813  19.197  1.00  0.00     0.005 C
ENDBRANCH  35  37
ENDBRANCH  14  35
BRANCH  19  39
HETATM   39  C20 UNL     1       7.406  34.662  20.582  1.00  0.00     0.013 C
HETATM   40  C21 UNL     1       7.991  34.292  21.943  1.00  0.00     0.012 C
BRANCH  39  41
HETATM   41  C22 UNL     1       6.671  35.952  20.655  1.00  0.00     0.002 C
HETATM   42  C23 UNL     1       5.177  35.607  20.494  1.00  0.00     0.005 C
ENDBRANCH  39  41
ENDBRANCH  19  39
TORSDOF 9
ENDMDL