MODEL 2
REMARK VINA RESULT: -6.710176795      3.447      7.371
REMARK  10 active torsions:
REMARK  status: ('A' for Active; 'I' for Inactive)
REMARK    1  A    between atoms: C2_2  and  C3_3
REMARK    2  A    between atoms: C3_3  and  C4_4
REMARK    3  A    between atoms: C6_9  and  C7_10
REMARK    4  A    between atoms: C7_10  and  C8_11
REMARK    5  A    between atoms: C8_11  and  N2_12
REMARK    6  A    between atoms: N2_12  and  C9_15
REMARK    7  A    between atoms: C17_27  and  C18_28
REMARK    8  A    between atoms: C18_28  and  C19_29
REMARK    9  A    between atoms: C22_34  and  O3_35
REMARK   10  A    between atoms: C26_41  and  O4_42
ROOT
HETATM    1  C4  UNL     1      10.243  37.632  16.966  1.00  0.00     0.159 C
HETATM    2  N1  UNL     1       9.929  39.021  16.585  1.00  0.00    -0.347 N
ATOM      3  H1  UNL     1      10.574  39.474  15.938  1.00  0.00     0.163 HD
HETATM    4  C5  UNL     1       8.846  39.780  17.015  1.00  0.00     0.249 C
HETATM    5  O1  UNL     1       8.118  40.349  16.122  1.00  0.00    -0.271 OA
HETATM    6  C6  UNL     1       8.396  40.035  18.411  1.00  0.00     0.278 C
HETATM    7  N3  UNL     1       7.220  39.215  18.742  1.00  0.00    -0.062 N
ATOM      8  H31 UNL     1       7.225  38.313  18.266  1.00  0.00     0.278 HD
ATOM      9  H32 UNL     1       6.359  39.582  18.336  1.00  0.00     0.278 HD
HETATM   10  C13 UNL     1       7.145  39.085  20.173  1.00  0.00     0.233 C
HETATM   11  C14 UNL     1       8.127  38.048  20.606  1.00  0.00     0.035 C
HETATM   12  C15 UNL     1       7.603  37.157  21.734  1.00  0.00     0.082 C
HETATM   13  C16 UNL     1       8.792  36.284  22.076  1.00  0.00     0.149 C
HETATM   14  O2  UNL     1       9.414  36.574  23.072  1.00  0.00    -0.296 OA
HETATM   15  C17 UNL     1       9.160  35.155  21.231  1.00  0.00     0.153 C
HETATM   16  N4  UNL     1      10.210  35.562  20.300  1.00  0.00    -0.361 N
ATOM     17  H4  UNL     1      10.712  36.415  20.545  1.00  0.00     0.162 HD
HETATM   18  C22 UNL     1      10.614  34.944  19.128  1.00  0.00     0.135 C
HETATM   19  C23 UNL     1       9.860  34.550  17.945  1.00  0.00     0.156 C
HETATM   20  C24 UNL     1       9.244  33.169  18.234  1.00  0.00     0.041 C
HETATM   21  N5  UNL     1       8.915  35.457  17.413  1.00  0.00    -0.356 N
HETATM   22  C25 UNL     1       7.506  35.032  17.476  1.00  0.00     0.152 C
HETATM   23  C26 UNL     1       9.123  36.725  16.814  1.00  0.00     0.137 C
ENDROOT
BRANCH   6  24
HETATM   24  C7  UNL     1       7.896  41.482  18.546  1.00  0.00     0.070 C
BRANCH  24  25
HETATM   25  C8  UNL     1       8.805  42.318  19.392  1.00  0.00     0.235 C
BRANCH  25  26
HETATM   26  N2  UNL     1       9.942  41.517  19.740  1.00  0.00    -0.067 N
ATOM     27  H22 UNL     1       9.795  40.551  19.450  1.00  0.00     0.278 HD
ATOM     28  H21 UNL     1      10.738  41.759  19.151  1.00  0.00     0.278 HD
BRANCH  26  29
HETATM   29  C9  UNL     1      10.312  41.571  21.123  1.00  0.00     0.115 C
HETATM   30  C10 UNL     1       9.233  42.138  21.986  1.00  0.00     0.045 C
HETATM   31  C11 UNL     1      11.512  42.522  21.215  1.00  0.00     0.045 C
HETATM   32  C12 UNL     1      10.781  40.236  21.657  1.00  0.00     0.045 C
ENDBRANCH  26  29
ENDBRANCH  25  26
ENDBRANCH  24  25
ENDBRANCH   6  24
BRANCH   1  33
HETATM   33  C3  UNL     1      11.468  37.198  16.256  1.00  0.00     0.033 C
BRANCH  33  34
HETATM   34  C2  UNL     1      12.087  38.134  15.269  1.00  0.00    -0.002 C
HETATM   35  C1  UNL     1      13.577  38.250  15.268  1.00  0.00     0.005 C
ENDBRANCH  33  34
ENDBRANCH   1  33
BRANCH  23  36
HETATM   36  O4  UNL     1       8.206  37.186  16.009  1.00  0.00    -0.348 OA
ATOM     37  H4  UNL     1       7.474  37.578  16.470  1.00  0.00     0.219 HD
ENDBRANCH  23  36
BRANCH  15  38
HETATM   38  C18 UNL     1       9.495  33.925  21.972  1.00  0.00     0.036 C
BRANCH  38  39
HETATM   39  C19 UNL     1       8.418  32.913  22.069  1.00  0.00    -0.020 C
HETATM   40  C20 UNL     1       7.214  33.376  21.183  1.00  0.00     0.009 C
HETATM   41  C21 UNL     1       8.704  31.516  21.610  1.00  0.00     0.009 C
ENDBRANCH  38  39
ENDBRANCH  15  38
BRANCH  18  42
HETATM   42  O3  UNL     1      11.885  34.671  19.075  1.00  0.00    -0.348 OA
ATOM     43  H3  UNL     1      12.200  34.438  18.210  1.00  0.00     0.219 HD
ENDBRANCH  18  42
TORSDOF 10
ENDMDL