MODEL 5
REMARK VINA RESULT: -7.785929124      0.888      1.240
REMARK  10 active torsions:
REMARK  status: ('A' for Active; 'I' for Inactive)
REMARK    1  A    between atoms: C2_2  and  N1_3
REMARK    2  A    between atoms: C2_2  and  C3_7
REMARK       I    between atoms: C3_7  and  N2_9
REMARK    3  A    between atoms: N2_9  and  C4_11
REMARK    4  A    between atoms: C7_14  and  S1_15
REMARK    5  A    between atoms: S1_15  and  C8_16
REMARK    6  A    between atoms: C20_31  and  C21_32
REMARK    7  A    between atoms: C21_32  and  C22_33
REMARK    8  A    between atoms: C22_33  and  N4_34
REMARK    9  A    between atoms: N4_34  and  N5_36
REMARK   10  A    between atoms: N5_36  and  N6_37
ROOT
HETATM    1  C4  UNL     1       8.765  35.730  16.518  1.00  0.00     0.104 C
HETATM    2  C5  UNL     1       7.680  35.041  17.364  1.00  0.00     0.021 C
HETATM    3  C6  UNL     1       7.981  33.590  17.555  1.00  0.00     0.013 C
HETATM    4  C7  UNL     1       7.844  35.839  18.673  1.00  0.00     0.077 C
HETATM    5  C18 UNL     1       8.239  37.217  18.317  1.00  0.00     0.113 C
HETATM    6  N3  UNL     1       7.342  38.275  18.585  1.00  0.00    -0.353 N
ATOM      7  H3  UNL     1       6.631  38.093  19.293  1.00  0.00     0.163 HD
HETATM    8  C19 UNL     1       7.313  39.555  17.990  1.00  0.00     0.240 C
HETATM    9  O2  UNL     1       6.413  40.322  18.484  1.00  0.00    -0.271 OA
HETATM   10  C20 UNL     1       8.057  40.261  16.926  1.00  0.00     0.178 C
HETATM   11  N7  UNL     1       9.246  39.546  16.484  1.00  0.00    -0.347 N
ATOM     12  H7  UNL     1      10.015  40.122  16.143  1.00  0.00     0.163 HD
HETATM   13  C23 UNL     1       9.466  38.129  16.471  1.00  0.00     0.226 C
HETATM   14  O3  UNL     1      10.631  37.818  16.145  1.00  0.00    -0.273 OA
HETATM   15  C24 UNL     1       8.445  37.143  16.801  1.00  0.00     0.125 C
ENDROOT
BRANCH   4  16
HETATM   16  S1  UNL     1       6.715  35.497  19.918  1.00  0.00    -0.156 SA
BRANCH  16  17
HETATM   17  C8  UNL     1       6.625  34.098  20.904  1.00  0.00     0.056 C
HETATM   18  C9  UNL     1       7.904  33.458  21.373  1.00  0.00     0.000 C
HETATM   19  C10 UNL     1       8.717  34.296  22.297  1.00  0.00     0.010 C
HETATM   20  C14 UNL     1       7.504  32.212  22.146  1.00  0.00     0.010 C
HETATM   21  C11 UNL     1       7.918  34.734  23.499  1.00  0.00    -0.013 C
HETATM   22  C12 UNL     1       7.566  33.504  24.291  1.00  0.00     0.009 C
HETATM   23  C17 UNL     1       6.703  35.469  22.989  1.00  0.00     0.010 C
HETATM   24  C13 UNL     1       6.769  32.578  23.413  1.00  0.00    -0.013 C
HETATM   25  C15 UNL     1       5.512  33.299  23.000  1.00  0.00     0.010 C
HETATM   26  C16 UNL     1       5.882  34.495  22.203  1.00  0.00     0.000 C
ENDBRANCH  16  17
ENDBRANCH   4  16
BRANCH   1  27
HETATM   27  N2  UNL     1      10.068  35.279  16.863  1.00  0.00    -0.353 N
HETATM   28  C3  UNL     1      10.824  34.446  15.994  1.00  0.00     0.248 C
HETATM   29  O1  UNL     1      10.337  34.095  14.892  1.00  0.00    -0.271 OA
ATOM     30  H2  UNL     1      10.471  35.561  17.757  1.00  0.00     0.163 HD
BRANCH  28  31
HETATM   31  C2  UNL     1      12.177  33.971  16.342  1.00  0.00     0.270 C
HETATM   32  C1  UNL     1      12.558  34.545  17.689  1.00  0.00     0.050 C
BRANCH  31  33
HETATM   33  N1  UNL     1      12.236  32.543  16.389  1.00  0.00    -0.067 N
ATOM     34  H13 UNL     1      12.278  32.193  17.346  1.00  0.00     0.275 HD
ATOM     35  H12 UNL     1      11.354  32.113  16.111  1.00  0.00     0.275 HD
ATOM     36  H11 UNL     1      13.018  32.211  15.824  1.00  0.00     0.275 HD
ENDBRANCH  31  33
ENDBRANCH  28  31
ENDBRANCH   1  27
BRANCH  10  37
HETATM   37  C21 UNL     1       8.362  41.676  17.253  1.00  0.00     0.057 C
BRANCH  37  38
HETATM   38  C22 UNL     1       8.291  42.646  16.123  1.00  0.00     0.158 C
BRANCH  38  39
HETATM   39  N4  UNL     1       9.559  42.791  15.448  1.00  0.00    -0.253 N
ATOM     40  H4  UNL     1      10.232  43.485  15.775  1.00  0.00     0.196 HD
BRANCH  39  41
HETATM   41  N5  UNL     1       9.830  42.085  14.484  1.00  0.00    -0.249 NA
BRANCH  41  42
HETATM   42  N6  UNL     1       9.961  41.286  13.536  1.00  0.00    -0.261 N
ATOM     43  H62 UNL     1       9.742  40.561  14.220  1.00  0.00     0.193 HD
ATOM     44  H61 UNL     1      10.095  40.743  12.683  1.00  0.00     0.193 HD
ENDBRANCH  41  42
ENDBRANCH  39  41
ENDBRANCH  38  39
ENDBRANCH  37  38
ENDBRANCH  10  37
TORSDOF 10
ENDMDL