MODEL 2
REMARK VINA RESULT: -7.372114644      1.960      6.882
REMARK  8 active torsions:
REMARK  status: ('A' for Active; 'I' for Inactive)
REMARK    1  A    between atoms: C2_2  and  C3_3
REMARK    2  A    between atoms: C3_3  and  C4_4
REMARK    3  A    between atoms: C4_4  and  C5_5
REMARK    4  A    between atoms: C7_9  and  C8_10
REMARK    5  A    between atoms: C12_17  and  C13_18
REMARK    6  A    between atoms: C13_18  and  C14_19
REMARK    7  A    between atoms: C17_24  and  O4_25
REMARK    8  A    between atoms: C21_33  and  C22_34
ROOT
HETATM    1  C5  UNL     1       8.295  33.244  20.706  1.00  0.00     0.223 C
HETATM    2  O1  UNL     1       9.665  33.203  20.840  1.00  0.00    -0.305 OA
HETATM    3  C6  UNL     1      10.675  32.660  20.116  1.00  0.00     0.283 C
HETATM    4  O2  UNL     1      11.414  31.745  20.525  1.00  0.00    -0.263 OA
HETATM    5  C7  UNL     1      10.937  33.172  18.751  1.00  0.00     0.188 C
HETATM    6  N1  UNL     1      11.596  34.440  18.850  1.00  0.00    -0.342 N
ATOM      7  H1  UNL     1      11.499  34.874  19.769  1.00  0.00     0.163 HD
HETATM    8  C11 UNL     1      12.336  35.199  17.963  1.00  0.00     0.268 C
HETATM    9  O3  UNL     1      13.483  35.568  18.449  1.00  0.00    -0.266 OA
HETATM   10  C12 UNL     1      12.092  35.659  16.614  1.00  0.00     0.099 C
HETATM   11  N2  UNL     1      10.831  36.187  16.221  1.00  0.00    -0.335 N
ATOM     12  H2  UNL     1      10.868  36.474  15.243  1.00  0.00     0.168 HD
HETATM   13  C17 UNL     1       9.585  36.436  16.726  1.00  0.00     0.139 C
HETATM   14  C18 UNL     1       9.034  37.313  17.763  1.00  0.00     0.155 C
HETATM   15  C19 UNL     1       8.657  38.695  17.224  1.00  0.00     0.041 C
HETATM   16  N3  UNL     1       9.803  37.537  18.939  1.00  0.00    -0.348 N
ATOM     17  H3  UNL     1      10.772  37.798  18.755  1.00  0.00     0.163 HD
HETATM   18  C20 UNL     1       9.488  37.468  20.283  1.00  0.00     0.241 C
HETATM   19  O5  UNL     1      10.087  38.339  21.039  1.00  0.00    -0.271 OA
HETATM   20  C21 UNL     1       8.590  36.588  21.047  1.00  0.00     0.180 C
HETATM   21  N4  UNL     1       7.699  35.752  20.348  1.00  0.00    -0.345 N
ATOM     22  H4  UNL     1       6.838  36.219  20.066  1.00  0.00     0.163 HD
HETATM   23  C25 UNL     1       7.759  34.416  19.966  1.00  0.00     0.248 C
HETATM   24  O6  UNL     1       7.278  34.161  18.799  1.00  0.00    -0.271 OA
ENDROOT
BRANCH   1  25
HETATM   25  C4  UNL     1       7.689  33.193  22.116  1.00  0.00     0.042 C
BRANCH  25  26
HETATM   26  C3  UNL     1       6.221  33.045  22.156  1.00  0.00     0.003 C
BRANCH  26  27
HETATM   27  C2  UNL     1       5.620  33.746  23.348  1.00  0.00    -0.004 C
HETATM   28  C1  UNL     1       5.132  32.711  24.356  1.00  0.00     0.005 C
ENDBRANCH  26  27
ENDBRANCH  25  26
ENDBRANCH   1  25
BRANCH   5  29
HETATM   29  C8  UNL     1      11.697  32.128  17.986  1.00  0.00     0.010 C
HETATM   30  C9  UNL     1      11.209  30.729  18.151  1.00  0.00     0.012 C
HETATM   31  C10 UNL     1      11.640  32.545  16.509  1.00  0.00     0.012 C
ENDBRANCH   5  29
BRANCH  20  32
HETATM   32  C22 UNL     1       7.785  37.567  21.927  1.00  0.00     0.009 C
HETATM   33  C23 UNL     1       6.500  37.991  21.205  1.00  0.00     0.012 C
HETATM   34  C24 UNL     1       7.413  37.023  23.250  1.00  0.00     0.012 C
ENDBRANCH  20  32
BRANCH  10  35
HETATM   35  C13 UNL     1      13.198  36.428  15.991  1.00  0.00     0.012 C
BRANCH  35  36
HETATM   36  C14 UNL     1      13.155  37.854  15.744  1.00  0.00     0.002 C
HETATM   37  C15 UNL     1      14.465  38.192  14.974  1.00  0.00     0.013 C
HETATM   38  C16 UNL     1      12.083  38.403  14.858  1.00  0.00     0.013 C
ENDBRANCH  35  36
ENDBRANCH  10  35
BRANCH  13  39
HETATM   39  O4  UNL     1       8.638  35.731  16.154  1.00  0.00    -0.348 OA
ATOM     40  H4  UNL     1       7.872  36.243  15.922  1.00  0.00     0.219 HD
ENDBRANCH  13  39
TORSDOF 8
ENDMDL