MODEL 1
REMARK VINA RESULT: -8.238688301      0.000      0.000
REMARK  10 active torsions:
REMARK  status: ('A' for Active; 'I' for Inactive)
REMARK    1  A    between atoms: C1_2  and  C2_4
REMARK    2  A    between atoms: C8_10  and  O2_11
REMARK    3  A    between atoms: O2_11  and  C9_12
REMARK       I    between atoms: C9_12  and  N2_14
REMARK    4  A    between atoms: N2_14  and  C10_16
REMARK    5  A    between atoms: C10_16  and  C11_17
REMARK    6  A    between atoms: C11_17  and  C12_18
REMARK    7  A    between atoms: C12_18  and  C13_19
REMARK       I    between atoms: C13_19  and  N3_21
REMARK    8  A    between atoms: C16_24  and  N4_25
REMARK    9  A    between atoms: C19_28  and  O5_29
REMARK   10  A    between atoms: C20_31  and  O6_32
ROOT
HETATM    1  C11 UNL     1       6.987  39.159  17.810  1.00  0.00     0.029 C
ENDROOT
BRANCH   1   2
HETATM    2  C10 UNL     1       7.394  38.163  16.752  1.00  0.00     0.125 C
BRANCH   2   3
HETATM    3  N2  UNL     1       8.457  37.348  17.272  1.00  0.00    -0.337 N
HETATM    4  C9  UNL     1       9.803  37.642  16.995  1.00  0.00     0.360 C
HETATM    5  O3  UNL     1      10.196  38.610  16.302  1.00  0.00    -0.239 OA
ATOM      6  H2  UNL     1       8.230  36.541  17.853  1.00  0.00     0.164 HD
BRANCH   4   7
HETATM    7  O2  UNL     1      10.851  36.846  17.494  1.00  0.00    -0.298 OA
BRANCH   7   8
HETATM    8  C8  UNL     1      10.668  35.494  17.856  1.00  0.00     0.142 C
HETATM    9  C6  UNL     1      11.711  35.014  18.829  1.00  0.00     0.017 C
HETATM   10  C5  UNL     1      13.075  35.249  18.231  1.00  0.00     0.012 C
HETATM   11  C7  UNL     1      11.502  33.540  19.059  1.00  0.00     0.026 C
HETATM   12  C4  UNL     1      13.235  34.408  16.990  1.00  0.00    -0.013 C
HETATM   13  C3  UNL     1      13.024  32.951  17.241  1.00  0.00     0.023 C
HETATM   14  C25 UNL     1      12.210  34.867  15.983  1.00  0.00     0.012 C
HETATM   15  C2  UNL     1      11.640  32.730  17.814  1.00  0.00     0.040 C
HETATM   16  C26 UNL     1      10.608  33.215  16.818  1.00  0.00     0.026 C
HETATM   17  C24 UNL     1      10.825  34.682  16.578  1.00  0.00     0.017 C
BRANCH  15  18
HETATM   18  C1  UNL     1      11.372  31.317  18.089  1.00  0.00     0.239 C
HETATM   19  N1  UNL     1      10.954  30.821  19.356  1.00  0.00    -0.061 NA
HETATM   20  O1  UNL     1      11.513  30.477  17.162  1.00  0.00    -0.276 OA
ENDBRANCH  15  18
ENDBRANCH   7   8
ENDBRANCH   4   7
ENDBRANCH   2   3
ENDBRANCH   1   2
BRANCH   1  21
HETATM   21  C12 UNL     1       6.778  40.494  17.160  1.00  0.00     0.104 C
BRANCH  21  22
HETATM   22  C13 UNL     1       8.015  41.283  17.035  1.00  0.00     0.219 C
HETATM   23  O4  UNL     1       8.950  41.235  17.869  1.00  0.00    -0.273 OA
HETATM   24  N3  UNL     1       8.180  42.154  15.909  1.00  0.00    -0.352 N
HETATM   25  C14 UNL     1       9.392  42.929  15.779  1.00  0.00     0.127 C
HETATM   26  C23 UNL     1       7.162  42.274  14.899  1.00  0.00     0.127 C
HETATM   27  C15 UNL     1       9.683  43.118  14.289  1.00  0.00     0.045 C
HETATM   28  C16 UNL     1       9.241  41.843  13.611  1.00  0.00     0.082 C
HETATM   29  C22 UNL     1       7.729  41.847  13.540  1.00  0.00     0.045 C
BRANCH  28  30
HETATM   30  N4  UNL     1       9.792  41.597  12.338  1.00  0.00    -0.405 N
HETATM   31  C17 UNL     1      10.936  42.347  11.973  1.00  0.00     0.120 C
HETATM   32  C18 UNL     1      10.721  43.258  10.788  1.00  0.00     0.053 C
HETATM   33  C19 UNL     1      10.109  42.581   9.608  1.00  0.00     0.150 C
HETATM   34  C20 UNL     1       9.546  41.233   9.932  1.00  0.00     0.164 C
HETATM   35  C21 UNL     1       8.891  41.261  11.297  1.00  0.00     0.151 C
BRANCH  33  36
HETATM   36  O5  UNL     1      11.046  42.430   8.562  1.00  0.00    -0.393 OA
ATOM     37  H5  UNL     1      10.890  43.058   7.866  1.00  0.00     0.210 HD
ENDBRANCH  33  36
BRANCH  34  38
HETATM   38  O6  UNL     1      10.518  40.234   9.895  1.00  0.00    -0.391 OA
ATOM     39  H6  UNL     1      11.382  40.583   9.706  1.00  0.00     0.210 HD
ENDBRANCH  34  38
ENDBRANCH  28  30
ENDBRANCH  21  22
ENDBRANCH   1  21
TORSDOF 10
ENDMDL