MODEL 5
REMARK VINA RESULT: -7.617701740      3.279      9.008
REMARK  8 active torsions:
REMARK  status: ('A' for Active; 'I' for Inactive)
REMARK    1  A    between atoms: C2_2  and  N1_3
REMARK       I    between atoms: N1_3  and  C3_5
REMARK       I    between atoms: C3_5  and  N2_7
REMARK    2  A    between atoms: N3_10  and  S1_11
REMARK    3  A    between atoms: S1_11  and  C6_14
REMARK    4  A    between atoms: C6_14  and  C7_15
REMARK    5  A    between atoms: C12_20  and  O4_21
REMARK    6  A    between atoms: C14_27  and  C15_28
REMARK    7  A    between atoms: C18_31  and  O5_32
REMARK    8  A    between atoms: C18_31  and  C19_34
ROOT
HETATM    1  C7  UNL     1       9.541  34.853  19.409  1.00  0.00     0.015 C
HETATM    2  C8  UNL     1      10.289  36.184  19.208  1.00  0.00     0.020 C
HETATM    3  C9  UNL     1       9.310  36.590  18.242  1.00  0.00    -0.004 C
HETATM    4  C10 UNL     1       9.283  36.527  16.833  1.00  0.00     0.014 C
HETATM    5  C11 UNL     1      10.186  35.830  15.938  1.00  0.00     0.048 C
HETATM    6  C12 UNL     1      10.123  34.313  15.987  1.00  0.00     0.158 C
HETATM    7  C13 UNL     1      10.838  34.104  17.252  1.00  0.00     0.250 C
HETATM    8  N4  UNL     1      11.940  35.043  17.132  1.00  0.00    -0.060 N
ATOM      9  H41 UNL     1      12.836  34.575  16.994  1.00  0.00     0.278 HD
ATOM     10  H42 UNL     1      12.155  35.504  18.016  1.00  0.00     0.278 HD
HETATM   11  C14 UNL     1      11.649  35.968  16.096  1.00  0.00     0.196 C
HETATM   12  C18 UNL     1      10.202  33.872  18.514  1.00  0.00     0.097 C
HETATM   13  C21 UNL     1       8.379  35.586  19.009  1.00  0.00    -0.033 C
HETATM   14  C22 UNL     1       7.271  35.044  18.175  1.00  0.00     0.016 C
HETATM   15  C23 UNL     1       7.611  36.507  19.956  1.00  0.00     0.016 C
ENDROOT
BRANCH   1  16
HETATM   16  C6  UNL     1       9.676  34.317  20.795  1.00  0.00     0.171 C
BRANCH  16  17
HETATM   17  S1  UNL     1       8.647  33.190  21.569  1.00  0.00     0.212 S
HETATM   18  O2  UNL     1       9.184  31.857  21.956  1.00  0.00    -0.211 OA
HETATM   19  O3  UNL     1       7.264  33.218  21.067  1.00  0.00    -0.211 OA
BRANCH  17  20
HETATM   20  N3  UNL     1       8.445  33.876  23.240  1.00  0.00    -0.207 NA
HETATM   21  C5  UNL     1       7.685  35.077  23.134  1.00  0.00     0.127 C
HETATM   22  C4  UNL     1       6.929  35.278  24.433  1.00  0.00     0.143 C
HETATM   23  N2  UNL     1       5.979  34.200  24.613  1.00  0.00    -0.332 N
HETATM   24  C3  UNL     1       4.744  34.408  25.310  1.00  0.00     0.318 C
HETATM   25  C25 UNL     1       6.319  32.906  24.060  1.00  0.00     0.143 C
HETATM   26  N1  UNL     1       3.826  33.348  25.483  1.00  0.00    -0.343 N
HETATM   27  O1  UNL     1       4.507  35.563  25.758  1.00  0.00    -0.247 OA
ATOM     28  H1  UNL     1       4.050  32.427  25.108  1.00  0.00     0.164 HD
HETATM   29  C24 UNL     1       7.821  32.807  23.977  1.00  0.00     0.127 C
BRANCH  26  30
HETATM   30  C2  UNL     1       2.574  33.544  26.183  1.00  0.00     0.120 C
HETATM   31  C1  UNL     1       1.484  32.645  25.683  1.00  0.00     0.026 C
ENDBRANCH  26  30
ENDBRANCH  17  20
ENDBRANCH  16  17
ENDBRANCH   1  16
BRANCH  12  32
HETATM   32  O5  UNL     1      11.362  33.500  19.301  1.00  0.00    -0.387 OA
ATOM     33  H5  UNL     1      11.881  33.031  18.660  1.00  0.00     0.210 HD
ENDBRANCH  12  32
BRANCH  12  34
HETATM   34  C19 UNL     1       9.447  32.570  18.468  1.00  0.00     0.036 C
HETATM   35  C20 UNL     1      10.361  31.331  18.613  1.00  0.00     0.008 C
ENDBRANCH  12  34
BRANCH   6  36
HETATM   36  O4  UNL     1      10.913  33.898  14.884  1.00  0.00    -0.393 OA
ATOM     37  H4  UNL     1      11.510  33.258  15.254  1.00  0.00     0.210 HD
ENDBRANCH   6  36
BRANCH  11  38
HETATM   38  C15 UNL     1      12.214  37.317  16.192  1.00  0.00     0.008 C
HETATM   39  C16 UNL     1      11.624  38.230  15.127  1.00  0.00     0.011 C
HETATM   40  C17 UNL     1      13.717  37.371  16.063  1.00  0.00     0.011 C
ENDBRANCH  11  38
TORSDOF 8
ENDMDL