MODEL 4
REMARK VINA RESULT: -7.469351166      1.554      2.054
REMARK  9 active torsions:
REMARK  status: ('A' for Active; 'I' for Inactive)
REMARK    1  A    between atoms: C2_2  and  C4_4
REMARK    2  A    between atoms: C12_16  and  C13_17
REMARK    3  A    between atoms: C13_17  and  C14_18
REMARK    4  A    between atoms: C14_18  and  C15_19
REMARK    5  A    between atoms: C15_19  and  C16_20
REMARK    6  A    between atoms: C16_20  and  C17_21
REMARK    7  A    between atoms: C17_21  and  C18_22
REMARK    8  A    between atoms: C18_22  and  S1_24
REMARK    9  A    between atoms: C23_36  and  O6_37
ROOT
HETATM    1  C4  UNL     1       8.033  35.390  22.750  1.00  0.00     0.017 C
HETATM    2  C5  UNL     1       9.065  34.633  23.119  1.00  0.00     0.044 C
HETATM    3  N1  UNL     1       9.921  35.207  24.150  1.00  0.00    -0.105 NA
HETATM    4  C6  UNL     1       9.452  33.298  22.672  1.00  0.00     0.009 C
HETATM    5  C7  UNL     1       8.355  32.347  22.406  1.00  0.00     0.023 C
HETATM    6  C8  UNL     1      10.228  32.676  23.873  1.00  0.00     0.023 C
HETATM    7  C9  UNL     1      10.439  33.327  21.519  1.00  0.00     0.137 C
HETATM    8  N2  UNL     1      10.693  32.047  20.922  1.00  0.00    -0.360 N
ATOM      9  H2  UNL     1      11.457  31.524  21.351  1.00  0.00     0.162 HD
HETATM   10  C10 UNL     1      10.076  31.398  19.860  1.00  0.00     0.219 C
HETATM   11  O1  UNL     1       9.996  30.111  19.980  1.00  0.00    -0.274 OA
HETATM   12  C11 UNL     1       9.500  31.960  18.621  1.00  0.00     0.128 C
HETATM   13  C12 UNL     1      10.203  33.133  18.046  1.00  0.00     0.093 C
HETATM   14  N3  UNL     1       9.356  34.227  17.629  1.00  0.00    -0.354 N
ATOM     15  H3  UNL     1       9.680  34.683  16.776  1.00  0.00     0.162 HD
HETATM   16  C20 UNL     1       8.206  34.783  18.137  1.00  0.00     0.240 C
HETATM   17  O5  UNL     1       7.137  34.695  17.414  1.00  0.00    -0.271 OA
HETATM   18  C21 UNL     1       7.876  35.503  19.383  1.00  0.00     0.171 C
HETATM   19  C22 UNL     1       6.948  36.677  19.018  1.00  0.00     0.042 C
HETATM   20  N4  UNL     1       7.208  34.752  20.380  1.00  0.00    -0.358 N
ATOM     21  H4  UNL     1       6.800  33.871  20.066  1.00  0.00     0.162 HD
HETATM   22  C23 UNL     1       7.027  35.053  21.755  1.00  0.00     0.144 C
ENDROOT
BRANCH  13  23
HETATM   23  C13 UNL     1      11.139  32.695  16.882  1.00  0.00     0.026 C
BRANCH  23  24
HETATM   24  C14 UNL     1      12.542  32.741  17.343  1.00  0.00     0.002 C
BRANCH  24  25
HETATM   25  C15 UNL     1      13.302  33.814  16.580  1.00  0.00     0.001 C
BRANCH  25  26
HETATM   26  C16 UNL     1      13.675  34.912  17.526  1.00  0.00     0.008 C
BRANCH  26  27
HETATM   27  C17 UNL     1      13.243  36.286  17.097  1.00  0.00     0.096 C
BRANCH  27  28
HETATM   28  C18 UNL     1      11.841  36.569  17.381  1.00  0.00     0.242 C
HETATM   29  O2  UNL     1      11.385  36.474  18.490  1.00  0.00    -0.281 OA
BRANCH  28  30
HETATM   30  S1  UNL     1      10.817  37.061  16.022  1.00  0.00     0.205 S
HETATM   31  C19 UNL     1       9.521  38.083  16.692  1.00  0.00     0.170 C
HETATM   32  O3  UNL     1      11.615  37.817  15.002  1.00  0.00    -0.220 OA
HETATM   33  O4  UNL     1      10.229  35.836  15.409  1.00  0.00    -0.220 OA
ENDBRANCH  28  30
ENDBRANCH  27  28
ENDBRANCH  26  27
ENDBRANCH  25  26
ENDBRANCH  24  25
ENDBRANCH  23  24
ENDBRANCH  13  23
BRANCH  22  34
HETATM   34  O6  UNL     1       5.808  35.037  22.237  1.00  0.00    -0.346 OA
ATOM     35  H6  UNL     1       5.514  34.168  22.483  1.00  0.00     0.219 HD
ENDBRANCH  22  34
BRANCH   1  36
HETATM   36  C2  UNL     1       7.874  36.740  23.446  1.00  0.00     0.016 C
HETATM   37  C1  UNL     1       6.813  36.596  24.552  1.00  0.00     0.015 C
HETATM   38  C3  UNL     1       7.442  37.850  22.580  1.00  0.00     0.015 C
ENDBRANCH   1  36
TORSDOF 9
ENDMDL