MODEL 2
REMARK VINA RESULT: -8.151737832      2.418      5.124
REMARK  7 active torsions:
REMARK  status: ('A' for Active; 'I' for Inactive)
REMARK    1  A    between atoms: O1_2  and  C2_3
REMARK    2  A    between atoms: C2_3  and  C3_4
REMARK    3  A    between atoms: C3_4  and  C4_5
REMARK    4  A    between atoms: C4_5  and  C5_6
REMARK    5  A    between atoms: C6_7  and  C7_8
REMARK    6  A    between atoms: C12_18  and  C13_19
REMARK    7  A    between atoms: C17_25  and  C18_26
ROOT
HETATM    1  C7  UNL     1      11.239  32.759  19.036  1.00  0.00     0.135 C
HETATM    2  C8  UNL     1      10.595  31.715  19.901  1.00  0.00     0.231 C
HETATM    3  O2  UNL     1      11.069  30.578  20.087  1.00  0.00    -0.273 OA
HETATM    4  N1  UNL     1       9.371  32.246  20.460  1.00  0.00    -0.332 N
HETATM    5  C9  UNL     1       8.785  31.715  21.670  1.00  0.00     0.155 C
HETATM    6  C10 UNL     1       9.023  33.289  19.557  1.00  0.00     0.226 C
HETATM    7  C11 UNL     1      10.392  33.952  19.413  1.00  0.00     0.245 C
HETATM    8  N2  UNL     1      10.258  34.929  18.399  1.00  0.00    -0.056 N
ATOM      9  H21 UNL     1       9.842  34.571  17.540  1.00  0.00     0.278 HD
ATOM     10  H22 UNL     1      11.147  35.220  17.992  1.00  0.00     0.278 HD
HETATM   11  C12 UNL     1       9.494  36.040  19.013  1.00  0.00     0.241 C
HETATM   12  C23 UNL     1       8.102  35.588  19.346  1.00  0.00     0.155 C
HETATM   13  C24 UNL     1       7.490  36.469  20.416  1.00  0.00     0.155 C
HETATM   14  C25 UNL     1       6.119  36.991  20.027  1.00  0.00     0.042 C
HETATM   15  O4  UNL     1       7.221  35.592  21.537  1.00  0.00    -0.297 OA
HETATM   16  C26 UNL     1       7.069  34.307  20.957  1.00  0.00     0.365 C
HETATM   17  O5  UNL     1       6.229  33.415  21.243  1.00  0.00    -0.238 OA
HETATM   18  N6  UNL     1       8.108  34.288  19.974  1.00  0.00    -0.295 N
ENDROOT
BRANCH  11  19
HETATM   19  C13 UNL     1       9.538  37.214  18.110  1.00  0.00    -0.041 A
HETATM   20  C14 UNL     1       8.839  38.296  17.992  1.00  0.00     0.035 A
HETATM   21  C15 UNL     1       9.302  39.163  16.913  1.00  0.00     0.040 A
HETATM   22  N3  UNL     1       9.126  40.324  16.249  1.00  0.00    -0.353 N
HETATM   23  C21 UNL     1      10.366  38.544  16.335  1.00  0.00    -0.013 A
HETATM   24  C16 UNL     1      10.038  40.457  15.283  1.00  0.00     0.077 A
ATOM     25  H3  UNL     1       8.396  41.007  16.457  1.00  0.00     0.166 HD
HETATM   26  C17 UNL     1      10.503  41.267  14.258  1.00  0.00     0.125 A
HETATM   27  C20 UNL     1      10.829  39.339  15.324  1.00  0.00     0.017 A
HETATM   28  N5  UNL     1      11.559  40.611  13.716  1.00  0.00    -0.359 N
HETATM   29  C19 UNL     1      11.775  39.445  14.343  1.00  0.00     0.103 A
ATOM     30  H5  UNL     1      12.116  40.960  12.936  1.00  0.00     0.165 HD
HETATM   31  C22 UNL     1      10.585  37.265  17.024  1.00  0.00     0.078 A
BRANCH  26  32
HETATM   32  C18 UNL     1       9.983  42.550  13.839  1.00  0.00     0.283 C
HETATM   33  N4  UNL     1       9.465  43.466  14.782  1.00  0.00    -0.056 NA
HETATM   34  O3  UNL     1       9.992  42.850  12.629  1.00  0.00    -0.269 OA
ENDBRANCH  26  32
ENDBRANCH  11  19
BRANCH   1  35
HETATM   35  C6  UNL     1      11.114  32.337  17.645  1.00  0.00    -0.015 C
HETATM   36  C5  UNL     1      11.984  32.505  16.698  1.00  0.00    -0.030 C
BRANCH  36  37
HETATM   37  C4  UNL     1      13.285  33.166  16.851  1.00  0.00     0.029 C
BRANCH  37  38
HETATM   38  C3  UNL     1      13.244  34.661  16.599  1.00  0.00     0.030 C
BRANCH  38  39
HETATM   39  C2  UNL     1      13.603  35.414  17.854  1.00  0.00     0.167 C
BRANCH  39  40
HETATM   40  O1  UNL     1      14.434  36.485  17.659  1.00  0.00    -0.396 OA
HETATM   41  C1  UNL     1      14.208  37.226  16.529  1.00  0.00     0.201 C
ENDBRANCH  39  40
ENDBRANCH  38  39
ENDBRANCH  37  38
ENDBRANCH  36  37
ENDBRANCH   1  35
TORSDOF 7
ENDMDL