MODEL 4
REMARK VINA RESULT: -7.054474294      2.367      6.149
REMARK  7 active torsions:
REMARK  status: ('A' for Active; 'I' for Inactive)
REMARK    1  A    between atoms: C2_2  and  C3_3
REMARK    2  A    between atoms: C3_3  and  C4_4
REMARK    3  A    between atoms: C6_9  and  C7_10
REMARK    4  A    between atoms: C11_17  and  C12_18
REMARK    5  A    between atoms: C12_18  and  C13_19
REMARK    6  A    between atoms: C21_31  and  C22_32
REMARK    7  A    between atoms: C22_32  and  C23_33
ROOT
HETATM    1  C4  UNL     1       6.905  38.274  20.018  1.00  0.00     0.176 C
HETATM    2  N1  UNL     1       7.196  38.395  18.603  1.00  0.00    -0.346 N
ATOM      3  H1  UNL     1       7.245  39.357  18.267  1.00  0.00     0.163 HD
HETATM    4  C5  UNL     1       7.418  37.444  17.625  1.00  0.00     0.241 C
HETATM    5  O1  UNL     1       6.603  37.460  16.623  1.00  0.00    -0.271 OA
HETATM    6  C6  UNL     1       8.453  36.391  17.525  1.00  0.00     0.180 C
HETATM    7  N2  UNL     1       9.620  36.608  18.329  1.00  0.00    -0.346 N
ATOM      8  H2  UNL     1      10.034  37.541  18.331  1.00  0.00     0.163 HD
HETATM    9  C10 UNL     1      10.246  35.585  19.138  1.00  0.00     0.241 C
HETATM   10  O2  UNL     1      10.902  36.097  20.114  1.00  0.00    -0.271 OA
HETATM   11  C11 UNL     1      10.140  34.156  18.875  1.00  0.00     0.177 C
HETATM   12  N3  UNL     1       9.141  33.524  19.737  1.00  0.00    -0.347 N
ATOM     13  H3  UNL     1       8.193  33.491  19.364  1.00  0.00     0.163 HD
HETATM   14  C16 UNL     1       9.313  32.963  20.996  1.00  0.00     0.224 C
HETATM   15  O3  UNL     1       8.793  31.793  21.146  1.00  0.00    -0.273 OA
HETATM   16  C17 UNL     1       9.998  33.512  22.173  1.00  0.00     0.101 C
HETATM   17  C18 UNL     1       9.999  32.616  23.368  1.00  0.00     0.089 C
HETATM   18  S1  UNL     1       9.983  34.030  24.492  1.00  0.00    -0.162 SA
HETATM   19  C19 UNL     1       9.258  34.536  22.931  1.00  0.00     0.063 C
HETATM   20  C20 UNL     1       7.761  34.511  22.835  1.00  0.00     0.041 C
HETATM   21  C21 UNL     1       7.204  35.890  22.494  1.00  0.00     0.092 C
HETATM   22  N4  UNL     1       6.707  35.930  21.137  1.00  0.00    -0.354 N
ATOM     23  H4  UNL     1       6.666  35.023  20.670  1.00  0.00     0.162 HD
HETATM   24  C25 UNL     1       6.279  36.990  20.372  1.00  0.00     0.240 C
HETATM   25  O5  UNL     1       5.098  36.856  19.849  1.00  0.00    -0.271 OA
ENDROOT
BRANCH  11  26
HETATM   26  C12 UNL     1      11.355  33.338  18.775  1.00  0.00     0.038 C
BRANCH  26  27
HETATM   27  C13 UNL     1      11.509  32.359  17.682  1.00  0.00    -0.020 C
HETATM   28  C14 UNL     1      11.627  30.924  18.268  1.00  0.00     0.009 C
HETATM   29  C15 UNL     1      12.851  32.551  16.995  1.00  0.00     0.009 C
ENDBRANCH  26  27
ENDBRANCH  11  26
BRANCH   6  30
HETATM   30  C7  UNL     1       8.994  36.319  16.093  1.00  0.00     0.009 C
HETATM   31  C8  UNL     1      10.402  36.780  15.954  1.00  0.00     0.012 C
HETATM   32  C9  UNL     1       8.967  34.838  15.673  1.00  0.00     0.012 C
ENDBRANCH   6  30
BRANCH   1  33
HETATM   33  C3  UNL     1       8.028  38.723  20.900  1.00  0.00     0.034 C
BRANCH  33  34
HETATM   34  C2  UNL     1       7.764  40.208  21.212  1.00  0.00    -0.002 C
HETATM   35  C1  UNL     1       6.304  40.412  21.572  1.00  0.00     0.005 C
ENDBRANCH  33  34
ENDBRANCH   1  33
BRANCH  21  36
HETATM   36  C22 UNL     1       6.235  36.405  23.493  1.00  0.00     0.103 C
BRANCH  36  37
HETATM   37  C23 UNL     1       6.522  37.656  24.166  1.00  0.00     0.125 C
HETATM   38  C24 UNL     1       7.865  38.102  24.592  1.00  0.00     0.091 C
HETATM   39  O4  UNL     1       5.553  38.399  24.396  1.00  0.00    -0.298 OA
ENDBRANCH  36  37
ENDBRANCH  21  36
TORSDOF 7
ENDMDL