MODEL 2
REMARK VINA RESULT: -8.194523689      1.335      1.771
REMARK  9 active torsions:
REMARK  status: ('A' for Active; 'I' for Inactive)
REMARK    1  A    between atoms: C2_2  and  C3_3
REMARK    2  A    between atoms: C3_3  and  C4_4
REMARK    3  A    between atoms: C4_4  and  N1_5
REMARK       I    between atoms: N1_5  and  C5_7
REMARK    4  A    between atoms: C5_7  and  C6_9
REMARK    5  A    between atoms: C12_15  and  O2_16
REMARK    6  A    between atoms: C13_18  and  O3_19
REMARK    7  A    between atoms: C21_29  and  N2_30
REMARK    8  A    between atoms: N2_30  and  S1_32
REMARK    9  A    between atoms: S1_32  and  C22_35
ROOT
HETATM    1  C6  UNL     1      12.400  34.812  18.060  1.00  0.00     0.117 C
HETATM    2  C7  UNL     1      11.702  33.490  18.082  1.00  0.00     0.009 C
HETATM    3  C8  UNL     1      10.578  33.144  17.289  1.00  0.00     0.007 C
HETATM    4  C9  UNL     1       9.576  34.040  16.744  1.00  0.00     0.013 C
HETATM    5  C10 UNL     1       8.981  35.036  17.802  1.00  0.00    -0.007 C
HETATM    6  C11 UNL     1       8.212  35.937  16.776  1.00  0.00     0.018 C
HETATM    7  C12 UNL     1       8.055  34.314  18.612  1.00  0.00     0.156 C
HETATM    8  C13 UNL     1       7.787  34.349  20.014  1.00  0.00     0.151 C
HETATM    9  C14 UNL     1       8.610  34.782  21.140  1.00  0.00     0.019 C
HETATM   10  C15 UNL     1       9.919  34.126  21.413  1.00  0.00     0.008 C
HETATM   11  C16 UNL     1      10.493  33.275  20.337  1.00  0.00     0.009 C
HETATM   12  C17 UNL     1      11.419  33.993  19.511  1.00  0.00     0.026 C
HETATM   13  C18 UNL     1      11.254  35.278  18.882  1.00  0.00     0.085 A
HETATM   14  O4  UNL     1      11.303  36.379  19.648  1.00  0.00    -0.372 OA
HETATM   15  C19 UNL     1      10.268  37.006  18.902  1.00  0.00     0.132 A
HETATM   16  C20 UNL     1       9.229  37.721  19.560  1.00  0.00     0.058 C
HETATM   17  C21 UNL     1       8.172  37.183  20.410  1.00  0.00     0.095 C
HETATM   18  C24 UNL     1       8.740  36.256  21.417  1.00  0.00     0.033 C
HETATM   19  C25 UNL     1      10.167  35.786  18.126  1.00  0.00     0.061 A
ENDROOT
BRANCH   1  20
HETATM   20  C5  UNL     1      12.863  35.403  16.858  1.00  0.00     0.225 C
HETATM   21  N1  UNL     1      13.288  36.767  16.830  1.00  0.00    -0.361 N
ATOM     22  H1  UNL     1      13.259  37.314  17.691  1.00  0.00     0.162 HD
HETATM   23  O1  UNL     1      12.921  34.785  15.775  1.00  0.00    -0.273 OA
BRANCH  21  24
HETATM   24  C4  UNL     1      13.764  37.398  15.603  1.00  0.00     0.122 C
BRANCH  24  25
HETATM   25  C3  UNL     1      12.857  38.508  15.195  1.00  0.00     0.019 C
BRANCH  25  26
HETATM   26  C2  UNL     1      11.425  38.033  15.238  1.00  0.00    -0.003 C
HETATM   27  C1  UNL     1      10.552  39.012  15.982  1.00  0.00     0.005 C
ENDBRANCH  25  26
ENDBRANCH  24  25
ENDBRANCH  21  24
ENDBRANCH   1  20
BRANCH   7  28
HETATM   28  O2  UNL     1       6.754  34.472  17.975  1.00  0.00    -0.392 OA
ATOM     29  H2  UNL     1       6.413  35.305  18.278  1.00  0.00     0.210 HD
ENDBRANCH   7  28
BRANCH  17  30
HETATM   30  N2  UNL     1       7.552  38.303  21.101  1.00  0.00    -0.315 N
ATOM     31  H2  UNL     1       8.081  39.128  21.383  1.00  0.00     0.172 HD
BRANCH  30  32
HETATM   32  S1  UNL     1       5.900  38.147  21.405  1.00  0.00     0.226 S
HETATM   33  O5  UNL     1       5.229  37.146  20.489  1.00  0.00    -0.206 OA
HETATM   34  O6  UNL     1       5.147  39.443  21.277  1.00  0.00    -0.206 OA
BRANCH  32  35
HETATM   35  C22 UNL     1       5.652  37.543  23.057  1.00  0.00     0.158 C
HETATM   36  C23 UNL     1       5.415  36.025  23.020  1.00  0.00     0.023 C
ENDBRANCH  32  35
ENDBRANCH  30  32
ENDBRANCH  17  30
BRANCH   8  37
HETATM   37  O3  UNL     1       7.305  33.040  20.398  1.00  0.00    -0.393 OA
ATOM     38  H3  UNL     1       6.551  32.842  19.855  1.00  0.00     0.210 HD
ENDBRANCH   8  37
TORSDOF 9
ENDMDL