MODEL 5
REMARK VINA RESULT: -6.567999015      1.595      1.677
REMARK  5 active torsions:
REMARK  status: ('A' for Active; 'I' for Inactive)
REMARK    1  A    between atoms: C1_2  and  N1_3
REMARK    2  A    between atoms: N1_3  and  C2_5
REMARK    3  A    between atoms: C2_5  and  C3_6
REMARK    4  A    between atoms: C3_6  and  N2_7
REMARK    5  A    between atoms: N2_7  and  C4_9
ROOT
HETATM    1  C4  UNL     1      16.881   9.332  24.257  1.00  0.00     0.042 A
HETATM    2  C5  UNL     1      16.656  10.389  23.423  1.00  0.00     0.047 A
HETATM    3  C6  UNL     1      15.391  10.709  22.952  1.00  0.00     0.090 A
HETATM    4  N3  UNL     1      14.370   9.939  23.345  1.00  0.00    -0.365 N
ATOM      5  H3  UNL     1      13.432  10.159  23.009  1.00  0.00     0.165 HD
HETATM    6  C7  UNL     1      14.532   8.896  24.156  1.00  0.00     0.044 A
HETATM    7  C8  UNL     1      13.467   8.106  24.556  1.00  0.00     0.030 A
HETATM    8  C9  UNL     1      13.650   7.033  25.394  1.00  0.00     0.002 A
HETATM    9  C10 UNL     1      14.897   6.712  25.862  1.00  0.00     0.001 A
HETATM   10  C11 UNL     1      15.967   7.498  25.468  1.00  0.00     0.016 A
HETATM   11  C12 UNL     1      15.790   8.569  24.631  1.00  0.00     0.017 A
ENDROOT
BRANCH   1  12
HETATM   12  N2  UNL     1      18.021   9.009  24.707  1.00  0.00    -0.388 N
ATOM     13  H2  UNL     1      18.127   8.076  25.106  1.00  0.00     0.159 HD
BRANCH  12  14
HETATM   14  C3  UNL     1      19.183   9.874  24.695  1.00  0.00     0.139 C
BRANCH  14  15
HETATM   15  C2  UNL     1      19.400  10.367  26.086  1.00  0.00     0.141 C
BRANCH  15  16
HETATM   16  N1  UNL     1      19.001  11.741  26.292  1.00  0.00    -0.367 N
ATOM     17  H1  UNL     1      18.766  12.032  27.241  1.00  0.00     0.161 HD
BRANCH  16  18
HETATM   18  C1  UNL     1      18.915  12.701  25.269  1.00  0.00     0.348 C
HETATM   19  O1  UNL     1      17.859  13.343  25.117  1.00  0.00    -0.284 OA
ENDBRANCH  16  18
ENDBRANCH  15  16
ENDBRANCH  14  15
ENDBRANCH  12  14
ENDBRANCH   1  12
TORSDOF 5
ENDMDL