MODEL 1
REMARK VINA RESULT: -7.054348653      0.000      0.000
REMARK  6 active torsions:
REMARK  status: ('A' for Active; 'I' for Inactive)
REMARK    1  A    between atoms: C1_4  and  C2_6
REMARK    2  A    between atoms: N3_10  and  C6_11
REMARK    3  A    between atoms: C6_11  and  C7_12
REMARK    4  A    between atoms: C7_12  and  C8_13
REMARK    5  A    between atoms: C8_13  and  S1_14
REMARK    6  A    between atoms: S1_14  and  N4_15
ROOT
HETATM    1  C2  UNL     1      14.596   7.765  25.178  1.00  0.00     0.020 A
HETATM    2  C3  UNL     1      13.793   8.491  24.336  1.00  0.00     0.017 A
HETATM    3  C4  UNL     1      14.369   9.412  23.498  1.00  0.00     0.018 A
HETATM    4  C5  UNL     1      15.725   9.574  23.532  1.00  0.00     0.090 A
HETATM    5  N3  UNL     1      16.542   8.876  24.348  1.00  0.00    -0.365 N
HETATM    6  C9  UNL     1      15.953   7.971  25.168  1.00  0.00     0.105 A
ENDROOT
BRANCH   5   7
HETATM    7  C6  UNL     1      17.974   9.054  24.377  1.00  0.00     0.128 C
BRANCH   7   8
HETATM    8  C7  UNL     1      18.267  10.498  24.663  1.00  0.00     0.034 C
BRANCH   8   9
HETATM    9  C8  UNL     1      19.220  11.103  23.667  1.00  0.00     0.133 C
BRANCH   9  10
HETATM   10  S1  UNL     1      18.462  12.534  22.890  1.00  0.00     0.107 S
HETATM   11  O1  UNL     1      17.747  12.089  21.440  1.00  0.00    -0.236 OA
BRANCH  10  12
HETATM   12  N4  UNL     1      17.172  13.052  23.944  1.00  0.00    -0.350 NA
ATOM     13  H42 UNL     1      17.407  12.719  24.879  1.00  0.00     0.166 HD
ATOM     14  H41 UNL     1      17.170  14.072  23.926  1.00  0.00     0.166 HD
ENDBRANCH  10  12
ENDBRANCH   9  10
ENDBRANCH   8   9
ENDBRANCH   7   8
ENDBRANCH   5   7
BRANCH   1  15
HETATM   15  C1  UNL     1      13.950   6.782  26.067  1.00  0.00     0.121 C
HETATM   16  N1  UNL     1      12.678   6.810  26.270  1.00  0.00    -0.387 N
ATOM     17  H12 UNL     1      12.231   6.130  26.885  1.00  0.00     0.157 HD
ATOM     18  H11 UNL     1      12.132   7.532  25.798  1.00  0.00     0.157 HD
HETATM   19  N2  UNL     1      14.708   5.779  26.723  1.00  0.00    -0.082 NA
ENDBRANCH   1  15
TORSDOF 6
ENDMDL