MODEL 3
REMARK VINA RESULT: -6.403286985      0.788      1.550
REMARK  5 active torsions:
REMARK  status: ('A' for Active; 'I' for Inactive)
REMARK    1  A    between atoms: C1_4  and  N2_5
REMARK    2  A    between atoms: C1_4  and  C9_15
REMARK    3  A    between atoms: N2_5  and  C2_7
REMARK    4  A    between atoms: C2_7  and  C3_8
REMARK    5  A    between atoms: C3_8  and  N3_9
ROOT
HETATM    1  N1  UNL     1      17.499  12.330  21.997  1.00  0.00    -0.384 N
ATOM      2  H11 UNL     1      18.485  12.474  21.778  1.00  0.00     0.157 HD
ATOM      3  H12 UNL     1      16.743  12.797  21.496  1.00  0.00     0.157 HD
HETATM    4  C1  UNL     1      17.212  11.507  22.971  1.00  0.00     0.123 C
ENDROOT
BRANCH   4   5
HETATM    5  N2  UNL     1      15.845  11.307  23.276  1.00  0.00    -0.373 N
ATOM      6  H2  UNL     1      15.470  11.796  24.089  1.00  0.00     0.161 HD
BRANCH   5   7
HETATM    7  C2  UNL     1      14.938  10.466  22.530  1.00  0.00     0.141 C
BRANCH   7   8
HETATM    8  C3  UNL     1      14.179   9.552  23.486  1.00  0.00     0.147 C
BRANCH   8   9
HETATM    9  N3  UNL     1      14.558   8.181  23.335  1.00  0.00    -0.365 N
HETATM   10  C4  UNL     1      14.870   7.701  22.113  1.00  0.00     0.090 A
HETATM   11  C5  UNL     1      15.228   6.368  22.035  1.00  0.00     0.017 A
HETATM   12  C6  UNL     1      15.278   5.531  23.125  1.00  0.00     0.003 A
HETATM   13  C7  UNL     1      14.956   6.048  24.353  1.00  0.00     0.017 A
HETATM   14  C8  UNL     1      14.601   7.367  24.430  1.00  0.00     0.090 A
ENDBRANCH   8   9
ENDBRANCH   7   8
ENDBRANCH   5   7
ENDBRANCH   4   5
BRANCH   4  15
HETATM   15  C9  UNL     1      18.305  10.833  23.696  1.00  0.00     0.092 A
HETATM   16  C10 UNL     1      18.175   9.858  24.666  1.00  0.00     0.122 A
HETATM   17  N4  UNL     1      19.392   9.478  25.104  1.00  0.00    -0.360 N
HETATM   18  C11 UNL     1      20.285  10.205  24.415  1.00  0.00     0.180 A
ATOM     19  H4  UNL     1      19.595   8.777  25.817  1.00  0.00     0.166 HD
HETATM   20  N5  UNL     1      19.627  11.019  23.570  1.00  0.00    -0.348 N
ATOM     21  H5  UNL     1      20.067  11.679  22.928  1.00  0.00     0.167 HD
ENDBRANCH   4  15
TORSDOF 5
ENDMDL