MODEL 4
REMARK VINA RESULT: -5.658017938      2.483      5.612
REMARK  5 active torsions:
REMARK  status: ('A' for Active; 'I' for Inactive)
REMARK    1  A    between atoms: C2_2  and  C3_3
REMARK    2  A    between atoms: C3_3  and  N1_4
REMARK    3  A    between atoms: N1_4  and  N2_6
REMARK    4  A    between atoms: C5_8  and  C6_9
REMARK    5  A    between atoms: C6_9  and  N3_10
ROOT
HETATM    1  N2  UNL     1      15.272   9.124  23.173  1.00  0.00    -0.249 N
HETATM    2  C4  UNL     1      14.768   8.073  23.891  1.00  0.00     0.127 A
HETATM    3  C5  UNL     1      15.376   7.543  25.000  1.00  0.00    -0.013 A
HETATM    4  C7  UNL     1      16.552   8.089  25.417  1.00  0.00     0.044 A
HETATM    5  C8  UNL     1      17.106   9.144  24.738  1.00  0.00     0.082 A
HETATM    6  C9  UNL     1      16.432   9.635  23.616  1.00  0.00     0.154 A
HETATM    7  N4  UNL     1      17.205  10.634  23.186  1.00  0.00    -0.335 N
ATOM      8  H4  UNL     1      17.005  11.216  22.372  1.00  0.00     0.168 HD
HETATM    9  C10 UNL     1      18.307  10.768  23.990  1.00  0.00     0.184 A
HETATM   10  N5  UNL     1      18.240   9.846  24.945  1.00  0.00    -0.344 N
HETATM   11  C11 UNL     1      19.180   9.622  26.005  1.00  0.00     0.157 C
ENDROOT
BRANCH   1  12
HETATM   12  N1  UNL     1      14.579   9.572  22.076  1.00  0.00    -0.304 N
ATOM     13  H1  UNL     1      13.889  10.291  22.293  1.00  0.00     0.186 HD
BRANCH  12  14
HETATM   14  C3  UNL     1      14.635   9.233  20.712  1.00  0.00     0.107 C
BRANCH  14  15
HETATM   15  C2  UNL     1      14.255   7.863  20.333  1.00  0.00     0.008 C
HETATM   16  C1  UNL     1      15.020   6.821  20.366  1.00  0.00     0.013 C
ENDBRANCH  14  15
ENDBRANCH  12  14
ENDBRANCH   1  12
BRANCH   3  17
HETATM   17  C6  UNL     1      14.806   6.405  25.753  1.00  0.00     0.269 C
BRANCH  17  18
HETATM   18  N3  UNL     1      13.688   5.838  25.065  1.00  0.00    -0.075 N
ATOM     19  H33 UNL     1      13.844   5.808  24.057  1.00  0.00     0.274 HD
ATOM     20  H32 UNL     1      13.608   4.837  25.242  1.00  0.00     0.274 HD
ATOM     21  H31 UNL     1      12.825   6.330  25.297  1.00  0.00     0.274 HD
ENDBRANCH  17  18
ENDBRANCH   3  17
TORSDOF 5
ENDMDL