MODEL 1
REMARK VINA RESULT: -7.113522236      0.000      0.000
REMARK  5 active torsions:
REMARK  status: ('A' for Active; 'I' for Inactive)
REMARK    1  A    between atoms: C6_6  and  N1_7
REMARK    2  A    between atoms: N1_7  and  C7_9
REMARK    3  A    between atoms: C7_9  and  C8_10
REMARK    4  A    between atoms: C8_10  and  C9_11
REMARK    5  A    between atoms: C9_11  and  N2_12
ROOT
HETATM    1  C1  UNL     1      21.101  12.947  25.455  1.00  0.00     0.018 C
HETATM    2  C2  UNL     1      20.276  12.093  25.238  1.00  0.00    -0.076 C
HETATM    3  C3  UNL     1      19.281  11.092  24.981  1.00  0.00     0.032 A
HETATM    4  C4  UNL     1      18.300  11.264  24.028  1.00  0.00     0.026 A
HETATM    5  C5  UNL     1      17.358  10.254  23.821  1.00  0.00     0.050 A
HETATM    6  C6  UNL     1      17.383   9.097  24.543  1.00  0.00     0.100 A
HETATM    7  N5  UNL     1      18.346   8.950  25.466  1.00  0.00    -0.351 N
ATOM      8  H5  UNL     1      18.381   8.090  26.014  1.00  0.00     0.166 HD
HETATM    9  C11 UNL     1      19.270   9.909  25.687  1.00  0.00     0.110 A
ENDROOT
BRANCH   6  10
HETATM   10  N1  UNL     1      16.529   8.145  24.379  1.00  0.00    -0.376 N
ATOM     11  H1  UNL     1      16.770   7.212  24.712  1.00  0.00     0.161 HD
BRANCH  10  12
HETATM   12  C7  UNL     1      15.244   8.343  23.743  1.00  0.00     0.123 C
BRANCH  12  13
HETATM   13  C8  UNL     1      14.883   7.083  22.976  1.00  0.00     0.039 C
BRANCH  13  14
HETATM   14  C9  UNL     1      14.854   5.947  23.994  1.00  0.00     0.123 C
BRANCH  14  15
HETATM   15  N2  UNL     1      13.811   6.114  24.957  1.00  0.00    -0.367 N
HETATM   16  C10 UNL     1      13.970   6.256  26.209  1.00  0.00     0.196 C
HETATM   17  N3  UNL     1      15.258   6.267  26.820  1.00  0.00    -0.067 NA
HETATM   18  N4  UNL     1      12.843   6.413  27.054  1.00  0.00    -0.067 NA
ATOM     19  H2  UNL     1      12.852   6.120  24.607  1.00  0.00     0.161 HD
ENDBRANCH  14  15
ENDBRANCH  13  14
ENDBRANCH  12  13
ENDBRANCH  10  12
ENDBRANCH   6  10
TORSDOF 5
ENDMDL