MODEL 1
REMARK VINA RESULT: -6.301591616      0.000      0.000
REMARK  5 active torsions:
REMARK  status: ('A' for Active; 'I' for Inactive)
REMARK    1  A    between atoms: N1_4  and  C4_5
REMARK    2  A    between atoms: C4_5  and  C5_6
REMARK    3  A    between atoms: C5_6  and  C6_7
REMARK    4  A    between atoms: C6_7  and  N2_8
REMARK    5  A    between atoms: C8_12  and  N4_13
ROOT
HETATM    1  C6  UNL     1      16.577  11.288  23.345  1.00  0.00     0.152 C
ENDROOT
BRANCH   1   2
HETATM    2  C5  UNL     1      15.730  10.433  22.399  1.00  0.00     0.042 C
BRANCH   2   3
HETATM    3  C4  UNL     1      14.518  10.018  23.224  1.00  0.00     0.129 C
BRANCH   3   4
HETATM    4  N1  UNL     1      14.537   8.638  23.584  1.00  0.00    -0.363 N
HETATM    5  C3  UNL     1      14.113   8.208  24.782  1.00  0.00     0.114 A
HETATM    6  C2  UNL     1      14.154   6.840  25.083  1.00  0.00     0.020 A
HETATM    7  C1  UNL     1      13.682   6.381  26.413  1.00  0.00     0.069 C
HETATM    8  N6  UNL     1      14.619   5.965  24.174  1.00  0.00    -0.367 N
HETATM    9  C10 UNL     1      15.047   6.383  22.972  1.00  0.00     0.105 A
ATOM     10  H6  UNL     1      14.647   4.971  24.400  1.00  0.00     0.165 HD
HETATM   11  C9  UNL     1      14.995   7.737  22.700  1.00  0.00     0.107 A
ENDBRANCH   3   4
ENDBRANCH   2   3
ENDBRANCH   1   2
BRANCH   1  12
HETATM   12  N2  UNL     1      17.761  10.627  23.773  1.00  0.00    -0.273 N
HETATM   13  C7  UNL     1      17.850   9.628  24.665  1.00  0.00     0.218 A
HETATM   14  N3  UNL     1      19.156   9.269  24.801  1.00  0.00    -0.185 N
HETATM   15  C8  UNL     1      19.836  10.069  23.977  1.00  0.00     0.691 A
ATOM     16  H3  UNL     1      19.536   8.541  25.407  1.00  0.00     0.185 HD
HETATM   17  N5  UNL     1      18.983  10.891  23.356  1.00  0.00    -0.129 N
ATOM     18  H5  UNL     1      19.237  11.604  22.672  1.00  0.00     0.206 HD
BRANCH  15  19
HETATM   19  N4  UNL     1      21.114  10.092  23.770  1.00  0.00    -0.233 N
ATOM     20  H42 UNL     1      21.527  10.022  22.841  1.00  0.00     0.174 HD
ATOM     21  H41 UNL     1      21.857  10.178  24.464  1.00  0.00     0.174 HD
ENDBRANCH  15  19
ENDBRANCH   1  12
TORSDOF 5
ENDMDL