MODEL 2
REMARK VINA RESULT: -7.403963140      0.014      1.153
REMARK  5 active torsions:
REMARK  status: ('A' for Active; 'I' for Inactive)
REMARK    1  A    between atoms: C4_9  and  C5_10
REMARK    2  A    between atoms: C5_10  and  N3_11
REMARK    3  A    between atoms: N3_11  and  C6_13
REMARK    4  A    between atoms: C6_13  and  C7_14
REMARK    5  A    between atoms: C7_14  and  C8_15
ROOT
HETATM    1  C5  UNL     1      16.147   7.852  25.371  1.00  0.00     0.102 C
ENDROOT
BRANCH   1   2
HETATM    2  C4  UNL     1      14.852   7.891  25.016  1.00  0.00     0.075 A
HETATM    3  C2  UNL     1      13.833   7.070  25.452  1.00  0.00     0.056 A
HETATM    4  C1  UNL     1      13.979   6.081  26.314  1.00  0.00     0.045 C
HETATM    5  N1  UNL     1      12.665   7.450  24.844  1.00  0.00    -0.298 N
HETATM    6  N2  UNL     1      12.956   8.468  24.064  1.00  0.00    -0.265 N
ATOM      7  H1  UNL     1      11.747   7.025  24.973  1.00  0.00     0.187 HD
HETATM    8  C3  UNL     1      14.260   8.773  24.131  1.00  0.00     0.273 A
ATOM      9  H2  UNL     1      12.279   8.961  23.483  1.00  0.00     0.190 HD
HETATM   10  O1  UNL     1      14.865   9.692  23.513  1.00  0.00    -0.266 OA
ENDBRANCH   1   2
BRANCH   1  11
HETATM   11  N3  UNL     1      17.131   8.432  24.542  1.00  0.00    -0.398 N
ATOM     12  H3  UNL     1      17.145   8.219  23.544  1.00  0.00     0.158 HD
BRANCH  11  13
HETATM   13  C6  UNL     1      18.111   9.324  25.098  1.00  0.00     0.123 C
BRANCH  13  14
HETATM   14  C7  UNL     1      18.863   9.948  23.935  1.00  0.00     0.058 C
BRANCH  14  15
HETATM   15  C8  UNL     1      18.731  11.424  23.963  1.00  0.00    -0.057 A
HETATM   16  C9  UNL     1      18.696  12.154  22.795  1.00  0.00     0.007 A
HETATM   17  C10 UNL     1      18.575  13.531  22.822  1.00  0.00     0.001 A
HETATM   18  C11 UNL     1      18.486  14.189  24.036  1.00  0.00     0.000 A
HETATM   19  C12 UNL     1      18.521  13.468  25.195  1.00  0.00     0.001 A
HETATM   20  C13 UNL     1      18.643  12.080  25.172  1.00  0.00     0.007 A
ENDBRANCH  14  15
ENDBRANCH  13  14
ENDBRANCH  11  13
ENDBRANCH   1  11
TORSDOF 5
ENDMDL