MODEL 1
REMARK VINA RESULT: -7.372994104      0.000      0.000
REMARK  7 active torsions:
REMARK  status: ('A' for Active; 'I' for Inactive)
REMARK    1  A    between atoms: N1_1  and  N2_4
REMARK    2  A    between atoms: N2_4  and  C1_5
REMARK    3  A    between atoms: C4_8  and  C5_9
REMARK    4  A    between atoms: C8_16  and  C9_17
REMARK    5  A    between atoms: C9_17  and  C10_18
REMARK    6  A    between atoms: C10_18  and  C11_19
REMARK    7  A    between atoms: C11_19  and  N5_20
ROOT
HETATM    1  C1  UNL     1      16.356  10.025  23.567  1.00  0.00     0.137 C
HETATM    2  C2  UNL     1      15.104   9.580  23.176  1.00  0.00     0.048 C
HETATM    3  C3  UNL     1      14.324   8.656  23.865  1.00  0.00     0.018 C
HETATM    4  C4  UNL     1      14.679   7.745  24.844  1.00  0.00     0.005 C
HETATM    5  C6  UNL     1      15.977   7.437  25.189  1.00  0.00     0.015 C
HETATM    6  C7  UNL     1      17.074   8.301  25.165  1.00  0.00     0.011 C
HETATM    7  C8  UNL     1      17.284   9.459  24.423  1.00  0.00    -0.015 C
ENDROOT
BRANCH   7   8
HETATM    8  C9  UNL     1      18.611  10.114  24.578  1.00  0.00     0.044 C
BRANCH   8   9
HETATM    9  C10 UNL     1      19.154   9.929  25.974  1.00  0.00     0.032 C
BRANCH   9  10
HETATM   10  C11 UNL     1      20.324  10.876  26.133  1.00  0.00     0.230 C
BRANCH  10  11
HETATM   11  N5  UNL     1      20.837  10.772  27.477  1.00  0.00    -0.079 N
ATOM     12  H53 UNL     1      21.161  11.669  27.839  1.00  0.00     0.274 HD
ATOM     13  H52 UNL     1      20.101  10.599  28.161  1.00  0.00     0.274 HD
ATOM     14  H51 UNL     1      21.565  10.058  27.503  1.00  0.00     0.274 HD
ENDBRANCH  10  11
ENDBRANCH   9  10
ENDBRANCH   8   9
ENDBRANCH   7   8
BRANCH   1  15
HETATM   15  N2  UNL     1      16.705  11.124  23.062  1.00  0.00    -0.333 NA
BRANCH  15  16
HETATM   16  N1  UNL     1      17.100  12.009  22.302  1.00  0.00    -0.280 N
ATOM     17  H12 UNL     1      18.060  11.962  22.642  1.00  0.00     0.191 HD
ATOM     18  H11 UNL     1      17.163  12.741  21.594  1.00  0.00     0.191 HD
ENDBRANCH  15  16
ENDBRANCH   1  15
BRANCH   4  19
HETATM   19  C5  UNL     1      13.594   7.087  25.534  1.00  0.00     0.120 C
HETATM   20  N3  UNL     1      12.411   6.985  25.080  1.00  0.00    -0.387 N
ATOM     21  H32 UNL     1      12.231   7.398  24.165  1.00  0.00     0.157 HD
ATOM     22  H31 UNL     1      11.645   6.520  25.567  1.00  0.00     0.157 HD
HETATM   23  N4  UNL     1      13.845   6.510  26.813  1.00  0.00    -0.082 NA
ENDBRANCH   4  19
TORSDOF 7
ENDMDL