MODEL 1
REMARK VINA RESULT: -7.880081119      0.000      0.000
REMARK  4 active torsions:
REMARK  status: ('A' for Active; 'I' for Inactive)
REMARK    1  A    between atoms: N1_1  and  C1_4
REMARK    2  A    between atoms: N3_10  and  C4_11
REMARK    3  A    between atoms: C4_11  and  C5_12
REMARK    4  A    between atoms: C5_12  and  C6_13
ROOT
HETATM    1  C1  UNL     1      13.615   7.023  24.773  1.00  0.00     0.693 A
HETATM    2  N2  UNL     1      14.273   5.883  24.493  1.00  0.00    -0.154 N
ATOM      3  H2  UNL     1      14.139   5.046  25.059  1.00  0.00     0.187 HD
HETATM    4  C2  UNL     1      15.109   5.883  23.451  1.00  0.00     0.276 A
HETATM    5  O1  UNL     1      15.724   4.825  23.186  1.00  0.00    -0.266 OA
HETATM    6  C3  UNL     1      15.257   7.042  22.719  1.00  0.00     0.185 A
HETATM    7  N3  UNL     1      14.601   8.181  22.996  1.00  0.00    -0.283 N
HETATM    8  N4  UNL     1      13.778   8.151  24.036  1.00  0.00    -0.130 N
ATOM      9  H4  UNL     1      13.258   8.992  24.287  1.00  0.00     0.206 HD
ENDROOT
BRANCH   7  10
HETATM   10  C4  UNL     1      14.700   9.406  22.292  1.00  0.00     0.153 C
BRANCH  10  11
HETATM   11  C5  UNL     1      15.101  10.604  23.082  1.00  0.00     0.060 C
BRANCH  11  12
HETATM   12  C6  UNL     1      16.569  10.700  23.295  1.00  0.00    -0.057 A
HETATM   13  C7  UNL     1      17.304  11.657  22.624  1.00  0.00     0.007 A
HETATM   14  C8  UNL     1      18.669  11.767  22.804  1.00  0.00     0.001 A
HETATM   15  C9  UNL     1      19.342  10.919  23.666  1.00  0.00     0.000 A
HETATM   16  C10 UNL     1      18.627   9.966  24.337  1.00  0.00     0.001 A
HETATM   17  C11 UNL     1      17.266   9.868  24.147  1.00  0.00     0.007 A
ENDBRANCH  11  12
ENDBRANCH  10  11
ENDBRANCH   7  10
BRANCH   1  18
HETATM   18  N1  UNL     1      12.799   7.036  25.784  1.00  0.00    -0.233 N
ATOM     19  H12 UNL     1      13.057   6.547  26.641  1.00  0.00     0.174 HD
ATOM     20  H11 UNL     1      11.915   7.538  25.692  1.00  0.00     0.174 HD
ENDBRANCH   1  18
TORSDOF 4
ENDMDL