MODEL 3
REMARK VINA RESULT: -6.786337166      2.222      2.514
REMARK  5 active torsions:
REMARK  status: ('A' for Active; 'I' for Inactive)
REMARK    1  A    between atoms: C8_13  and  C9_14
REMARK    2  A    between atoms: C9_14  and  C10_15
REMARK    3  A    between atoms: C10_15  and  C11_16
REMARK    4  A    between atoms: C11_16  and  C12_17
REMARK    5  A    between atoms: C12_17  and  O1_18
ROOT
HETATM    1  N1  UNL     1      15.780  11.151  22.262  1.00  0.00    -0.385 N
ATOM      2  H11 UNL     1      16.698  11.553  22.073  1.00  0.00     0.157 HD
ATOM      3  H12 UNL     1      15.113  11.659  21.681  1.00  0.00     0.157 HD
HETATM    4  C1  UNL     1      15.454  10.190  23.064  1.00  0.00     0.106 A
HETATM    5  N2  UNL     1      14.194   9.637  23.325  1.00  0.00    -0.342 N
ATOM      6  H2  UNL     1      13.308   9.918  22.906  1.00  0.00     0.167 HD
HETATM    7  C2  UNL     1      14.375   8.691  24.208  1.00  0.00     0.044 A
HETATM    8  C3  UNL     1      13.439   7.864  24.774  1.00  0.00     0.030 A
HETATM    9  C4  UNL     1      13.769   6.904  25.696  1.00  0.00     0.002 A
HETATM   10  C5  UNL     1      15.086   6.768  26.064  1.00  0.00     0.001 A
HETATM   11  C6  UNL     1      16.039   7.614  25.484  1.00  0.00     0.014 A
HETATM   12  C7  UNL     1      15.701   8.577  24.558  1.00  0.00     0.001 A
HETATM   13  C8  UNL     1      16.433   9.446  23.915  1.00  0.00    -0.002 A
ENDROOT
BRANCH  13  14
HETATM   14  C9  UNL     1      17.857   9.773  23.886  1.00  0.00     0.043 C
BRANCH  14  15
HETATM   15  C10 UNL     1      18.443  10.631  24.919  1.00  0.00     0.007 C
BRANCH  15  16
HETATM   16  C11 UNL     1      19.367   9.783  25.817  1.00  0.00     0.026 C
BRANCH  16  17
HETATM   17  C12 UNL     1      19.409  10.248  27.230  1.00  0.00     0.164 C
BRANCH  17  18
HETATM   18  O1  UNL     1      19.019   9.207  28.086  1.00  0.00    -0.401 OA
ATOM     19  H1  UNL     1      19.228   8.369  27.690  1.00  0.00     0.209 HD
ENDBRANCH  17  18
ENDBRANCH  16  17
ENDBRANCH  15  16
ENDBRANCH  14  15
ENDBRANCH  13  14
TORSDOF 5
ENDMDL