MODEL 5
REMARK VINA RESULT: -7.038391298      1.950      5.254
REMARK  2 active torsions:
REMARK  status: ('A' for Active; 'I' for Inactive)
REMARK    1  A    between atoms: C2_2  and  N1_3
REMARK    2  A    between atoms: C2_2  and  N4_8
ROOT
HETATM    1  N4  UNL     1      30.009  13.866  19.731  1.00  0.00    -0.205 NA
HETATM    2  C4  UNL     1      29.365  15.031  19.221  1.00  0.00     0.117 C
HETATM    3  C5  UNL     1      27.992  14.798  18.665  1.00  0.00     0.026 C
HETATM    4  C6  UNL     1      27.125  13.879  19.459  1.00  0.00     0.028 C
HETATM    5  C7  UNL     1      26.666  12.755  18.572  1.00  0.00     0.038 C
HETATM    6  C8  UNL     1      27.776  11.957  17.982  1.00  0.00     0.240 C
HETATM    7  N5  UNL     1      28.376  10.997  18.862  1.00  0.00    -0.045 N
HETATM    8  C9  UNL     1      27.348  10.197  19.486  1.00  0.00     0.240 C
HETATM    9  C10 UNL     1      27.905   8.886  20.065  1.00  0.00     0.032 C
HETATM   10  C11 UNL     1      29.392   9.196  20.304  1.00  0.00    -0.008 C
HETATM   11  C12 UNL     1      30.010   9.249  18.915  1.00  0.00     0.032 C
HETATM   12  C13 UNL     1      29.092  10.046  17.993  1.00  0.00     0.240 C
HETATM   13  C14 UNL     1      29.362  10.572  20.962  1.00  0.00     0.061 C
HETATM   14  C15 UNL     1      29.321  11.569  19.788  1.00  0.00     0.306 C
HETATM   15  N6  UNL     1      29.141  12.883  20.169  1.00  0.00    -0.292 N
HETATM   16  C16 UNL     1      27.921  13.372  20.647  1.00  0.00     0.085 C
ENDROOT
BRANCH   1  17
HETATM   17  C2  UNL     1      30.865  14.281  20.836  1.00  0.00     0.174 C
HETATM   18  C1  UNL     1      32.171  14.854  20.345  1.00  0.00     0.051 C
BRANCH  17  19
HETATM   19  N1  UNL     1      30.204  15.203  21.663  1.00  0.00    -0.349 N
HETATM   20  C3  UNL     1      29.705  15.227  22.799  1.00  0.00     0.198 C
HETATM   21  N2  UNL     1      29.105  16.455  23.253  1.00  0.00    -0.067 NA
HETATM   22  N3  UNL     1      29.675  14.146  23.683  1.00  0.00    -0.067 NA
ATOM     23  H1  UNL     1      30.108  16.107  21.202  1.00  0.00     0.163 HD
ENDBRANCH  17  19
ENDBRANCH   1  17
TORSDOF 2
ENDMDL