MODEL 1
REMARK VINA RESULT: -6.136534456      0.000      0.000
REMARK  6 active torsions:
REMARK  status: ('A' for Active; 'I' for Inactive)
REMARK    1  A    between atoms: C2_2  and  C3_3
REMARK    2  A    between atoms: C3_3  and  N1_4
REMARK    3  A    between atoms: N1_4  and  C4_6
REMARK    4  A    between atoms: C4_6  and  N2_8
REMARK       I    between atoms: N3_11  and  C7_12
REMARK       I    between atoms: C7_12  and  N5_16
REMARK    5  A    between atoms: N5_16  and  C8_18
REMARK    6  A    between atoms: C8_18  and  C9_19
ROOT
HETATM    1  N2  UNL     1      27.952   9.052  19.772  1.00  0.00    -0.355 N
HETATM    2  C5  UNL     1      28.353   9.657  18.546  1.00  0.00     0.145 C
HETATM    3  C6  UNL     1      28.099  11.163  18.732  1.00  0.00     0.161 C
HETATM    4  N3  UNL     1      28.696  11.585  19.975  1.00  0.00    -0.215 N
HETATM    5  C7  UNL     1      28.431  12.868  20.476  1.00  0.00     0.669 C
HETATM    6  N4  UNL     1      27.282  13.401  20.301  1.00  0.00    -0.235 N
ATOM      7  H41 UNL     1      27.089  14.334  20.666  1.00  0.00     0.174 HD
ATOM      8  H42 UNL     1      26.569  12.887  19.784  1.00  0.00     0.174 HD
HETATM    9  N5  UNL     1      29.418  13.579  21.192  1.00  0.00    -0.226 N
ATOM     10  H5  UNL     1      29.973  13.080  21.887  1.00  0.00     0.177 HD
HETATM   11  C13 UNL     1      29.562  10.675  20.678  1.00  0.00     0.161 C
HETATM   12  C14 UNL     1      28.900   9.334  20.887  1.00  0.00     0.145 C
ENDROOT
BRANCH   9  13
HETATM   13  C8  UNL     1      29.668  14.968  20.981  1.00  0.00     0.146 C
BRANCH  13  14
HETATM   14  C9  UNL     1      29.522  15.866  22.157  1.00  0.00    -0.035 C
HETATM   15  C10 UNL     1      28.232  16.619  22.216  1.00  0.00     0.016 C
HETATM   16  C11 UNL     1      30.701  16.821  22.241  1.00  0.00     0.016 C
HETATM   17  C12 UNL     1      29.557  14.968  23.404  1.00  0.00     0.016 C
ENDBRANCH  13  14
ENDBRANCH   9  13
BRANCH   1  18
HETATM   18  C4  UNL     1      26.814   8.279  19.990  1.00  0.00     0.170 C
HETATM   19  S1  UNL     1      26.328   7.444  18.591  1.00  0.00    -0.041 SA
BRANCH  18  20
HETATM   20  N1  UNL     1      26.027   8.079  21.127  1.00  0.00    -0.364 N
ATOM     21  H1  UNL     1      25.580   8.916  21.503  1.00  0.00     0.162 HD
BRANCH  20  22
HETATM   22  C3  UNL     1      25.760   6.868  21.837  1.00  0.00     0.148 C
BRANCH  22  23
HETATM   23  C2  UNL     1      24.408   6.344  21.654  1.00  0.00    -0.018 C
HETATM   24  C1  UNL     1      24.071   5.337  20.911  1.00  0.00     0.008 C
ENDBRANCH  22  23
ENDBRANCH  20  22
ENDBRANCH  18  20
ENDBRANCH   1  18
TORSDOF 6
ENDMDL