MODEL 4
REMARK VINA RESULT: -5.923983744      1.800      2.274
REMARK  4 active torsions:
REMARK  status: ('A' for Active; 'I' for Inactive)
REMARK       I    between atoms: N2_5  and  C4_6
REMARK       I    between atoms: C4_6  and  N6_19
REMARK       I    between atoms: N3_7  and  C5_9
REMARK       I    between atoms: C5_9  and  N5_13
REMARK    1  A    between atoms: N6_19  and  C11_21
REMARK    2  A    between atoms: C11_21  and  C12_22
REMARK    3  A    between atoms: C12_22  and  C13_23
REMARK    4  A    between atoms: C13_23  and  N7_24
ROOT
HETATM    1  C1  UNL     1      32.717  11.169  17.789  1.00  0.00     0.312 C
HETATM    2  N1  UNL     1      31.452  10.478  17.887  1.00  0.00     0.103 N
HETATM    3  C2  UNL     1      30.734  10.453  16.637  1.00  0.00     0.294 C
HETATM    4  C3  UNL     1      29.429  11.231  16.903  1.00  0.00     0.173 C
HETATM    5  N2  UNL     1      29.263  10.927  18.304  1.00  0.00    -0.189 N
HETATM    6  C4  UNL     1      28.061  10.573  18.960  1.00  0.00     0.692 C
HETATM    7  N3  UNL     1      27.114  11.433  19.037  1.00  0.00    -0.023 N
ATOM      8  H3  UNL     1      26.253  11.165  19.513  1.00  0.00     0.203 HD
HETATM    9  C5  UNL     1      27.205  12.726  18.498  1.00  0.00     0.688 C
HETATM   10  N4  UNL     1      26.729  12.951  17.328  1.00  0.00    -0.234 N
ATOM     11  H41 UNL     1      26.795  13.889  16.936  1.00  0.00     0.174 HD
ATOM     12  H42 UNL     1      26.296  12.189  16.806  1.00  0.00     0.174 HD
HETATM   13  N5  UNL     1      27.799  13.772  19.215  1.00  0.00    -0.218 N
HETATM   14  C6  UNL     1      28.766  14.657  18.658  1.00  0.00     0.141 C
HETATM   15  C7  UNL     1      28.877  15.989  19.350  1.00  0.00     0.020 C
HETATM   16  C8  UNL     1      28.721  15.926  20.828  1.00  0.00     0.003 C
HETATM   17  C9  UNL     1      28.571  14.502  21.342  1.00  0.00     0.020 C
HETATM   18  C10 UNL     1      27.372  13.927  20.614  1.00  0.00     0.141 C
HETATM   19  N6  UNL     1      27.903   9.269  19.532  1.00  0.00    -0.226 N
ATOM     20  H6  UNL     1      28.235   8.478  18.980  1.00  0.00     0.177 HD
HETATM   21  C14 UNL     1      30.577  11.046  18.893  1.00  0.00     0.413 C
ENDROOT
BRANCH  19  22
HETATM   22  C11 UNL     1      27.325   8.976  20.800  1.00  0.00     0.139 C
BRANCH  22  23
HETATM   23  C12 UNL     1      26.368   7.810  20.786  1.00  0.00     0.047 C
BRANCH  23  24
HETATM   24  C13 UNL     1      26.124   7.285  22.192  1.00  0.00     0.231 C
BRANCH  24  25
HETATM   25  N7  UNL     1      24.700   7.037  22.314  1.00  0.00    -0.079 N
ATOM     26  H73 UNL     1      24.318   7.328  23.214  1.00  0.00     0.274 HD
ATOM     27  H72 UNL     1      24.135   7.652  21.728  1.00  0.00     0.274 HD
ATOM     28  H71 UNL     1      24.550   6.048  22.117  1.00  0.00     0.274 HD
ENDBRANCH  24  25
ENDBRANCH  23  24
ENDBRANCH  22  23
ENDBRANCH  19  22
TORSDOF 4
ENDMDL