MODEL 5
REMARK VINA RESULT: -6.125388958      2.033      2.811
REMARK  5 active torsions:
REMARK  status: ('A' for Active; 'I' for Inactive)
REMARK    1  A    between atoms: C1_4  and  C2_5
REMARK    2  A    between atoms: C1_4  and  N3_10
REMARK    3  A    between atoms: C2_5  and  N2_6
REMARK    4  A    between atoms: N3_10  and  C6_12
REMARK    5  A    between atoms: C9_15  and  C10_16
ROOT
HETATM    1  C6  UNL     1      28.832  11.743  19.398  1.00  0.00     0.092 C
HETATM    2  C7  UNL     1      27.637  11.041  18.896  1.00  0.00     0.015 C
HETATM    3  C8  UNL     1      26.751  10.494  20.030  1.00  0.00     0.026 C
HETATM    4  C9  UNL     1      27.619   9.227  19.915  1.00  0.00     0.043 C
HETATM    5  C11 UNL     1      28.810   9.259  20.774  1.00  0.00     0.024 C
HETATM    6  C12 UNL     1      30.085   9.691  20.173  1.00  0.00    -0.002 A
HETATM    7  C13 UNL     1      30.229   9.739  18.746  1.00  0.00    -0.003 A
HETATM    8  C14 UNL     1      29.104   9.256  17.899  1.00  0.00     0.011 C
HETATM    9  C15 UNL     1      27.815   9.625  18.492  1.00  0.00     0.009 C
HETATM   10  C16 UNL     1      30.109  11.016  19.384  1.00  0.00     0.018 A
ENDROOT
BRANCH   1  11
HETATM   11  N3  UNL     1      28.993  13.049  18.734  1.00  0.00    -0.373 N
ATOM     12  H3  UNL     1      29.806  13.229  18.144  1.00  0.00     0.161 HD
BRANCH  11  13
HETATM   13  C1  UNL     1      28.007  14.058  18.919  1.00  0.00     0.099 C
HETATM   14  N1  UNL     1      27.464  14.567  17.871  1.00  0.00    -0.388 N
ATOM     15  H12 UNL     1      26.757  15.291  18.005  1.00  0.00     0.157 HD
ATOM     16  H11 UNL     1      27.739  14.250  16.942  1.00  0.00     0.157 HD
BRANCH  13  17
HETATM   17  C2  UNL     1      27.605  14.522  20.279  1.00  0.00     0.347 C
BRANCH  17  18
HETATM   18  N2  UNL     1      28.780  14.948  20.996  1.00  0.00     0.095 N
HETATM   19  C3  UNL     1      28.641  14.964  22.430  1.00  0.00     0.274 C
HETATM   20  C4  UNL     1      28.250  16.425  22.434  1.00  0.00     0.060 C
HETATM   21  C5  UNL     1      28.884  16.406  21.048  1.00  0.00     0.274 C
ENDBRANCH  17  18
ENDBRANCH  13  17
ENDBRANCH  11  13
ENDBRANCH   1  11
BRANCH   4  22
HETATM   22  C10 UNL     1      26.763   8.033  20.131  1.00  0.00     0.240 C
HETATM   23  N4  UNL     1      26.408   7.634  21.450  1.00  0.00    -0.061 NA
HETATM   24  O1  UNL     1      26.317   7.330  19.186  1.00  0.00    -0.276 OA
ENDBRANCH   4  22
TORSDOF 5
ENDMDL