MODEL 2
REMARK VINA RESULT: -6.494186247      0.989      1.309
REMARK  4 active torsions:
REMARK  status: ('A' for Active; 'I' for Inactive)
REMARK    1  A    between atoms: N1_1  and  C1_5
REMARK    2  A    between atoms: C1_5  and  C2_6
REMARK    3  A    between atoms: C2_6  and  C3_7
REMARK       I    between atoms: C3_7  and  N2_9
REMARK    4  A    between atoms: N5_18  and  C9_19
ROOT
HETATM    1  C2  UNL     1      30.357  10.563  20.361  1.00  0.00     0.134 C
HETATM    2  C5  UNL     1      30.707   9.317  21.192  1.00  0.00     0.042 C
HETATM    3  C6  UNL     1      32.148   9.199  21.492  1.00  0.00     0.004 C
HETATM    4  C7  UNL     1      32.829  10.471  21.817  1.00  0.00     0.020 C
HETATM    5  C8  UNL     1      32.267  11.720  21.243  1.00  0.00     0.118 C
HETATM    6  N5  UNL     1      30.884  11.698  20.922  1.00  0.00    -0.389 N
ENDROOT
BRANCH   1   7
HETATM    7  C1  UNL     1      30.818  10.245  18.911  1.00  0.00     0.270 C
BRANCH   7   8
HETATM    8  N1  UNL     1      30.239   9.104  18.328  1.00  0.00    -0.076 N
ATOM      9  H13 UNL     1      30.136   8.369  19.028  1.00  0.00     0.274 HD
ATOM     10  H12 UNL     1      29.259   9.284  18.109  1.00  0.00     0.274 HD
ATOM     11  H11 UNL     1      30.720   8.738  17.506  1.00  0.00     0.274 HD
ENDBRANCH   7   8
ENDBRANCH   1   7
BRANCH   1  12
HETATM   12  C3  UNL     1      28.883  10.473  20.232  1.00  0.00     0.253 C
HETATM   13  O1  UNL     1      28.188  11.016  19.396  1.00  0.00    -0.270 OA
HETATM   14  N2  UNL     1      28.144   9.653  21.196  1.00  0.00    -0.301 N
HETATM   15  C4  UNL     1      27.411   8.667  20.822  1.00  0.00     0.203 C
ATOM     16  H2  UNL     1      28.213   9.871  22.190  1.00  0.00     0.171 HD
HETATM   17  N3  UNL     1      26.691   7.869  21.760  1.00  0.00    -0.066 NA
HETATM   18  N4  UNL     1      27.326   8.372  19.434  1.00  0.00    -0.066 NA
ENDBRANCH   1  12
BRANCH   6  19
HETATM   19  C9  UNL     1      30.207  12.944  20.968  1.00  0.00     0.089 C
HETATM   20  C10 UNL     1      31.074  14.193  20.968  1.00  0.00     0.013 C
HETATM   21  C11 UNL     1      30.257  15.370  20.382  1.00  0.00     0.011 C
HETATM   22  C14 UNL     1      30.862  14.351  22.429  1.00  0.00    -0.002 C
HETATM   23  C12 UNL     1      29.320  15.712  21.496  1.00  0.00    -0.013 C
HETATM   24  C13 UNL     1      30.330  15.780  22.658  1.00  0.00     0.010 C
HETATM   25  C16 UNL     1      28.552  14.508  22.002  1.00  0.00     0.011 C
HETATM   26  C15 UNL     1      29.642  13.469  22.245  1.00  0.00     0.013 C
ENDBRANCH   6  19
TORSDOF 4
ENDMDL