MODEL 5
REMARK VINA RESULT: -5.952321721      0.698      1.356
REMARK  3 active torsions:
REMARK  status: ('A' for Active; 'I' for Inactive)
REMARK       I    between atoms: C1_4  and  N3_6
REMARK    1  A    between atoms: N4_9  and  C4_10
REMARK    2  A    between atoms: C4_10  and  C5_11
REMARK    3  A    between atoms: C15_21  and  N5_22
ROOT
HETATM    1  N1  UNL     1      27.191   7.827  16.922  1.00  0.00    -0.374 N
ATOM      2  H11 UNL     1      27.750   8.401  16.292  1.00  0.00     0.158 HD
ATOM      3  H12 UNL     1      26.718   6.998  16.564  1.00  0.00     0.158 HD
HETATM    4  C1  UNL     1      27.143   8.215  18.146  1.00  0.00     0.184 C
HETATM    5  N2  UNL     1      26.349   7.399  19.041  1.00  0.00    -0.064 NA
HETATM    6  N3  UNL     1      27.794   9.356  18.639  1.00  0.00    -0.350 N
HETATM    7  C2  UNL     1      27.531   9.907  19.969  1.00  0.00     0.156 C
HETATM    8  C3  UNL     1      27.522  11.407  19.727  1.00  0.00     0.295 C
HETATM    9  N4  UNL     1      28.929  11.876  19.590  1.00  0.00     0.123 N
HETATM   10  C15 UNL     1      29.587  11.067  18.651  1.00  0.00     0.434 C
HETATM   11  C16 UNL     1      28.748  10.077  17.856  1.00  0.00     0.190 C
ENDROOT
BRANCH   9  12
HETATM   12  C4  UNL     1      28.826  13.260  19.361  1.00  0.00     0.284 C
BRANCH  12  13
HETATM   13  C5  UNL     1      29.136  14.234  20.431  1.00  0.00    -0.013 C
HETATM   14  C6  UNL     1      30.392  13.673  21.138  1.00  0.00     0.016 C
HETATM   15  C7  UNL     1      30.851  14.570  22.237  1.00  0.00    -0.013 C
HETATM   16  C8  UNL     1      29.744  14.628  23.269  1.00  0.00     0.009 C
HETATM   17  C12 UNL     1      31.212  15.911  21.691  1.00  0.00     0.009 C
HETATM   18  C9  UNL     1      28.571  15.293  22.618  1.00  0.00    -0.013 C
HETATM   19  C10 UNL     1      28.917  16.646  22.048  1.00  0.00     0.009 C
HETATM   20  C14 UNL     1      28.051  14.444  21.440  1.00  0.00     0.016 C
HETATM   21  C11 UNL     1      29.990  16.466  20.987  1.00  0.00    -0.013 C
HETATM   22  C13 UNL     1      29.531  15.585  19.872  1.00  0.00     0.016 C
ENDBRANCH  12  13
ENDBRANCH   9  12
BRANCH  10  23
HETATM   23  N5  UNL     1      30.540  10.212  19.409  1.00  0.00    -0.046 N
ATOM     24  H53 UNL     1      30.664  10.509  20.376  1.00  0.00     0.277 HD
ATOM     25  H52 UNL     1      30.174   9.280  19.604  1.00  0.00     0.277 HD
ATOM     26  H51 UNL     1      31.412  10.197  18.879  1.00  0.00     0.277 HD
ENDBRANCH  10  23
TORSDOF 3
ENDMDL