MODEL 3
REMARK VINA RESULT: -7.553281144      1.838      2.409
REMARK  8 active torsions:
REMARK  status: ('A' for Active; 'I' for Inactive)
REMARK    1  A    between atoms: O1_1  and  C1_3
REMARK    2  A    between atoms: C1_3  and  N1_4
REMARK    3  A    between atoms: C1_3  and  N2_19
REMARK    4  A    between atoms: N1_4  and  C2_6
REMARK    5  A    between atoms: C2_6  and  O2_7
REMARK    6  A    between atoms: C2_6  and  C3_9
REMARK    7  A    between atoms: C9_15  and  C10_16
REMARK    8  A    between atoms: N2_19  and  C11_21
ROOT
HETATM    1  C2  UNL     1      27.797   8.897  20.240  1.00  0.00     0.123 C
ENDROOT
BRANCH   1   2
HETATM    2  N1  UNL     1      27.292   8.539  21.461  1.00  0.00    -0.306 N
ATOM      3  H1  UNL     1      27.673   9.104  22.220  1.00  0.00     0.171 HD
BRANCH   2   4
HETATM    4  C1  UNL     1      26.378   7.583  21.914  1.00  0.00     0.218 C
BRANCH   4   5
HETATM    5  O1  UNL     1      26.711   6.906  22.977  1.00  0.00    -0.332 OA
ATOM      6  H1  UNL     1      26.828   7.399  23.781  1.00  0.00     0.220 HD
ENDBRANCH   4   5
BRANCH   4   7
HETATM    7  N2  UNL     1      25.135   7.271  21.336  1.00  0.00    -0.351 N
ATOM      8  H2  UNL     1      24.370   7.940  21.417  1.00  0.00     0.163 HD
BRANCH   7   9
HETATM    9  C11 UNL     1      24.907   6.012  20.622  1.00  0.00     0.089 C
HETATM   10  C12 UNL     1      23.626   5.323  20.879  1.00  0.00     0.030 C
HETATM   11  C13 UNL     1      23.256   5.373  19.408  1.00  0.00    -0.006 A
HETATM   12  C14 UNL     1      24.268   5.097  18.346  1.00  0.00     0.012 A
HETATM   13  C15 UNL     1      24.435   6.280  19.186  1.00  0.00     0.013 A
ENDBRANCH   7   9
ENDBRANCH   4   7
ENDBRANCH   2   4
ENDBRANCH   1   2
BRANCH   1  14
HETATM   14  O2  UNL     1      27.340   8.212  19.222  1.00  0.00    -0.349 OA
ATOM     15  H2  UNL     1      26.733   8.676  18.658  1.00  0.00     0.219 HD
ENDBRANCH   1  14
BRANCH   1  16
HETATM   16  C3  UNL     1      28.770   9.924  19.819  1.00  0.00     0.075 C
HETATM   17  C4  UNL     1      29.943  10.042  20.781  1.00  0.00     0.018 C
HETATM   18  C5  UNL     1      30.434  11.445  20.581  1.00  0.00    -0.009 C
HETATM   19  C6  UNL     1      30.061  12.387  21.729  1.00  0.00     0.005 C
HETATM   20  C8  UNL     1      29.404  12.182  19.751  1.00  0.00     0.005 C
HETATM   21  C7  UNL     1      29.528  13.362  20.691  1.00  0.00     0.006 C
HETATM   22  C9  UNL     1      28.184  11.328  19.936  1.00  0.00     0.103 C
BRANCH  22  23
HETATM   23  C10 UNL     1      27.163  11.563  18.877  1.00  0.00     0.178 C
HETATM   24  O3  UNL     1      26.240  12.369  19.157  1.00  0.00    -0.648 OA
HETATM   25  O4  UNL     1      27.180  10.963  17.651  1.00  0.00    -0.648 OA
ENDBRANCH  22  23
ENDBRANCH   1  16
TORSDOF 8
ENDMDL