MODEL 5
REMARK VINA RESULT: -6.341697553      3.473      4.744
REMARK  3 active torsions:
REMARK  status: ('A' for Active; 'I' for Inactive)
REMARK    1  A    between atoms: N3_4  and  C2_6
REMARK    2  A    between atoms: C2_6  and  C3_7
REMARK    3  A    between atoms: C2_6  and  C9_13
ROOT
HETATM    1  C2  UNL     1      29.895  11.120  20.123  1.00  0.00     0.093 C
ENDROOT
BRANCH   1   2
HETATM    2  N3  UNL     1      30.598  10.805  21.414  1.00  0.00    -0.361 N
HETATM    3  C1  UNL     1      31.888  10.605  21.385  1.00  0.00     0.197 C
HETATM    4  N1  UNL     1      32.609  10.304  22.570  1.00  0.00    -0.067 NA
HETATM    5  N2  UNL     1      32.643  10.675  20.179  1.00  0.00    -0.067 NA
ATOM      6  H3  UNL     1      30.080  10.749  22.290  1.00  0.00     0.162 HD
ENDBRANCH   1   2
BRANCH   1   7
HETATM    7  C3  UNL     1      29.002   9.988  19.792  1.00  0.00     0.009 C
HETATM    8  C4  UNL     1      28.366   9.258  20.912  1.00  0.00     0.007 C
HETATM    9  C5  UNL     1      27.075   8.575  20.489  1.00  0.00     0.000 C
HETATM   10  C6  UNL     1      27.110   8.104  19.074  1.00  0.00     0.000 C
HETATM   11  C7  UNL     1      27.566   9.076  18.055  1.00  0.00     0.000 C
HETATM   12  C8  UNL     1      27.970  10.370  18.716  1.00  0.00     0.007 C
ENDBRANCH   1   7
BRANCH   1  13
HETATM   13  C9  UNL     1      29.274  12.445  20.397  1.00  0.00     0.026 C
HETATM   14  C10 UNL     1      29.496  13.105  21.691  1.00  0.00     0.028 C
HETATM   15  C11 UNL     1      30.067  14.521  21.573  1.00  0.00     0.132 C
HETATM   16  N4  UNL     1      29.002  15.408  21.141  1.00  0.00    -0.320 N
HETATM   17  S1  UNL     1      28.549  14.854  19.556  1.00  0.00     0.226 S
ATOM     18  H4  UNL     1      28.603  16.191  21.659  1.00  0.00     0.172 HD
HETATM   19  O1  UNL     1      28.726  15.911  18.528  1.00  0.00    -0.206 OA
HETATM   20  O2  UNL     1      27.116  14.390  19.655  1.00  0.00    -0.206 OA
HETATM   21  C12 UNL     1      29.544  13.425  19.230  1.00  0.00     0.169 C
ENDBRANCH   1  13
TORSDOF 3
ENDMDL