MODEL 1
REMARK VINA RESULT: -7.875615809      0.000      0.000
REMARK  3 active torsions:
REMARK  status: ('A' for Active; 'I' for Inactive)
REMARK       I    between atoms: N1_1  and  C1_4
REMARK       I    between atoms: C1_4  and  N2_5
REMARK    1  A    between atoms: C2_7  and  N3_8
REMARK       I    between atoms: N5_12  and  C4_14
REMARK       I    between atoms: C4_14  and  N6_16
REMARK    2  A    between atoms: C7_19  and  C8_20
REMARK    3  A    between atoms: C8_20  and  C9_21
ROOT
HETATM    1  N1  UNL     1      29.520  12.863  15.172  1.00  0.00    -0.234 N
ATOM      2  H11 UNL     1      30.356  12.861  15.756  1.00  0.00     0.174 HD
ATOM      3  H12 UNL     1      30.000  13.315  14.393  1.00  0.00     0.174 HD
HETATM    4  C1  UNL     1      28.950  12.323  16.102  1.00  0.00     0.680 C
HETATM    5  N2  UNL     1      27.496  12.325  15.085  1.00  0.00    -0.188 N
ATOM      6  H2  UNL     1      27.137  11.604  14.460  1.00  0.00     0.185 HD
HETATM    7  C2  UNL     1      27.025  13.478  15.351  1.00  0.00     0.198 C
HETATM    8  N5  UNL     1      28.328  11.737  17.112  1.00  0.00    -0.141 N
ATOM      9  H5  UNL     1      27.349  11.469  17.015  1.00  0.00     0.189 HD
HETATM   10  C4  UNL     1      29.035  11.467  18.369  1.00  0.00     0.336 C
HETATM   11  O1  UNL     1      30.229  11.813  18.429  1.00  0.00    -0.246 OA
HETATM   12  N6  UNL     1      28.397  10.844  19.462  1.00  0.00    -0.333 N
HETATM   13  C5  UNL     1      29.058  10.522  20.744  1.00  0.00     0.128 C
HETATM   14  C6  UNL     1      28.655   9.045  20.825  1.00  0.00     0.026 C
HETATM   15  C7  UNL     1      27.227   9.042  20.389  1.00  0.00     0.005 C
HETATM   16  C15 UNL     1      27.041  10.382  19.658  1.00  0.00     0.132 C
ENDROOT
BRANCH  15  17
HETATM   17  C8  UNL     1      26.879   7.966  19.443  1.00  0.00     0.011 C
BRANCH  17  18
HETATM   18  C9  UNL     1      25.590   7.261  19.610  1.00  0.00    -0.014 C
HETATM   19  C10 UNL     1      25.347   6.687  20.988  1.00  0.00     0.005 C
HETATM   20  C11 UNL     1      24.407   5.501  20.931  1.00  0.00     0.000 C
HETATM   21  C12 UNL     1      23.287   5.687  19.968  1.00  0.00     0.000 C
HETATM   22  C13 UNL     1      23.667   6.173  18.606  1.00  0.00     0.000 C
HETATM   23  C14 UNL     1      25.201   6.271  18.566  1.00  0.00     0.005 C
ENDBRANCH  17  18
ENDBRANCH  15  17
BRANCH   7  24
HETATM   24  N3  UNL     1      27.550  14.445  16.218  1.00  0.00    -0.350 N
HETATM   25  C3  UNL     1      27.348  15.689  16.144  1.00  0.00     0.190 C
HETATM   26  N4  UNL     1      26.542  16.250  15.144  1.00  0.00    -0.097 NA
ATOM     27  H3  UNL     1      28.149  14.114  16.975  1.00  0.00     0.167 HD
ENDBRANCH   7  24
TORSDOF 3
ENDMDL