MODEL 3
REMARK VINA RESULT: -7.175660932      0.990      2.093
REMARK  2 active torsions:
REMARK  status: ('A' for Active; 'I' for Inactive)
REMARK       I    between atoms: C1_4  and  N3_6
REMARK    1  A    between atoms: C4_9  and  N4_10
REMARK       I    between atoms: N4_10  and  C5_11
REMARK    2  A    between atoms: C5_11  and  C6_13
ROOT
HETATM    1  N4  UNL     1      29.338  10.075  20.987  1.00  0.00    -0.407 NA
HETATM    2  C5  UNL     1      30.065  11.098  21.514  1.00  0.00     0.291 C
HETATM    3  O1  UNL     1      31.212  11.022  22.018  1.00  0.00    -0.257 OA
ENDROOT
BRANCH   2   4
HETATM    4  C6  UNL     1      29.515  12.502  21.544  1.00  0.00     0.101 C
HETATM    5  C7  UNL     1      28.585  12.819  20.437  1.00  0.00     0.001 C
HETATM    6  C8  UNL     1      29.304  13.167  19.145  1.00  0.00     0.010 C
HETATM    7  C12 UNL     1      27.832  14.102  20.827  1.00  0.00     0.010 C
HETATM    8  C9  UNL     1      30.266  14.286  19.353  1.00  0.00    -0.013 C
HETATM    9  C10 UNL     1      29.544  15.537  19.788  1.00  0.00     0.009 C
HETATM   10  C15 UNL     1      31.284  13.862  20.393  1.00  0.00     0.010 C
HETATM   11  C11 UNL     1      28.817  15.206  21.073  1.00  0.00    -0.013 C
HETATM   12  C13 UNL     1      29.851  14.817  22.108  1.00  0.00     0.010 C
HETATM   13  C14 UNL     1      30.575  13.538  21.663  1.00  0.00     0.001 C
ENDBRANCH   2   4
BRANCH   1  14
HETATM   14  C4  UNL     1      28.610   9.050  20.460  1.00  0.00     0.186 C
HETATM   15  C3  UNL     1      28.164   9.234  19.008  1.00  0.00     0.061 C
HETATM   16  C2  UNL     1      27.126   8.144  18.872  1.00  0.00     0.129 C
HETATM   17  N3  UNL     1      26.543   7.984  20.178  1.00  0.00    -0.353 N
HETATM   18  C1  UNL     1      25.496   7.073  20.517  1.00  0.00     0.184 C
HETATM   19  C16 UNL     1      27.202   8.897  21.089  1.00  0.00     0.165 C
HETATM   20  N1  UNL     1      25.118   6.955  21.754  1.00  0.00    -0.374 N
HETATM   21  N2  UNL     1      24.852   6.293  19.549  1.00  0.00    -0.064 NA
ATOM     22  H12 UNL     1      24.370   6.305  21.996  1.00  0.00     0.158 HD
ATOM     23  H11 UNL     1      25.586   7.524  22.459  1.00  0.00     0.158 HD
ENDBRANCH   1  14
TORSDOF 2
ENDMDL