MODEL 1
REMARK VINA RESULT: -8.618409581      0.000      0.000
REMARK  10 active torsions:
REMARK  status: ('A' for Active; 'I' for Inactive)
REMARK    1  A    between atoms: C2_2  and  C3_3
REMARK    2  A    between atoms: C3_3  and  C4_4
REMARK    3  A    between atoms: C4_4  and  C5_5
REMARK    4  A    between atoms: C5_5  and  C6_6
REMARK    5  A    between atoms: C6_6  and  C7_7
REMARK    6  A    between atoms: C7_7  and  C8_8
REMARK       I    between atoms: C8_8  and  N1_10
REMARK    7  A    between atoms: N1_10  and  C9_12
REMARK       I    between atoms: N2_14  and  C11_15
REMARK       I    between atoms: C11_15  and  N4_19
REMARK    8  A    between atoms: N4_19  and  C12_21
REMARK    9  A    between atoms: C12_21  and  C13_22
REMARK   10  A    between atoms: C21_31  and  O3_32
ROOT
HETATM    1  C9  UNL     1       1.277  19.173  18.204  1.00  0.00     0.139 C
HETATM    2  C10 UNL     1       0.258  20.212  17.811  1.00  0.00     0.169 C
HETATM    3  N2  UNL     1      -1.034  19.716  17.495  1.00  0.00    -0.209 N
HETATM    4  C11 UNL     1      -1.860  20.275  16.462  1.00  0.00     0.670 C
HETATM    5  N3  UNL     1      -2.118  19.641  15.379  1.00  0.00    -0.235 N
ATOM      6  H31 UNL     1      -2.705  20.038  14.645  1.00  0.00     0.174 HD
ATOM      7  H32 UNL     1      -1.710  18.712  15.273  1.00  0.00     0.174 HD
HETATM    8  N4  UNL     1      -2.429  21.572  16.609  1.00  0.00    -0.226 N
ATOM      9  H4  UNL     1      -2.135  22.342  16.009  1.00  0.00     0.177 HD
HETATM   10  C19 UNL     1      -1.578  18.599  18.223  1.00  0.00     0.222 C
HETATM   11  C20 UNL     1      -0.719  18.331  19.392  1.00  0.00     0.175 C
HETATM   12  O2  UNL     1      -1.220  18.150  20.479  1.00  0.00    -0.293 OA
HETATM   13  C21 UNL     1       0.764  18.272  19.300  1.00  0.00     0.213 C
ENDROOT
BRANCH   1  14
HETATM   14  N1  UNL     1       1.704  18.353  17.092  1.00  0.00    -0.352 N
HETATM   15  C8  UNL     1       3.028  18.300  16.625  1.00  0.00     0.218 C
HETATM   16  O1  UNL     1       3.902  18.992  17.186  1.00  0.00    -0.274 OA
ATOM     17  H1  UNL     1       1.003  17.782  16.620  1.00  0.00     0.163 HD
BRANCH  15  18
HETATM   18  C7  UNL     1       3.376  17.438  15.488  1.00  0.00     0.103 C
BRANCH  18  19
HETATM   19  C6  UNL     1       3.940  18.133  14.296  1.00  0.00     0.009 C
BRANCH  19  20
HETATM   20  C5  UNL     1       3.055  18.207  13.102  1.00  0.00     0.000 C
BRANCH  20  21
HETATM   21  C4  UNL     1       3.685  18.904  11.931  1.00  0.00     0.000 C
BRANCH  21  22
HETATM   22  C3  UNL     1       5.016  19.526  12.241  1.00  0.00    -0.000 C
BRANCH  22  23
HETATM   23  C2  UNL     1       5.517  20.372  11.090  1.00  0.00    -0.005 C
HETATM   24  C1  UNL     1       6.440  21.466  11.553  1.00  0.00     0.005 C
ENDBRANCH  22  23
ENDBRANCH  21  22
ENDBRANCH  20  21
ENDBRANCH  19  20
ENDBRANCH  18  19
ENDBRANCH  15  18
ENDBRANCH   1  14
BRANCH   8  25
HETATM   25  C12 UNL     1      -3.433  21.771  17.629  1.00  0.00     0.142 C
BRANCH  25  26
HETATM   26  C13 UNL     1      -3.329  23.129  18.280  1.00  0.00     0.004 C
HETATM   27  C14 UNL     1      -2.594  23.120  19.568  1.00  0.00     0.006 C
HETATM   28  C15 UNL     1      -1.105  23.329  19.423  1.00  0.00     0.000 C
HETATM   29  C16 UNL     1      -0.766  24.523  18.572  1.00  0.00     0.000 C
HETATM   30  C17 UNL     1      -1.989  25.170  17.971  1.00  0.00     0.000 C
HETATM   31  C18 UNL     1      -2.793  24.120  17.281  1.00  0.00     0.006 C
ENDBRANCH  25  26
ENDBRANCH   8  25
BRANCH  13  32
HETATM   32  O3  UNL     1       1.321  18.608  20.529  1.00  0.00    -0.386 OA
ATOM     33  H3  UNL     1       0.764  19.213  21.005  1.00  0.00     0.210 HD
ENDBRANCH  13  32
TORSDOF 10
ENDMDL