MODEL 4
REMARK VINA RESULT: -8.200001140      3.706      5.228
REMARK  9 active torsions:
REMARK  status: ('A' for Active; 'I' for Inactive)
REMARK    1  A    between atoms: C2_2  and  C3_3
REMARK    2  A    between atoms: C3_3  and  C4_4
REMARK    3  A    between atoms: C4_4  and  N1_5
REMARK       I    between atoms: N1_5  and  C5_7
REMARK    4  A    between atoms: C5_7  and  C6_9
REMARK    5  A    between atoms: C8_11  and  N2_12
REMARK       I    between atoms: N2_12  and  C9_14
REMARK    6  A    between atoms: C9_14  and  C10_16
REMARK    7  A    between atoms: C10_16  and  N3_19
REMARK       I    between atoms: N3_19  and  C13_21
REMARK       I    between atoms: C13_21  and  N4_23
REMARK    8  A    between atoms: N4_23  and  C14_25
REMARK    9  A    between atoms: C14_25  and  C15_26
ROOT
HETATM    1  N2  UNL     1       1.403  17.627  17.736  1.00  0.00    -0.354 N
ATOM      2  H2  UNL     1       1.764  17.620  16.782  1.00  0.00     0.162 HD
HETATM    3  C9  UNL     1       0.015  17.486  17.974  1.00  0.00     0.245 C
HETATM    4  O2  UNL     1      -0.441  17.494  19.133  1.00  0.00    -0.271 OA
ENDROOT
BRANCH   3   5
HETATM    5  C10 UNL     1      -0.899  17.328  16.820  1.00  0.00     0.108 C
HETATM    6  C11 UNL     1      -0.043  17.378  15.566  1.00  0.00     0.049 C
HETATM    7  C12 UNL     1      -1.565  15.974  16.969  1.00  0.00     0.049 C
BRANCH   5   8
HETATM    8  N3  UNL     1      -1.914  18.324  16.716  1.00  0.00    -0.326 N
HETATM    9  C13 UNL     1      -1.580  19.697  16.840  1.00  0.00     0.317 C
HETATM   10  O3  UNL     1      -0.408  20.095  17.048  1.00  0.00    -0.247 OA
HETATM   11  N4  UNL     1      -2.609  20.671  16.726  1.00  0.00    -0.343 N
ATOM     12  H4  UNL     1      -3.560  20.351  16.545  1.00  0.00     0.164 HD
ATOM     13  H3  UNL     1      -2.882  18.049  16.551  1.00  0.00     0.165 HD
BRANCH  11  14
HETATM   14  C14 UNL     1      -2.375  22.077  16.854  1.00  0.00     0.129 C
BRANCH  14  15
HETATM   15  C15 UNL     1      -2.928  22.625  18.120  1.00  0.00     0.003 C
HETATM   16  C16 UNL     1      -3.405  24.063  17.941  1.00  0.00     0.006 C
HETATM   17  C17 UNL     1      -2.274  24.927  17.418  1.00  0.00     0.000 C
HETATM   18  C18 UNL     1      -1.059  24.832  18.281  1.00  0.00     0.000 C
HETATM   19  C19 UNL     1      -0.684  23.439  18.683  1.00  0.00     0.000 C
HETATM   20  C20 UNL     1      -1.832  22.627  19.174  1.00  0.00     0.006 C
ENDBRANCH  14  15
ENDBRANCH  11  14
ENDBRANCH   5   8
ENDBRANCH   3   5
BRANCH   1  21
HETATM   21  C8  UNL     1       2.306  17.780  18.855  1.00  0.00     0.086 C
HETATM   22  C7  UNL     1       2.588  16.498  19.611  1.00  0.00     0.039 C
HETATM   23  C6  UNL     1       4.025  16.962  19.720  1.00  0.00     0.081 C
HETATM   24  C21 UNL     1       3.773  17.796  18.480  1.00  0.00     0.039 C
BRANCH  23  25
HETATM   25  C5  UNL     1       5.034  15.902  19.474  1.00  0.00     0.222 C
HETATM   26  N1  UNL     1       4.992  14.638  20.101  1.00  0.00    -0.361 N
ATOM     27  H1  UNL     1       4.246  14.413  20.760  1.00  0.00     0.162 HD
HETATM   28  O1  UNL     1       5.960  16.156  18.670  1.00  0.00    -0.273 OA
BRANCH  26  29
HETATM   29  C4  UNL     1       6.015  13.669  19.802  1.00  0.00     0.122 C
BRANCH  29  30
HETATM   30  C3  UNL     1       5.469  12.276  19.642  1.00  0.00     0.019 C
BRANCH  30  31
HETATM   31  C2  UNL     1       6.550  11.369  19.096  1.00  0.00    -0.003 C
HETATM   32  C1  UNL     1       6.011  10.648  17.876  1.00  0.00     0.005 C
ENDBRANCH  30  31
ENDBRANCH  29  30
ENDBRANCH  26  29
ENDBRANCH  23  25
ENDBRANCH   1  21
TORSDOF 9
ENDMDL