MODEL 1
REMARK VINA RESULT: -8.441950778      0.000      0.000
REMARK  11 active torsions:
REMARK  status: ('A' for Active; 'I' for Inactive)
REMARK    1  A    between atoms: C2_2  and  N1_3
REMARK    2  A    between atoms: N2_6  and  C5_7
REMARK    3  A    between atoms: C5_7  and  N3_9
REMARK    4  A    between atoms: N3_9  and  C6_11
REMARK    5  A    between atoms: C6_11  and  C7_12
REMARK    6  A    between atoms: C7_12  and  C8_13
REMARK    7  A    between atoms: C13_18  and  C14_19
REMARK    8  A    between atoms: C14_19  and  C15_20
REMARK    9  A    between atoms: C15_20  and  C16_21
REMARK   10  A    between atoms: C16_21  and  C17_22
REMARK   11  A    between atoms: C17_22  and  N4_23
REMARK       I    between atoms: N4_23  and  C18_25
ROOT
HETATM    1  N1  UNL     1       2.531  17.983  18.385  1.00  0.00     0.091 N
HETATM    2  C3  UNL     1       2.166  19.349  18.605  1.00  0.00     0.292 C
HETATM    3  C4  UNL     1       0.913  19.816  18.007  1.00  0.00     0.156 C
HETATM    4  N2  UNL     1       0.263  19.027  17.030  1.00  0.00    -0.350 N
HETATM    5  C13 UNL     1       1.015  17.848  16.495  1.00  0.00     0.115 C
HETATM    6  C19 UNL     1       1.520  17.204  17.732  1.00  0.00     0.297 C
ENDROOT
BRANCH   4   7
HETATM    7  C5  UNL     1      -1.025  19.317  16.564  1.00  0.00     0.170 C
HETATM    8  S1  UNL     1      -2.168  18.158  16.663  1.00  0.00    -0.041 SA
BRANCH   7   9
HETATM    9  N3  UNL     1      -1.391  20.573  16.020  1.00  0.00    -0.367 N
ATOM     10  H3  UNL     1      -0.838  20.935  15.243  1.00  0.00     0.161 HD
BRANCH   9  11
HETATM   11  C6  UNL     1      -2.498  21.375  16.493  1.00  0.00     0.122 C
BRANCH  11  12
HETATM   12  C7  UNL     1      -2.478  21.663  17.951  1.00  0.00     0.024 C
BRANCH  12  13
HETATM   13  C8  UNL     1      -2.245  23.106  18.281  1.00  0.00    -0.013 C
HETATM   14  C9  UNL     1      -2.603  24.047  17.156  1.00  0.00     0.005 C
HETATM   15  C10 UNL     1      -2.102  25.363  17.735  1.00  0.00     0.000 C
HETATM   16  C11 UNL     1      -0.843  24.992  18.479  1.00  0.00     0.000 C
HETATM   17  C12 UNL     1      -0.828  23.472  18.561  1.00  0.00     0.005 C
ENDBRANCH  12  13
ENDBRANCH  11  12
ENDBRANCH   9  11
ENDBRANCH   7   9
ENDBRANCH   4   7
BRANCH   5  18
HETATM   18  C14 UNL     1       1.988  18.408  15.539  1.00  0.00     0.027 C
BRANCH  18  19
HETATM   19  C15 UNL     1       3.090  17.570  15.029  1.00  0.00     0.004 C
BRANCH  19  20
HETATM   20  C16 UNL     1       4.370  18.202  14.654  1.00  0.00     0.020 C
BRANCH  20  21
HETATM   21  C17 UNL     1       4.267  18.587  13.165  1.00  0.00     0.122 C
BRANCH  21  22
HETATM   22  N4  UNL     1       5.385  19.370  12.726  1.00  0.00    -0.365 N
HETATM   23  C18 UNL     1       5.399  20.090  11.499  1.00  0.00     0.181 C
HETATM   24  N5  UNL     1       4.664  19.743  10.491  1.00  0.00    -0.374 N
HETATM   25  N6  UNL     1       6.230  21.228  11.339  1.00  0.00    -0.064 NA
ATOM     26  H52 UNL     1       4.065  18.925  10.606  1.00  0.00     0.158 HD
ATOM     27  H51 UNL     1       4.674  20.260   9.612  1.00  0.00     0.158 HD
ATOM     28  H4  UNL     1       6.210  19.412  13.323  1.00  0.00     0.162 HD
ENDBRANCH  21  22
ENDBRANCH  20  21
ENDBRANCH  19  20
ENDBRANCH  18  19
ENDBRANCH   5  18
BRANCH   1  29
HETATM   29  C2  UNL     1       2.956  17.349  19.614  1.00  0.00     0.268 C
HETATM   30  C1  UNL     1       4.282  16.666  19.505  1.00  0.00     0.037 C
ENDBRANCH   1  29
TORSDOF 11
ENDMDL