MODEL 2
REMARK VINA RESULT: -7.982090440      1.627      2.239
REMARK  12 active torsions:
REMARK  status: ('A' for Active; 'I' for Inactive)
REMARK    1  A    between atoms: N2_8  and  C5_9
REMARK    2  A    between atoms: C5_9  and  O1_10
REMARK    3  A    between atoms: C5_9  and  N3_12
REMARK    4  A    between atoms: N3_12  and  C6_14
REMARK    5  A    between atoms: C6_14  and  C7_15
REMARK    6  A    between atoms: C7_15  and  C8_16
REMARK    7  A    between atoms: C8_16  and  C9_17
REMARK    8  A    between atoms: C9_17  and  C10_18
REMARK    9  A    between atoms: C10_18  and  C11_19
REMARK   10  A    between atoms: C16_26  and  C17_27
REMARK       I    between atoms: C17_27  and  N5_29
REMARK   11  A    between atoms: N5_29  and  C18_31
REMARK   12  A    between atoms: C18_31  and  C19_32
ROOT
HETATM    1  N1  UNL     1       3.898  19.596  17.966  1.00  0.00    -0.400 N
ATOM      2  H11 UNL     1       4.134  19.966  17.046  1.00  0.00     0.156 HD
ATOM      3  H12 UNL     1       4.176  20.202  18.738  1.00  0.00     0.156 HD
HETATM    4  C1  UNL     1       3.348  18.504  18.082  1.00  0.00     0.035 C
HETATM    5  C2  UNL     1       3.000  17.957  19.443  1.00  0.00     0.061 C
HETATM    6  C3  UNL     1       1.651  17.367  19.493  1.00  0.00     0.026 C
HETATM    7  C4  UNL     1       1.091  16.739  18.234  1.00  0.00     0.133 C
HETATM    8  N2  UNL     1       1.516  17.582  17.076  1.00  0.00    -0.307 N
HETATM    9  C16 UNL     1       2.946  17.629  16.966  1.00  0.00     0.128 C
ENDROOT
BRANCH   8  10
HETATM   10  C5  UNL     1       0.591  18.226  16.269  1.00  0.00     0.219 C
BRANCH  10  11
HETATM   11  O1  UNL     1       0.292  17.593  15.158  1.00  0.00    -0.332 OA
ATOM     12  H1  UNL     1       0.250  16.646  15.237  1.00  0.00     0.220 HD
ENDBRANCH  10  11
BRANCH  10  13
HETATM   13  N3  UNL     1      -0.072  19.447  16.479  1.00  0.00    -0.356 N
ATOM     14  H3  UNL     1      -0.773  19.753  15.804  1.00  0.00     0.163 HD
BRANCH  13  15
HETATM   15  C6  UNL     1       0.211  20.280  17.621  1.00  0.00     0.123 C
BRANCH  15  16
HETATM   16  C7  UNL     1      -0.779  20.028  18.713  1.00  0.00     0.020 C
BRANCH  16  17
HETATM   17  C8  UNL     1      -0.839  21.318  19.558  1.00  0.00     0.002 C
BRANCH  17  18
HETATM   18  C9  UNL     1      -0.396  22.489  18.747  1.00  0.00     0.000 C
BRANCH  18  19
HETATM   19  C10 UNL     1      -1.298  23.650  18.807  1.00  0.00     0.005 C
BRANCH  19  20
HETATM   20  C11 UNL     1      -2.213  23.999  17.727  1.00  0.00    -0.012 C
HETATM   21  C12 UNL     1      -3.508  24.668  17.964  1.00  0.00     0.024 C
HETATM   22  C13 UNL     1      -4.464  23.840  18.800  1.00  0.00     0.114 C
HETATM   23  N4  UNL     1      -4.230  22.442  18.666  1.00  0.00    -0.421 N
HETATM   24  C14 UNL     1      -3.705  21.994  17.425  1.00  0.00     0.114 C
ATOM     25  H4  UNL     1      -4.431  21.792  19.425  1.00  0.00     0.153 HD
HETATM   26  C15 UNL     1      -2.551  22.756  16.868  1.00  0.00     0.024 C
ENDBRANCH  19  20
ENDBRANCH  18  19
ENDBRANCH  17  18
ENDBRANCH  16  17
ENDBRANCH  15  16
ENDBRANCH  13  15
ENDBRANCH  10  13
ENDBRANCH   8  10
BRANCH   9  27
HETATM   27  C17 UNL     1       3.597  17.665  15.698  1.00  0.00     0.270 C
HETATM   28  O2  UNL     1       3.155  16.879  14.777  1.00  0.00    -0.266 OA
HETATM   29  N5  UNL     1       4.688  18.464  15.309  1.00  0.00    -0.355 N
ATOM     30  H5  UNL     1       5.101  19.109  15.982  1.00  0.00     0.162 HD
BRANCH  29  31
HETATM   31  C18 UNL     1       5.234  18.391  13.976  1.00  0.00     0.127 C
BRANCH  31  32
HETATM   32  C19 UNL     1       4.670  19.485  13.112  1.00  0.00     0.003 A
HETATM   33  C20 UNL     1       5.209  19.769  11.773  1.00  0.00     0.007 A
HETATM   34  C21 UNL     1       3.876  19.033  11.911  1.00  0.00     0.007 A
ENDBRANCH  31  32
ENDBRANCH  29  31
ENDBRANCH   9  27
TORSDOF 12
ENDMDL