MODEL 3
REMARK VINA RESULT: -8.446564471      1.777      2.123
REMARK  9 active torsions:
REMARK  status: ('A' for Active; 'I' for Inactive)
REMARK    1  A    between atoms: C2_2  and  C4_4
REMARK    2  A    between atoms: C4_4  and  C5_5
REMARK    3  A    between atoms: C5_5  and  N1_6
REMARK    4  A    between atoms: C5_5  and  C13_18
REMARK       I    between atoms: N1_6  and  C6_8
REMARK       I    between atoms: C6_8  and  N2_10
REMARK    5  A    between atoms: N2_10  and  C7_12
REMARK       I    between atoms: C13_18  and  N3_20
REMARK    6  A    between atoms: N3_20  and  C14_22
REMARK    7  A    between atoms: C14_22  and  C16_24
REMARK       I    between atoms: C16_24  and  N4_26
REMARK    8  A    between atoms: N4_26  and  C17_28
REMARK    9  A    between atoms: C17_28  and  C18_29
ROOT
HETATM    1  C5  UNL     1      -0.576  16.714  15.567  1.00  0.00     0.178 C
ENDROOT
BRANCH   1   2
HETATM    2  C4  UNL     1      -1.201  15.378  15.456  1.00  0.00     0.038 C
BRANCH   2   3
HETATM    3  C2  UNL     1      -1.720  14.933  14.145  1.00  0.00    -0.020 C
HETATM    4  C1  UNL     1      -1.532  13.476  13.812  1.00  0.00     0.009 C
HETATM    5  C3  UNL     1      -3.246  15.155  14.200  1.00  0.00     0.009 C
ENDBRANCH   2   3
ENDBRANCH   1   2
BRANCH   1   6
HETATM    6  N1  UNL     1       0.111  17.214  14.406  1.00  0.00    -0.330 N
HETATM    7  C6  UNL     1       1.511  17.324  14.303  1.00  0.00     0.317 C
HETATM    8  O1  UNL     1       2.215  16.970  15.271  1.00  0.00    -0.247 OA
HETATM    9  N2  UNL     1       2.118  17.820  13.143  1.00  0.00    -0.339 N
ATOM     10  H2  UNL     1       1.507  18.094  12.374  1.00  0.00     0.164 HD
ATOM     11  H1  UNL     1      -0.451  17.507  13.607  1.00  0.00     0.165 HD
BRANCH   9  12
HETATM   12  C7  UNL     1       3.541  17.974  12.947  1.00  0.00     0.086 C
HETATM   13  C8  UNL     1       4.158  18.290  14.266  1.00  0.00     0.025 C
HETATM   14  C9  UNL     1       5.573  18.783  14.202  1.00  0.00     0.002 C
HETATM   15  C10 UNL     1       5.567  20.039  13.338  1.00  0.00     0.000 C
HETATM   16  C11 UNL     1       5.199  19.576  11.935  1.00  0.00     0.002 C
HETATM   17  C12 UNL     1       3.841  18.975  11.865  1.00  0.00     0.025 C
ENDBRANCH   9  12
ENDBRANCH   1   6
BRANCH   1  18
HETATM   18  C13 UNL     1      -1.462  17.742  16.176  1.00  0.00     0.241 C
HETATM   19  O2  UNL     1      -1.373  17.958  17.414  1.00  0.00    -0.271 OA
HETATM   20  N3  UNL     1      -2.402  18.483  15.413  1.00  0.00    -0.346 N
ATOM     21  H3  UNL     1      -2.478  18.316  14.410  1.00  0.00     0.163 HD
BRANCH  20  22
HETATM   22  C14 UNL     1      -3.253  19.472  16.038  1.00  0.00     0.172 C
HETATM   23  C15 UNL     1      -4.594  19.578  15.345  1.00  0.00     0.042 C
BRANCH  22  24
HETATM   24  C16 UNL     1      -2.552  20.767  16.151  1.00  0.00     0.240 C
HETATM   25  O3  UNL     1      -2.488  21.509  15.146  1.00  0.00    -0.271 OA
HETATM   26  N4  UNL     1      -1.942  21.215  17.356  1.00  0.00    -0.359 N
ATOM     27  H4  UNL     1      -1.996  20.610  18.176  1.00  0.00     0.162 HD
BRANCH  26  28
HETATM   28  C17 UNL     1      -1.250  22.475  17.488  1.00  0.00     0.127 C
BRANCH  28  29
HETATM   29  C18 UNL     1      -1.893  23.390  18.482  1.00  0.00     0.003 C
HETATM   30  C19 UNL     1      -3.160  23.991  17.850  1.00  0.00     0.006 C
HETATM   31  C20 UNL     1      -2.267  25.115  17.329  1.00  0.00     0.001 C
HETATM   32  C21 UNL     1      -1.289  24.778  18.431  1.00  0.00     0.006 C
ENDBRANCH  28  29
ENDBRANCH  26  28
ENDBRANCH  22  24
ENDBRANCH  20  22
ENDBRANCH   1  18
TORSDOF 9
ENDMDL