MODEL 1
REMARK VINA RESULT: -8.355910343      0.000      0.000
REMARK  11 active torsions:
REMARK  status: ('A' for Active; 'I' for Inactive)
REMARK    1  A    between atoms: O1_2  and  C2_3
REMARK    2  A    between atoms: C2_3  and  N2_7
REMARK    3  A    between atoms: N2_7  and  C3_9
REMARK    4  A    between atoms: C3_9  and  C4_10
REMARK    5  A    between atoms: C4_10  and  C5_11
REMARK    6  A    between atoms: C5_11  and  C6_12
REMARK    7  A    between atoms: C6_12  and  N3_13
REMARK       I    between atoms: N3_13  and  C7_15
REMARK       I    between atoms: C7_15  and  N4_17
REMARK    8  A    between atoms: C11_21  and  C12_22
REMARK    9  A    between atoms: C12_22  and  C13_23
REMARK   10  A    between atoms: C13_23  and  N5_24
REMARK       I    between atoms: N5_24  and  C14_26
REMARK   11  A    between atoms: C14_26  and  C15_28
ROOT
HETATM    1  N3  UNL     1       1.105  18.050  16.272  1.00  0.00    -0.343 N
ATOM      2  H3  UNL     1       1.509  17.390  15.608  1.00  0.00     0.164 HD
HETATM    3  C7  UNL     1      -0.306  18.117  16.438  1.00  0.00     0.318 C
HETATM    4  O2  UNL     1      -0.776  18.939  17.260  1.00  0.00    -0.247 OA
HETATM    5  N4  UNL     1      -1.139  17.276  15.692  1.00  0.00    -0.326 N
HETATM    6  C8  UNL     1      -0.773  16.295  14.726  1.00  0.00     0.128 C
HETATM    7  C9  UNL     1      -1.766  15.168  15.001  1.00  0.00     0.022 C
HETATM    8  C10 UNL     1      -3.024  15.912  15.298  1.00  0.00     0.031 C
HETATM    9  C11 UNL     1      -2.624  17.291  15.819  1.00  0.00     0.113 C
ENDROOT
BRANCH   9  10
HETATM   10  C12 UNL     1      -3.145  18.344  14.916  1.00  0.00     0.015 C
BRANCH  10  11
HETATM   11  C13 UNL     1      -3.698  19.619  15.342  1.00  0.00     0.089 C
BRANCH  11  12
HETATM   12  N5  UNL     1      -2.946  20.718  15.793  1.00  0.00    -0.337 N
HETATM   13  C14 UNL     1      -3.156  21.551  16.894  1.00  0.00     0.225 C
HETATM   14  O3  UNL     1      -4.111  21.361  17.681  1.00  0.00    -0.273 OA
ATOM     15  H5  UNL     1      -2.123  20.940  15.232  1.00  0.00     0.168 HD
BRANCH  13  16
HETATM   16  C15 UNL     1      -2.279  22.711  17.212  1.00  0.00     0.078 C
HETATM   17  C16 UNL     1      -3.039  23.989  17.413  1.00  0.00     0.014 C
HETATM   18  C17 UNL     1      -2.056  25.104  17.596  1.00  0.00     0.001 C
HETATM   19  C18 UNL     1      -0.966  24.835  18.564  1.00  0.00     0.000 C
HETATM   20  C19 UNL     1      -0.472  23.436  18.643  1.00  0.00     0.001 C
HETATM   21  C20 UNL     1      -1.596  22.398  18.542  1.00  0.00     0.014 C
ENDBRANCH  13  16
ENDBRANCH  11  12
ENDBRANCH  10  11
ENDBRANCH   9  10
BRANCH   1  22
HETATM   22  C6  UNL     1       1.971  18.920  17.047  1.00  0.00     0.124 C
BRANCH  22  23
HETATM   23  C5  UNL     1       3.403  18.537  16.828  1.00  0.00     0.021 C
BRANCH  23  24
HETATM   24  C4  UNL     1       3.466  17.785  15.513  1.00  0.00     0.021 C
BRANCH  24  25
HETATM   25  C3  UNL     1       4.246  18.512  14.458  1.00  0.00     0.123 C
BRANCH  25  26
HETATM   26  N2  UNL     1       3.452  18.471  13.241  1.00  0.00    -0.357 N
ATOM     27  H2  UNL     1       2.487  18.144  13.292  1.00  0.00     0.163 HD
BRANCH  26  28
HETATM   28  C2  UNL     1       3.980  18.872  11.983  1.00  0.00     0.212 C
HETATM   29  N1  UNL     1       3.373  18.761  10.870  1.00  0.00    -0.366 N
ATOM     30  H12 UNL     1       3.752  19.048   9.967  1.00  0.00     0.159 HD
ATOM     31  H11 UNL     1       2.437  18.356  10.853  1.00  0.00     0.159 HD
BRANCH  28  32
HETATM   32  O1  UNL     1       5.260  19.424  12.006  1.00  0.00    -0.328 OA
HETATM   33  C1  UNL     1       5.570  20.511  11.152  1.00  0.00     0.213 C
ENDBRANCH  28  32
ENDBRANCH  26  28
ENDBRANCH  25  26
ENDBRANCH  24  25
ENDBRANCH  23  24
ENDBRANCH  22  23
ENDBRANCH   1  22
TORSDOF 11
ENDMDL