MODEL 3
REMARK VINA RESULT: -7.938648893      1.965      2.725
REMARK  11 active torsions:
REMARK  status: ('A' for Active; 'I' for Inactive)
REMARK    1  A    between atoms: C2_2  and  N1_3
REMARK    2  A    between atoms: N1_3  and  C4_5
REMARK    3  A    between atoms: N1_3  and  C14_29
REMARK    4  A    between atoms: C4_5  and  C5_6
REMARK    5  A    between atoms: C5_6  and  C6_7
REMARK    6  A    between atoms: C6_7  and  N2_8
REMARK       I    between atoms: N2_8  and  C7_10
REMARK       I    between atoms: C7_10  and  N4_14
REMARK    7  A    between atoms: N4_14  and  C8_16
REMARK    8  A    between atoms: C9_19  and  C10_20
REMARK    9  A    between atoms: C10_20  and  C11_21
REMARK   10  A    between atoms: C11_21  and  N6_22
REMARK   11  A    between atoms: C14_29  and  C15_30
ROOT
HETATM    1  N2  UNL     1      -1.033  18.201  17.369  1.00  0.00    -0.226 N
ATOM      2  H2  UNL     1      -1.965  18.148  16.960  1.00  0.00     0.177 HD
HETATM    3  C7  UNL     1       0.018  17.436  16.821  1.00  0.00     0.673 C
HETATM    4  N3  UNL     1       0.688  16.620  17.518  1.00  0.00    -0.235 N
ATOM      5  H31 UNL     1       1.447  16.066  17.122  1.00  0.00     0.174 HD
ATOM      6  H32 UNL     1       0.491  16.494  18.511  1.00  0.00     0.174 HD
HETATM    7  N4  UNL     1       0.289  17.609  15.452  1.00  0.00    -0.171 N
ATOM      8  H4  UNL     1      -0.478  17.527  14.785  1.00  0.00     0.186 HD
ENDROOT
BRANCH   1   9
HETATM    9  C6  UNL     1      -0.797  19.057  18.501  1.00  0.00     0.139 C
BRANCH   9  10
HETATM   10  C5  UNL     1      -2.067  19.584  19.121  1.00  0.00     0.048 C
BRANCH  10  11
HETATM   11  C4  UNL     1      -3.192  19.278  18.172  1.00  0.00     0.238 C
BRANCH  11  12
HETATM   12  N1  UNL     1      -3.864  20.446  17.633  1.00  0.00    -0.071 N
HETATM   13  C3  UNL     1      -5.289  20.437  17.896  1.00  0.00     0.272 C
BRANCH  12  14
HETATM   14  C2  UNL     1      -3.673  20.422  16.197  1.00  0.00     0.232 C
HETATM   15  C1  UNL     1      -4.042  19.123  15.557  1.00  0.00     0.035 C
ENDBRANCH  12  14
BRANCH  12  16
HETATM   16  C14 UNL     1      -3.293  21.579  18.281  1.00  0.00     0.241 C
BRANCH  16  17
HETATM   17  C15 UNL     1      -2.834  22.710  17.457  1.00  0.00     0.012 C
HETATM   18  C16 UNL     1      -3.263  24.075  17.866  1.00  0.00     0.006 C
HETATM   19  C17 UNL     1      -2.162  25.063  17.446  1.00  0.00     0.000 C
HETATM   20  C18 UNL     1      -1.064  24.974  18.483  1.00  0.00     0.000 C
HETATM   21  C19 UNL     1      -0.871  23.487  18.779  1.00  0.00     0.000 C
HETATM   22  C20 UNL     1      -1.296  22.697  17.537  1.00  0.00     0.006 C
ENDBRANCH  16  17
ENDBRANCH  12  16
ENDBRANCH  11  12
ENDBRANCH  10  11
ENDBRANCH   9  10
ENDBRANCH   1   9
BRANCH   7  23
HETATM   23  C8  UNL     1       1.497  17.872  14.998  1.00  0.00     0.164 A
HETATM   24  N5  UNL     1       1.904  17.811  13.729  1.00  0.00    -0.339 N
HETATM   25  C9  UNL     1       3.140  18.106  13.457  1.00  0.00     0.025 A
ATOM     26  H5  UNL     1       1.259  17.538  12.987  1.00  0.00     0.168 HD
HETATM   27  C12 UNL     1       3.958  18.466  14.495  1.00  0.00     0.005 A
HETATM   28  C13 UNL     1       5.418  18.852  14.440  1.00  0.00     0.058 C
HETATM   29  S1  UNL     1       2.899  18.361  15.832  1.00  0.00    -0.056 SA
BRANCH  25  30
HETATM   30  C10 UNL     1       3.714  18.071  12.047  1.00  0.00     0.085 C
BRANCH  30  31
HETATM   31  C11 UNL     1       3.484  19.421  11.390  1.00  0.00     0.235 C
BRANCH  31  32
HETATM   32  N6  UNL     1       4.628  19.714  10.533  1.00  0.00    -0.079 N
ATOM     33  H63 UNL     1       4.979  20.664  10.659  1.00  0.00     0.274 HD
ATOM     34  H62 UNL     1       5.470  19.216  10.820  1.00  0.00     0.274 HD
ATOM     35  H61 UNL     1       4.364  19.518   9.568  1.00  0.00     0.274 HD
ENDBRANCH  31  32
ENDBRANCH  30  31
ENDBRANCH  25  30
ENDBRANCH   7  23
TORSDOF 11
ENDMDL