MODEL 4
REMARK VINA RESULT: -5.995707659      0.999      1.382
REMARK  9 active torsions:
REMARK  status: ('A' for Active; 'I' for Inactive)
REMARK    1  A    between atoms: C2_2  and  C3_3
REMARK    2  A    between atoms: C3_3  and  C4_4
REMARK    3  A    between atoms: C4_4  and  C5_5
REMARK    4  A    between atoms: C8_11  and  C9_12
REMARK    5  A    between atoms: C9_12  and  C10_13
REMARK    6  A    between atoms: C13_19  and  C14_20
REMARK    7  A    between atoms: C14_20  and  C15_21
REMARK    8  A    between atoms: C15_21  and  C16_22
REMARK    9  A    between atoms: C19_28  and  C20_29
ROOT
HETATM    1  C4  UNL     1      -3.272  18.021  16.386  1.00  0.00     0.068 C
HETATM    2  C7  UNL     1      -3.342  18.841  17.667  1.00  0.00     0.229 C
HETATM    3  O1  UNL     1      -4.502  19.309  17.947  1.00  0.00    -0.273 OA
HETATM    4  N1  UNL     1      -2.326  19.141  18.558  1.00  0.00    -0.347 N
ATOM      5  H1  UNL     1      -2.474  18.762  19.494  1.00  0.00     0.163 HD
HETATM    6  C8  UNL     1      -1.095  19.886  18.421  1.00  0.00     0.176 C
HETATM    7  C12 UNL     1       0.097  19.059  18.746  1.00  0.00     0.241 C
HETATM    8  O2  UNL     1       0.770  19.248  19.780  1.00  0.00    -0.271 OA
HETATM    9  N2  UNL     1       0.462  18.017  17.832  1.00  0.00    -0.346 N
ATOM     10  H2  UNL     1       0.599  17.069  18.183  1.00  0.00     0.163 HD
HETATM   11  C13 UNL     1       0.639  18.283  16.438  1.00  0.00     0.176 C
HETATM   12  C18 UNL     1       0.050  17.227  15.572  1.00  0.00     0.241 C
HETATM   13  O3  UNL     1       0.859  16.690  14.732  1.00  0.00    -0.271 OA
HETATM   14  N3  UNL     1      -1.263  16.758  15.567  1.00  0.00    -0.350 N
ATOM     15  H3  UNL     1      -1.525  16.227  14.737  1.00  0.00     0.163 HD
HETATM   16  C19 UNL     1      -2.309  16.907  16.549  1.00  0.00     0.130 C
ENDROOT
BRANCH   1  17
HETATM   17  C3  UNL     1      -2.991  19.036  15.307  1.00  0.00     0.048 C
BRANCH  17  18
HETATM   18  C2  UNL     1      -3.361  20.424  15.602  1.00  0.00    -0.036 C
HETATM   19  C1  UNL     1      -2.462  21.409  15.366  1.00  0.00     0.007 C
ENDBRANCH  17  18
ENDBRANCH   1  17
BRANCH   1  20
HETATM   20  C5  UNL     1      -4.653  17.442  16.123  1.00  0.00     0.017 C
HETATM   21  C6  UNL     1      -5.162  17.469  14.731  1.00  0.00     0.006 C
ENDBRANCH   1  20
BRANCH  16  22
HETATM   22  C20 UNL     1      -2.913  15.525  16.694  1.00  0.00    -0.069 C
HETATM   23  C21 UNL     1      -2.873  14.657  15.670  1.00  0.00     0.016 C
HETATM   24  C22 UNL     1      -3.571  15.007  17.908  1.00  0.00     0.044 C
ENDBRANCH  16  22
BRANCH   6  25
HETATM   25  C9  UNL     1      -1.091  20.999  19.502  1.00  0.00     0.034 C
BRANCH  25  26
HETATM   26  C10 UNL     1      -1.800  22.222  19.009  1.00  0.00    -0.002 C
HETATM   27  C11 UNL     1      -0.735  23.244  18.667  1.00  0.00     0.005 C
ENDBRANCH  25  26
ENDBRANCH   6  25
BRANCH  11  28
HETATM   28  C14 UNL     1       2.021  18.620  16.074  1.00  0.00     0.035 C
BRANCH  28  29
HETATM   29  C15 UNL     1       3.196  18.060  16.731  1.00  0.00     0.002 C
BRANCH  29  30
HETATM   30  C16 UNL     1       3.713  18.753  17.935  1.00  0.00    -0.004 C
HETATM   31  C17 UNL     1       3.887  17.752  19.104  1.00  0.00     0.005 C
ENDBRANCH  29  30
ENDBRANCH  28  29
ENDBRANCH  11  28
TORSDOF 9
ENDMDL