MODEL 5
REMARK VINA RESULT: -8.878057573      0.852      1.659
REMARK  9 active torsions:
REMARK  status: ('A' for Active; 'I' for Inactive)
REMARK    1  A    between atoms: C3_3  and  N1_4
REMARK    2  A    between atoms: C7_8  and  N2_9
REMARK    3  A    between atoms: N2_9  and  C8_11
REMARK    4  A    between atoms: C8_11  and  C9_12
REMARK    5  A    between atoms: C9_12  and  C10_13
REMARK    6  A    between atoms: C10_13  and  N3_14
REMARK       I    between atoms: N3_14  and  C11_16
REMARK       I    between atoms: C11_16  and  N5_20
REMARK    7  A    between atoms: N5_20  and  C12_22
REMARK    8  A    between atoms: C12_22  and  C13_23
REMARK    9  A    between atoms: C13_23  and  C14_24
ROOT
HETATM    1  C1  UNL     1       3.406  20.009  10.461  1.00  0.00     0.014 C
HETATM    2  C2  UNL     1       4.139  19.656  11.331  1.00  0.00    -0.098 C
HETATM    3  C3  UNL     1       5.029  19.200  12.407  1.00  0.00     0.219 C
ENDROOT
BRANCH   3   4
HETATM    4  N1  UNL     1       4.277  18.674  13.520  1.00  0.00    -0.340 N
HETATM    5  C4  UNL     1       2.958  18.116  13.231  1.00  0.00     0.127 C
HETATM    6  C5  UNL     1       2.109  18.103  14.490  1.00  0.00     0.022 C
HETATM    7  C6  UNL     1       2.924  17.414  15.555  1.00  0.00     0.036 C
HETATM    8  C7  UNL     1       4.125  18.168  16.002  1.00  0.00     0.169 C
HETATM    9  C22 UNL     1       4.819  18.717  14.813  1.00  0.00     0.242 C
HETATM   10  O1  UNL     1       5.949  19.245  14.993  1.00  0.00    -0.271 OA
BRANCH   8  11
HETATM   11  N2  UNL     1       3.901  19.254  16.895  1.00  0.00    -0.409 N
ATOM     12  H2  UNL     1       4.194  20.201  16.652  1.00  0.00     0.154 HD
BRANCH  11  13
HETATM   13  C8  UNL     1       3.262  18.986  18.126  1.00  0.00     0.116 C
BRANCH  13  14
HETATM   14  C9  UNL     1       3.808  17.762  18.865  1.00  0.00     0.039 C
BRANCH  14  15
HETATM   15  C10 UNL     1       2.873  17.561  20.048  1.00  0.00     0.139 C
BRANCH  15  16
HETATM   16  N3  UNL     1       1.801  18.503  20.109  1.00  0.00    -0.227 N
HETATM   17  C11 UNL     1       0.445  18.155  20.333  1.00  0.00     0.667 C
HETATM   18  N4  UNL     1      -0.112  18.465  21.440  1.00  0.00    -0.235 N
HETATM   19  N5  UNL     1      -0.290  17.470  19.348  1.00  0.00    -0.227 N
ATOM     20  H42 UNL     1       0.420  18.961  22.153  1.00  0.00     0.174 HD
ATOM     21  H41 UNL     1      -1.088  18.214  21.601  1.00  0.00     0.174 HD
ATOM     22  H5  UNL     1      -0.160  16.461  19.272  1.00  0.00     0.177 HD
ATOM     23  H3  UNL     1       2.026  19.490  19.984  1.00  0.00     0.177 HD
BRANCH  19  24
HETATM   24  C12 UNL     1      -1.225  18.106  18.429  1.00  0.00     0.142 C
BRANCH  24  25
HETATM   25  C13 UNL     1      -0.412  18.974  17.527  1.00  0.00     0.054 C
BRANCH  25  26
HETATM   26  C14 UNL     1      -0.763  20.390  17.483  1.00  0.00    -0.082 C
HETATM   27  C15 UNL     1      -1.691  20.711  16.607  1.00  0.00    -0.024 C
HETATM   28  C16 UNL     1      -2.358  22.008  16.213  1.00  0.00     0.027 C
HETATM   29  C17 UNL     1      -3.140  22.615  17.335  1.00  0.00     0.004 C
HETATM   30  C18 UNL     1      -2.405  23.784  17.923  1.00  0.00     0.000 C
HETATM   31  C19 UNL     1      -0.999  23.491  18.330  1.00  0.00     0.000 C
HETATM   32  C20 UNL     1      -0.858  22.239  19.132  1.00  0.00     0.004 C
HETATM   33  C21 UNL     1       0.010  21.195  18.458  1.00  0.00     0.034 C
ENDBRANCH  25  26
ENDBRANCH  24  25
ENDBRANCH  19  24
ENDBRANCH  15  16
ENDBRANCH  14  15
ENDBRANCH  13  14
ENDBRANCH  11  13
ENDBRANCH   8  11
ENDBRANCH   3   4
TORSDOF 9
ENDMDL