MODEL 5
REMARK VINA RESULT: -8.591578405      1.236      1.626
REMARK  9 active torsions:
REMARK  status: ('A' for Active; 'I' for Inactive)
REMARK    1  A    between atoms: C2_2  and  C4_4
REMARK    2  A    between atoms: C4_4  and  N1_5
REMARK    3  A    between atoms: N1_5  and  C5_8
REMARK    4  A    between atoms: C5_8  and  C6_9
REMARK    5  A    between atoms: C6_9  and  N2_10
REMARK       I    between atoms: N2_10  and  C7_12
REMARK    6  A    between atoms: C7_12  and  C8_14
REMARK    7  A    between atoms: C8_14  and  N3_15
REMARK    8  A    between atoms: C8_14  and  C20_31
REMARK       I    between atoms: N3_15  and  C9_17
REMARK       I    between atoms: C9_17  and  N4_19
REMARK    9  A    between atoms: N4_19  and  C10_21
ROOT
HETATM    1  C8  UNL     1      -1.046  17.210  15.938  1.00  0.00     0.181 C
ENDROOT
BRANCH   1   2
HETATM    2  C7  UNL     1       0.412  17.186  15.834  1.00  0.00     0.240 C
HETATM    3  N2  UNL     1       1.316  17.553  16.850  1.00  0.00    -0.358 N
ATOM      4  H2  UNL     1       0.958  17.863  17.752  1.00  0.00     0.162 HD
HETATM    5  O1  UNL     1       0.913  16.806  14.736  1.00  0.00    -0.271 OA
BRANCH   3   6
HETATM    6  C6  UNL     1       2.735  17.496  16.634  1.00  0.00     0.150 C
BRANCH   6   7
HETATM    7  C5  UNL     1       3.452  18.780  16.984  1.00  0.00     0.251 C
BRANCH   7   8
HETATM    8  N1  UNL     1       4.466  19.010  15.991  1.00  0.00    -0.073 N
ATOM      9  H12 UNL     1       5.393  18.998  16.417  1.00  0.00     0.277 HD
ATOM     10  H11 UNL     1       4.436  19.976  15.667  1.00  0.00     0.277 HD
BRANCH   8  11
HETATM   11  C4  UNL     1       4.415  18.109  14.882  1.00  0.00     0.236 C
BRANCH  11  12
HETATM   12  C2  UNL     1       4.316  18.928  13.587  1.00  0.00     0.003 C
HETATM   13  C1  UNL     1       3.347  18.276  12.630  1.00  0.00     0.011 C
HETATM   14  C3  UNL     1       5.697  18.956  12.989  1.00  0.00     0.011 C
ENDBRANCH  11  12
ENDBRANCH   8  11
ENDBRANCH   7   8
ENDBRANCH   6   7
ENDBRANCH   3   6
ENDBRANCH   1   2
BRANCH   1  15
HETATM   15  N3  UNL     1      -1.550  18.555  15.722  1.00  0.00    -0.330 N
HETATM   16  C9  UNL     1      -1.582  19.558  16.726  1.00  0.00     0.317 C
HETATM   17  O2  UNL     1      -1.145  19.241  17.852  1.00  0.00    -0.247 OA
HETATM   18  N4  UNL     1      -2.078  20.850  16.487  1.00  0.00    -0.334 N
ATOM     19  H4  UNL     1      -2.417  21.036  15.543  1.00  0.00     0.165 HD
ATOM     20  H3  UNL     1      -1.901  18.793  14.794  1.00  0.00     0.165 HD
BRANCH  18  21
HETATM   21  C10 UNL     1      -2.161  21.927  17.406  1.00  0.00     0.035 C
HETATM   22  C11 UNL     1      -2.590  23.186  16.698  1.00  0.00     0.035 C
HETATM   23  C12 UNL     1      -2.669  24.370  17.642  1.00  0.00    -0.012 C
HETATM   24  C13 UNL     1      -1.315  24.593  18.233  1.00  0.00     0.009 C
HETATM   25  C17 UNL     1      -3.662  24.064  18.731  1.00  0.00     0.009 C
HETATM   26  C14 UNL     1      -0.914  23.356  18.999  1.00  0.00    -0.012 C
HETATM   27  C15 UNL     1      -1.900  23.045  20.103  1.00  0.00     0.009 C
HETATM   28  C19 UNL     1      -0.829  22.163  18.107  1.00  0.00     0.035 C
HETATM   29  C16 UNL     1      -3.235  22.803  19.447  1.00  0.00    -0.012 C
HETATM   30  C18 UNL     1      -3.160  21.637  18.515  1.00  0.00     0.035 C
ENDBRANCH  18  21
ENDBRANCH   1  15
BRANCH   1  31
HETATM   31  C20 UNL     1      -1.800  16.309  15.034  1.00  0.00     0.009 C
HETATM   32  C21 UNL     1      -1.836  14.870  15.550  1.00  0.00     0.012 C
HETATM   33  C22 UNL     1      -3.181  16.714  14.673  1.00  0.00     0.012 C
ENDBRANCH   1  31
TORSDOF 9
ENDMDL