MODEL 4
REMARK VINA RESULT: -7.697166420      4.857     11.018
REMARK  15 active torsions:
REMARK  status: ('A' for Active; 'I' for Inactive)
REMARK    1  A    between atoms: C2_2  and  O1_3
REMARK    2  A    between atoms: O1_3  and  C3_4
REMARK    3  A    between atoms: C3_4  and  C4_6
REMARK    4  A    between atoms: C4_6  and  N1_8
REMARK    5  A    between atoms: N1_8  and  C6_9
REMARK    6  A    between atoms: N1_8  and  C13_17
REMARK    7  A    between atoms: C6_9  and  C7_10
REMARK    8  A    between atoms: C7_10  and  C8_11
REMARK    9  A    between atoms: C8_11  and  N2_12
REMARK   10  A    between atoms: N2_12  and  C9_13
REMARK   11  A    between atoms: N2_12  and  C11_15
REMARK   12  A    between atoms: C13_17  and  O3_18
REMARK   13  A    between atoms: C13_17  and  C14_20
REMARK   14  A    between atoms: C17_25  and  N4_26
REMARK   15  A    between atoms: N4_26  and  C18_28
ROOT
HETATM    1  C14 UNL     1      18.474  33.051  38.049  1.00  0.00     0.043 C
HETATM    2  C15 UNL     1      19.387  33.844  38.719  1.00  0.00     0.035 C
HETATM    3  C16 UNL     1      20.817  33.955  38.257  1.00  0.00     0.069 C
HETATM    4  N3  UNL     1      19.144  34.455  39.981  1.00  0.00    -0.196 N
ATOM      5  H3  UNL     1      19.879  35.032  40.392  1.00  0.00     0.184 HD
HETATM    6  C17 UNL     1      18.061  34.316  40.618  1.00  0.00     0.675 C
HETATM    7  N5  UNL     1      17.120  33.451  40.009  1.00  0.00    -0.213 N
ATOM      8  H5  UNL     1      16.449  32.923  40.566  1.00  0.00     0.178 HD
HETATM    9  C27 UNL     1      17.146  33.343  38.546  1.00  0.00     0.073 C
HETATM   10  C28 UNL     1      16.898  34.850  38.084  1.00  0.00     0.044 C
HETATM   11  C29 UNL     1      15.898  32.700  38.187  1.00  0.00     0.044 C
ENDROOT
BRANCH   1  12
HETATM   12  C13 UNL     1      18.956  32.328  36.917  1.00  0.00     0.149 C
BRANCH  12  13
HETATM   13  N1  UNL     1      18.973  32.327  35.528  1.00  0.00    -0.348 N
BRANCH  13  14
HETATM   14  C4  UNL     1      18.271  31.451  34.656  1.00  0.00     0.182 C
HETATM   15  C5  UNL     1      19.155  30.514  33.842  1.00  0.00     0.043 C
BRANCH  14  16
HETATM   16  C3  UNL     1      17.375  32.217  33.698  1.00  0.00     0.281 C
HETATM   17  O2  UNL     1      17.716  32.264  32.509  1.00  0.00    -0.263 OA
BRANCH  16  18
HETATM   18  O1  UNL     1      16.240  32.832  34.125  1.00  0.00    -0.320 OA
BRANCH  18  19
HETATM   19  C2  UNL     1      15.090  32.170  34.612  1.00  0.00     0.174 C
HETATM   20  C1  UNL     1      14.029  33.104  35.111  1.00  0.00     0.034 C
ENDBRANCH  18  19
ENDBRANCH  16  18
ENDBRANCH  14  16
ENDBRANCH  13  14
BRANCH  13  21
HETATM   21  C6  UNL     1      19.855  33.334  34.859  1.00  0.00     0.127 C
BRANCH  21  22
HETATM   22  C7  UNL     1      21.280  33.040  34.802  1.00  0.00     0.050 C
BRANCH  22  23
HETATM   23  C8  UNL     1      22.206  33.883  34.008  1.00  0.00     0.274 C
BRANCH  23  24
HETATM   24  N2  UNL     1      23.540  33.879  34.588  1.00  0.00     0.087 N
BRANCH  24  25
HETATM   25  C9  UNL     1      24.610  33.762  33.664  1.00  0.00     0.268 C
HETATM   26  C10 UNL     1      24.056  34.131  32.288  1.00  0.00     0.037 C
ENDBRANCH  24  25
BRANCH  24  27
HETATM   27  C11 UNL     1      23.634  33.052  35.749  1.00  0.00     0.268 C
HETATM   28  C12 UNL     1      24.388  33.676  36.897  1.00  0.00     0.037 C
ENDBRANCH  24  27
ENDBRANCH  23  24
ENDBRANCH  22  23
ENDBRANCH  21  22
ENDBRANCH  13  21
ENDBRANCH  12  13
BRANCH  12  29
HETATM   29  O3  UNL     1      19.662  31.223  37.262  1.00  0.00    -0.346 OA
ATOM     30  H3  UNL     1      19.061  30.503  37.111  1.00  0.00     0.219 HD
ENDBRANCH  12  29
ENDBRANCH   1  12
BRANCH   6  31
HETATM   31  N4  UNL     1      17.744  34.893  41.877  1.00  0.00    -0.222 N
ATOM     32  H4  UNL     1      18.371  35.588  42.284  1.00  0.00     0.178 HD
BRANCH  31  33
HETATM   33  C18 UNL     1      16.551  34.510  42.586  1.00  0.00     0.103 C
HETATM   34  C19 UNL     1      16.829  34.317  44.053  1.00  0.00     0.069 C
HETATM   35  C20 UNL     1      15.627  34.881  44.784  1.00  0.00     0.122 C
HETATM   36 CL1  UNL     1      16.109  35.386  46.402  1.00  0.00    -0.101 Cl
HETATM   37 CL2  UNL     1      14.309  33.686  44.873  1.00  0.00    -0.101 Cl
HETATM   38  C21 UNL     1      15.240  36.037  43.899  1.00  0.00    -0.003 C
HETATM   39  C22 UNL     1      13.799  36.440  44.032  1.00  0.00     0.012 C
HETATM   40  C25 UNL     1      16.061  37.238  44.245  1.00  0.00     0.012 C
HETATM   41  C26 UNL     1      15.483  35.561  42.479  1.00  0.00     0.038 C
HETATM   42  C23 UNL     1      13.812  37.900  44.484  1.00  0.00     0.001 C
HETATM   43  C24 UNL     1      15.177  38.148  45.059  1.00  0.00     0.001 C
ENDBRANCH  31  33
ENDBRANCH   6  31
TORSDOF 15
ENDMDL