MODEL 4
REMARK VINA RESULT: -7.642987808      1.171      1.365
REMARK  11 active torsions:
REMARK  status: ('A' for Active; 'I' for Inactive)
REMARK    1  A    between atoms: C2_2  and  C3_3
REMARK    2  A    between atoms: C3_3  and  C4_4
REMARK    3  A    between atoms: C4_4  and  C5_5
REMARK    4  A    between atoms: C5_5  and  C6_6
REMARK    5  A    between atoms: C6_6  and  C7_7
REMARK    6  A    between atoms: C7_7  and  C8_8
REMARK    7  A    between atoms: C7_7  and  C12_17
REMARK       I    between atoms: C8_8  and  N1_10
REMARK    8  A    between atoms: C14_22  and  C15_23
REMARK    9  A    between atoms: C15_23  and  C17_25
REMARK   10  A    between atoms: C20_31  and  C21_32
REMARK   11  A    between atoms: C21_32  and  C22_33
ROOT
HETATM    1  C12 UNL     1      20.801  33.695  36.758  1.00  0.00     0.159 C
HETATM    2  N2  UNL     1      20.115  33.935  35.521  1.00  0.00    -0.345 N
ATOM      3  H2  UNL     1      20.306  34.828  35.069  1.00  0.00     0.163 HD
HETATM    4  C13 UNL     1      19.216  33.094  34.859  1.00  0.00     0.241 C
HETATM    5  O2  UNL     1      19.242  33.038  33.583  1.00  0.00    -0.271 OA
HETATM    6  C14 UNL     1      18.204  32.239  35.525  1.00  0.00     0.180 C
HETATM    7  N3  UNL     1      16.986  33.003  35.615  1.00  0.00    -0.347 N
ATOM      8  H3  UNL     1      16.673  33.505  34.785  1.00  0.00     0.163 HD
HETATM    9  C19 UNL     1      16.195  33.098  36.794  1.00  0.00     0.222 C
HETATM   10  O3  UNL     1      14.950  33.144  36.635  1.00  0.00    -0.273 OA
HETATM   11  C20 UNL     1      16.765  33.144  38.161  1.00  0.00     0.084 C
HETATM   12  C23 UNL     1      17.638  34.364  38.363  1.00  0.00     0.024 C
HETATM   13  C24 UNL     1      18.930  34.054  39.083  1.00  0.00     0.077 C
HETATM   14  S4  UNL     1      20.344  34.692  38.147  1.00  0.00    -0.143 SA
ENDROOT
BRANCH   1  15
HETATM   15  C7  UNL     1      22.306  33.631  36.553  1.00  0.00     0.111 C
BRANCH  15  16
HETATM   16  C6  UNL     1      23.119  34.297  37.597  1.00  0.00     0.017 C
BRANCH  16  17
HETATM   17  C5  UNL     1      24.611  34.219  37.438  1.00  0.00     0.001 C
BRANCH  17  18
HETATM   18  C4  UNL     1      25.305  34.957  38.576  1.00  0.00     0.000 C
BRANCH  18  19
HETATM   19  C3  UNL     1      24.438  36.028  39.175  1.00  0.00    -0.000 C
BRANCH  19  20
HETATM   20  C2  UNL     1      24.515  36.036  40.691  1.00  0.00    -0.005 C
HETATM   21  C1  UNL     1      23.809  34.821  41.244  1.00  0.00     0.005 C
ENDBRANCH  19  20
ENDBRANCH  18  19
ENDBRANCH  17  18
ENDBRANCH  16  17
ENDBRANCH  15  16
BRANCH  15  22
HETATM   22  C8  UNL     1      22.742  32.266  36.185  1.00  0.00     0.228 C
HETATM   23  O1  UNL     1      22.619  31.400  37.089  1.00  0.00    -0.273 OA
HETATM   24  N1  UNL     1      23.274  31.857  34.937  1.00  0.00    -0.333 N
HETATM   25  C9  UNL     1      23.405  32.849  33.911  1.00  0.00     0.207 C
HETATM   26  C11 UNL     1      23.632  30.474  34.804  1.00  0.00     0.207 C
HETATM   27  S1  UNL     1      23.365  32.163  32.214  1.00  0.00    -0.091 SA
HETATM   28  C10 UNL     1      24.664  30.933  32.177  1.00  0.00     0.107 C
HETATM   29  S2  UNL     1      25.259  30.496  31.006  1.00  0.00    -0.065 SA
HETATM   30  S3  UNL     1      25.132  30.308  33.787  1.00  0.00    -0.091 SA
ENDBRANCH  15  22
ENDBRANCH   1  15
BRANCH   6  31
HETATM   31  C15 UNL     1      18.094  30.864  35.024  1.00  0.00     0.013 C
HETATM   32  C16 UNL     1      19.501  30.278  34.783  1.00  0.00     0.012 C
BRANCH  31  33
HETATM   33  C17 UNL     1      17.256  30.568  33.847  1.00  0.00     0.002 C
HETATM   34  C18 UNL     1      17.923  29.699  32.810  1.00  0.00     0.005 C
ENDBRANCH  31  33
ENDBRANCH   6  31
BRANCH  11  35
HETATM   35  C21 UNL     1      15.631  33.089  39.147  1.00  0.00     0.085 C
BRANCH  35  36
HETATM   36  C22 UNL     1      15.615  34.242  40.111  1.00  0.00     0.354 C
HETATM   37  F1  UNL     1      15.824  33.807  41.391  1.00  0.00    -0.214 F
HETATM   38  F2  UNL     1      14.333  34.787  40.061  1.00  0.00    -0.214 F
ENDBRANCH  35  36
ENDBRANCH  11  35
TORSDOF 11
ENDMDL