MODEL 4
REMARK VINA RESULT: -8.058188805      1.469      2.219
REMARK  15 active torsions:
REMARK  status: ('A' for Active; 'I' for Inactive)
REMARK    1  A    between atoms: N1_2  and  C2_3
REMARK    2  A    between atoms: N1_2  and  C25_34
REMARK    3  A    between atoms: C2_3  and  C3_4
REMARK    4  A    between atoms: N2_7  and  C6_8
REMARK    5  A    between atoms: C6_8  and  C7_9
REMARK    6  A    between atoms: C7_9  and  O1_10
REMARK    7  A    between atoms: O1_10  and  C8_11
REMARK    8  A    between atoms: C8_11  and  C9_12
REMARK    9  A    between atoms: C9_12  and  O2_13
REMARK   10  A    between atoms: O2_13  and  C10_14
REMARK       I    between atoms: N3_21  and  C17_22
REMARK   11  A    between atoms: C17_22  and  O4_24
REMARK   12  A    between atoms: O4_24  and  C18_25
REMARK   13  A    between atoms: C24_31  and  O5_32
REMARK   14  A    between atoms: C25_34  and  C26_35
REMARK   15  A    between atoms: C26_35  and  C28_38
ROOT
HETATM    1  O1  UNL     1      21.152  34.795  37.496  1.00  0.00    -0.387 OA
ENDROOT
BRANCH   1   2
HETATM    2  C7  UNL     1      22.269  35.120  37.079  1.00  0.00     0.198 C
BRANCH   2   3
HETATM    3  C6  UNL     1      23.312  34.050  36.807  1.00  0.00     0.301 C
BRANCH   3   4
HETATM    4  N2  UNL     1      23.651  33.946  35.419  1.00  0.00     0.119 N
HETATM    5  C5  UNL     1      24.655  32.982  35.074  1.00  0.00     0.276 C
HETATM    6  C4  UNL     1      23.907  31.661  35.288  1.00  0.00     0.041 C
HETATM    7  C3  UNL     1      22.623  31.946  34.594  1.00  0.00     0.075 C
HETATM    8  C24 UNL     1      22.469  33.439  34.680  1.00  0.00     0.362 C
BRANCH   7   9
HETATM    9  C2  UNL     1      21.435  31.139  34.862  1.00  0.00     0.281 C
BRANCH   9  10
HETATM   10  N1  UNL     1      20.436  31.528  35.785  1.00  0.00     0.087 N
HETATM   11  C1  UNL     1      20.843  30.979  37.098  1.00  0.00     0.310 C
BRANCH  10  12
HETATM   12  C25 UNL     1      19.204  30.817  35.476  1.00  0.00     0.316 C
BRANCH  12  13
HETATM   13  C26 UNL     1      18.022  31.660  35.184  1.00  0.00     0.146 C
HETATM   14  C27 UNL     1      16.983  31.596  36.298  1.00  0.00     0.055 C
HETATM   15  F1  UNL     1      18.302  32.999  35.039  1.00  0.00    -0.239 F
BRANCH  13  16
HETATM   16  C28 UNL     1      17.447  31.232  33.844  1.00  0.00     0.067 C
HETATM   17  C29 UNL     1      15.952  31.127  33.988  1.00  0.00     0.036 C
HETATM   18  C30 UNL     1      17.720  32.240  32.760  1.00  0.00     0.036 C
HETATM   19 CL1  UNL     1      18.123  29.668  33.353  1.00  0.00    -0.116 Cl
ENDBRANCH  13  16
ENDBRANCH  12  13
ENDBRANCH  10  12
ENDBRANCH   9  10
ENDBRANCH   7   9
BRANCH   8  20
HETATM   20  O5  UNL     1      22.553  33.974  33.402  1.00  0.00    -0.367 OA
ATOM     21  H5  UNL     1      23.457  33.940  33.113  1.00  0.00     0.212 HD
ENDBRANCH   8  20
ENDBRANCH   3   4
ENDBRANCH   2   3
ENDBRANCH   1   2
BRANCH   1  22
HETATM   22  C8  UNL     1      20.042  34.412  37.903  1.00  0.00     0.194 C
BRANCH  22  23
HETATM   23  C9  UNL     1      18.916  35.475  37.854  1.00  0.00     0.201 C
BRANCH  23  24
HETATM   24  O2  UNL     1      17.723  34.933  38.231  1.00  0.00    -0.349 OA
BRANCH  24  25
HETATM   25  C10 UNL     1      17.106  34.478  39.319  1.00  0.00     0.069 A
HETATM   26  C11 UNL     1      15.988  33.686  39.316  1.00  0.00     0.037 A
HETATM   27  C12 UNL     1      15.455  33.269  40.521  1.00  0.00     0.010 A
HETATM   28  C13 UNL     1      16.003  33.622  41.729  1.00  0.00    -0.049 A
HETATM   29  C14 UNL     1      17.129  34.429  41.735  1.00  0.00    -0.031 A
HETATM   30  C23 UNL     1      15.479  33.155  43.035  1.00  0.00     0.059 C
HETATM   31  C15 UNL     1      17.659  34.839  40.566  1.00  0.00     0.046 A
HETATM   32  C16 UNL     1      17.638  34.821  43.102  1.00  0.00     0.167 C
HETATM   33  N3  UNL     1      16.419  35.238  43.811  1.00  0.00    -0.323 N
HETATM   34  C17 UNL     1      16.304  36.528  44.366  1.00  0.00     0.363 C
HETATM   35  C22 UNL     1      15.295  34.333  43.938  1.00  0.00     0.133 C
HETATM   36  O3  UNL     1      17.263  37.323  44.278  1.00  0.00    -0.238 OA
BRANCH  34  37
HETATM   37  O4  UNL     1      15.143  36.931  45.007  1.00  0.00    -0.294 OA
BRANCH  37  38
HETATM   38  C18 UNL     1      14.374  38.061  44.693  1.00  0.00     0.061 C
HETATM   39  C19 UNL     1      13.819  38.550  46.049  1.00  0.00     0.046 C
HETATM   40  C20 UNL     1      13.194  37.717  43.846  1.00  0.00     0.046 C
HETATM   41  C21 UNL     1      15.185  39.222  44.168  1.00  0.00     0.046 C
ENDBRANCH  37  38
ENDBRANCH  34  37
ENDBRANCH  24  25
ENDBRANCH  23  24
ENDBRANCH  22  23
ENDBRANCH   1  22
TORSDOF 15
ENDMDL