MODEL 1
REMARK VINA RESULT: -8.051794946      0.000      0.000
REMARK  15 active torsions:
REMARK  status: ('A' for Active; 'I' for Inactive)
REMARK    1  A    between atoms: C2_2  and  O2_4
REMARK    2  A    between atoms: O2_4  and  C3_5
REMARK    3  A    between atoms: C10_12  and  O3_13
REMARK    4  A    between atoms: C12_16  and  C13_17
REMARK    5  A    between atoms: C14_18  and  C15_19
REMARK    6  A    between atoms: C15_19  and  C16_20
REMARK    7  A    between atoms: C15_19  and  N1_23
REMARK    8  A    between atoms: N1_23  and  C19_24
REMARK    9  A    between atoms: N1_23  and  C21_27
REMARK   10  A    between atoms: C19_24  and  C20_25
REMARK   11  A    between atoms: C21_27  and  C22_28
REMARK   12  A    between atoms: C22_28  and  C23_29
REMARK   13  A    between atoms: C23_29  and  N2_30
REMARK   14  A    between atoms: C28_39  and  O4_40
REMARK   15  A    between atoms: O4_40  and  C29_41
ROOT
HETATM    1  C3  UNL     1      18.648  34.839  38.839  1.00  0.00     0.138 C
HETATM    2  C4  UNL     1      19.954  34.530  38.138  1.00  0.00     0.067 C
HETATM    3  C5  UNL     1      19.786  33.275  37.376  1.00  0.00    -0.070 C
HETATM    4  C6  UNL     1      20.698  32.390  37.732  1.00  0.00    -0.023 C
HETATM    5  C7  UNL     1      20.850  31.022  37.195  1.00  0.00     0.035 C
HETATM    6  C8  UNL     1      20.965  31.051  35.693  1.00  0.00     0.036 C
HETATM    7  C9  UNL     1      21.988  32.052  35.325  1.00  0.00     0.044 C
HETATM    8  C10 UNL     1      21.971  32.539  33.935  1.00  0.00     0.142 C
HETATM    9  C11 UNL     1      20.877  32.082  33.113  1.00  0.00     0.015 C
HETATM   10  C12 UNL     1      19.800  31.476  33.544  1.00  0.00    -0.020 C
HETATM   11  C24 UNL     1      19.641  31.188  34.985  1.00  0.00     0.135 C
HETATM   12  F1  UNL     1      19.194  29.823  34.952  1.00  0.00    -0.237 F
HETATM   13  C25 UNL     1      18.557  31.871  35.689  1.00  0.00     0.065 C
HETATM   14  C26 UNL     1      18.707  33.141  36.398  1.00  0.00     0.009 C
HETATM   15  C27 UNL     1      18.630  34.366  35.506  1.00  0.00     0.023 C
HETATM   16  C28 UNL     1      17.437  33.282  37.280  1.00  0.00     0.146 C
HETATM   17  C31 UNL     1      17.446  34.637  37.962  1.00  0.00     0.066 C
ENDROOT
BRANCH  10  18
HETATM   18  C13 UNL     1      18.816  31.098  32.550  1.00  0.00     0.008 C
HETATM   19  C14 UNL     1      18.863  30.165  31.632  1.00  0.00     0.009 C
BRANCH  19  20
HETATM   20  C15 UNL     1      17.799  29.881  30.677  1.00  0.00     0.249 C
BRANCH  20  21
HETATM   21  C16 UNL     1      17.408  28.405  30.600  1.00  0.00     0.014 C
HETATM   22  C17 UNL     1      17.756  27.625  31.816  1.00  0.00     0.012 C
HETATM   23  C18 UNL     1      15.884  28.353  30.425  1.00  0.00     0.012 C
ENDBRANCH  20  21
BRANCH  20  24
HETATM   24  N1  UNL     1      17.870  30.361  29.350  1.00  0.00     0.098 N
BRANCH  24  25
HETATM   25  C19 UNL     1      19.037  30.171  28.596  1.00  0.00     0.288 C
BRANCH  25  26
HETATM   26  C20 UNL     1      19.002  29.844  27.167  1.00  0.00     0.145 C
HETATM   27 CL1  UNL     1      17.551  28.764  26.952  1.00  0.00    -0.129 Cl
ENDBRANCH  25  26
ENDBRANCH  24  25
BRANCH  24  28
HETATM   28  C21 UNL     1      17.348  31.734  29.254  1.00  0.00     0.275 C
BRANCH  28  29
HETATM   29  C22 UNL     1      16.033  31.766  28.537  1.00  0.00     0.057 C
BRANCH  29  30
HETATM   30  C23 UNL     1      16.209  32.303  27.116  1.00  0.00     0.231 C
BRANCH  30  31
HETATM   31  N2  UNL     1      16.161  33.735  27.107  1.00  0.00    -0.079 N
ATOM     32  H23 UNL     1      15.205  34.081  27.187  1.00  0.00     0.274 HD
ATOM     33  H22 UNL     1      16.541  34.132  27.966  1.00  0.00     0.274 HD
ATOM     34  H21 UNL     1      16.629  34.106  26.279  1.00  0.00     0.274 HD
ENDBRANCH  30  31
ENDBRANCH  29  30
ENDBRANCH  28  29
ENDBRANCH  24  28
ENDBRANCH  20  24
ENDBRANCH  19  20
ENDBRANCH  10  18
BRANCH   8  35
HETATM   35  O3  UNL     1      21.998  33.962  33.874  1.00  0.00    -0.392 OA
ATOM     36  H3  UNL     1      21.172  34.316  33.568  1.00  0.00     0.210 HD
ENDBRANCH   8  35
BRANCH  16  37
HETATM   37  O4  UNL     1      16.259  33.124  36.572  1.00  0.00    -0.315 OA
BRANCH  37  38
HETATM   38  C29 UNL     1      15.095  32.787  37.255  1.00  0.00     0.255 C
HETATM   39  C30 UNL     1      13.743  32.818  36.665  1.00  0.00     0.126 C
HETATM   40  O5  UNL     1      15.140  32.420  38.480  1.00  0.00    -0.266 OA
ENDBRANCH  37  38
ENDBRANCH  16  37
BRANCH   1  41
HETATM   41  O2  UNL     1      18.549  34.096  40.046  1.00  0.00    -0.316 OA
BRANCH  41  42
HETATM   42  C2  UNL     1      17.572  34.354  41.004  1.00  0.00     0.255 C
HETATM   43  C1  UNL     1      16.731  33.289  41.587  1.00  0.00     0.126 C
HETATM   44  O1  UNL     1      17.380  35.541  41.405  1.00  0.00    -0.266 OA
ENDBRANCH  41  42
ENDBRANCH   1  41
TORSDOF 15
ENDMDL