MODEL 1
REMARK VINA RESULT: -8.495097316      0.000      0.000
REMARK  14 active torsions:
REMARK  status: ('A' for Active; 'I' for Inactive)
REMARK    1  A    between atoms: C2_2  and  O1_4
REMARK    2  A    between atoms: O1_4  and  C4_5
REMARK    3  A    between atoms: C4_5  and  C5_7
REMARK    4  A    between atoms: C5_7  and  N1_9
REMARK       I    between atoms: N1_9  and  C7_11
REMARK    5  A    between atoms: C7_11  and  C8_13
REMARK    6  A    between atoms: N2_16  and  C11_17
REMARK    7  A    between atoms: C11_17  and  C12_18
REMARK    8  A    between atoms: C12_18  and  C13_19
REMARK    9  A    between atoms: C13_19  and  C14_20
REMARK   10  A    between atoms: C14_20  and  O4_21
REMARK   11  A    between atoms: C14_20  and  C15_23
REMARK   12  A    between atoms: C16_24  and  O5_25
REMARK   13  A    between atoms: C19_29  and  C20_30
REMARK   14  A    between atoms: C27_38  and  C28_39
ROOT
HETATM    1  C14 UNL     1      21.272  33.766  38.421  1.00  0.00     0.057 C
ENDROOT
BRANCH   1   2
HETATM    2  C13 UNL     1      22.381  34.648  38.268  1.00  0.00     0.067 C
BRANCH   2   3
HETATM    3  C12 UNL     1      22.813  34.848  36.805  1.00  0.00     0.026 C
BRANCH   3   4
HETATM    4  C11 UNL     1      23.935  33.934  36.396  1.00  0.00     0.117 C
BRANCH   4   5
HETATM    5  N2  UNL     1      23.785  33.470  35.050  1.00  0.00    -0.412 N
HETATM    6  C10 UNL     1      24.942  33.550  34.231  1.00  0.00     0.117 C
HETATM    7  C9  UNL     1      24.836  32.836  32.927  1.00  0.00     0.033 C
HETATM    8  C8  UNL     1      23.462  32.879  32.328  1.00  0.00     0.081 C
HETATM    9  C31 UNL     1      22.623  33.955  32.973  1.00  0.00     0.033 C
HETATM   10  C30 UNL     1      22.528  33.694  34.439  1.00  0.00     0.117 C
BRANCH   8  11
HETATM   11  C7  UNL     1      22.865  31.533  32.457  1.00  0.00     0.222 C
HETATM   12  N1  UNL     1      21.560  31.257  31.961  1.00  0.00    -0.347 N
ATOM     13  H1  UNL     1      21.033  32.005  31.510  1.00  0.00     0.163 HD
HETATM   14  O3  UNL     1      23.486  30.578  33.013  1.00  0.00    -0.273 OA
BRANCH  12  15
HETATM   15  C5  UNL     1      20.958  29.942  32.076  1.00  0.00     0.180 C
HETATM   16  C6  UNL     1      19.984  30.021  33.258  1.00  0.00     0.043 C
BRANCH  15  17
HETATM   17  C4  UNL     1      20.257  29.587  30.828  1.00  0.00     0.281 C
HETATM   18  O2  UNL     1      20.912  29.416  29.786  1.00  0.00    -0.263 OA
BRANCH  17  19
HETATM   19  O1  UNL     1      18.891  29.442  30.801  1.00  0.00    -0.315 OA
BRANCH  19  20
HETATM   20  C2  UNL     1      18.101  30.229  29.928  1.00  0.00     0.123 C
HETATM   21  C1  UNL     1      16.787  29.558  29.586  1.00  0.00     0.040 C
HETATM   22  C3  UNL     1      17.796  31.528  30.628  1.00  0.00     0.040 C
ENDBRANCH  19  20
ENDBRANCH  17  19
ENDBRANCH  15  17
ENDBRANCH  12  15
ENDBRANCH   8  11
ENDBRANCH   4   5
ENDBRANCH   3   4
ENDBRANCH   2   3
ENDBRANCH   1   2
BRANCH   1  23
HETATM   23  O4  UNL     1      20.899  33.798  39.737  1.00  0.00    -0.364 OA
ATOM     24  H4  UNL     1      20.013  33.458  39.791  1.00  0.00     0.217 HD
ENDBRANCH   1  23
BRANCH   1  25
HETATM   25  C15 UNL     1      20.411  32.880  37.715  1.00  0.00     0.039 A
HETATM   26  C16 UNL     1      20.911  31.552  37.465  1.00  0.00     0.079 A
HETATM   27  C17 UNL     1      20.107  30.616  36.898  1.00  0.00     0.038 A
HETATM   28  C18 UNL     1      18.830  30.869  36.550  1.00  0.00     0.017 A
HETATM   29  C19 UNL     1      18.286  32.176  36.780  1.00  0.00     0.003 A
HETATM   30  C27 UNL     1      19.093  33.115  37.330  1.00  0.00     0.040 A
BRANCH  26  31
HETATM   31  O5  UNL     1      22.228  31.256  37.816  1.00  0.00    -0.360 OA
ATOM     32  H5  UNL     1      22.678  30.560  37.351  1.00  0.00     0.217 HD
ENDBRANCH  26  31
BRANCH  29  33
HETATM   33  C20 UNL     1      16.885  32.295  36.470  1.00  0.00     0.037 C
HETATM   34  C21 UNL     1      16.070  32.574  37.488  1.00  0.00     0.003 C
HETATM   35  C22 UNL     1      14.627  32.778  37.627  1.00  0.00     0.029 C
HETATM   36  C23 UNL     1      13.957  33.105  36.307  1.00  0.00     0.005 C
HETATM   37  C24 UNL     1      14.102  31.893  35.418  1.00  0.00     0.020 C
HETATM   38  C25 UNL     1      15.218  32.160  34.441  1.00  0.00     0.122 C
HETATM   39  N3  UNL     1      16.482  32.372  35.114  1.00  0.00    -0.385 N
HETATM   40  C26 UNL     1      17.520  32.813  34.154  1.00  0.00     0.149 C
ENDBRANCH  29  33
BRANCH  30  41
HETATM   41  C28 UNL     1      18.644  34.538  37.203  1.00  0.00     0.269 C
HETATM   42  C29 UNL     1      17.872  34.829  38.519  1.00  0.00     0.096 C
HETATM   43  F1  UNL     1      18.037  34.972  36.143  1.00  0.00    -0.201 F
HETATM   44  F2  UNL     1      19.759  35.410  37.465  1.00  0.00    -0.201 F
ENDBRANCH  30  41
ENDBRANCH   1  25
TORSDOF 14
ENDMDL