MODEL 3
REMARK VINA RESULT: -8.429239822      4.301      8.727
REMARK  13 active torsions:
REMARK  status: ('A' for Active; 'I' for Inactive)
REMARK    1  A    between atoms: C2_2  and  C3_3
REMARK    2  A    between atoms: C2_2  and  C24_37
REMARK    3  A    between atoms: C3_3  and  C4_4
REMARK    4  A    between atoms: C4_4  and  C5_5
REMARK       I    between atoms: C5_5  and  N1_7
REMARK    5  A    between atoms: C6_9  and  C7_10
REMARK    6  A    between atoms: C6_9  and  C12_16
REMARK    7  A    between atoms: C7_10  and  C8_11
REMARK    8  A    between atoms: C12_16  and  O3_18
REMARK    9  A    between atoms: O3_18  and  C13_19
REMARK   10  A    between atoms: C13_19  and  C14_20
REMARK   11  A    between atoms: C14_20  and  C15_21
REMARK   12  A    between atoms: C18_27  and  C19_28
REMARK   13  A    between atoms: C19_28  and  N2_29
ROOT
HETATM    1  C5  UNL     1      15.917  35.606  42.331  1.00  0.00     0.231 C
HETATM    2  O1  UNL     1      14.772  35.669  41.830  1.00  0.00    -0.272 OA
HETATM    3  N1  UNL     1      17.017  35.375  41.490  1.00  0.00    -0.325 N
ATOM      4  H1  UNL     1      17.738  36.096  41.494  1.00  0.00     0.169 HD
HETATM    5  C6  UNL     1      17.232  34.380  40.720  1.00  0.00     0.092 C
ENDROOT
BRANCH   5   6
HETATM    6  C7  UNL     1      16.287  33.289  40.622  1.00  0.00     0.109 C
BRANCH   6   7
HETATM    7  C8  UNL     1      15.586  33.128  39.337  1.00  0.00    -0.012 A
HETATM    8  C9  UNL     1      15.885  32.464  38.189  1.00  0.00     0.015 A
HETATM    9  C10 UNL     1      15.001  32.540  37.173  1.00  0.00     0.008 A
HETATM   10  C11 UNL     1      13.870  33.286  37.386  1.00  0.00     0.050 A
HETATM   11  S1  UNL     1      14.089  33.844  38.987  1.00  0.00    -0.106 SA
ENDBRANCH   6   7
ENDBRANCH   5   6
BRANCH   5  12
HETATM   12  C12 UNL     1      18.458  34.385  39.938  1.00  0.00     0.306 C
HETATM   13  O2  UNL     1      19.456  33.672  40.227  1.00  0.00    -0.258 OA
BRANCH  12  14
HETATM   14  O3  UNL     1      18.612  35.185  38.806  1.00  0.00    -0.316 OA
BRANCH  14  15
HETATM   15  C13 UNL     1      18.449  34.632  37.507  1.00  0.00     0.184 C
BRANCH  15  16
HETATM   16  C14 UNL     1      19.225  33.370  37.378  1.00  0.00     0.074 C
BRANCH  16  17
HETATM   17  C15 UNL     1      20.421  33.558  36.482  1.00  0.00    -0.003 A
HETATM   18  S2  UNL     1      20.422  33.546  34.767  1.00  0.00    -0.083 SA
HETATM   19  C16 UNL     1      22.080  33.786  34.494  1.00  0.00     0.091 A
HETATM   20 BR1  UNL     1      23.039  33.914  32.821  1.00  0.00    -0.040 Br
HETATM   21  C17 UNL     1      22.596  33.871  35.761  1.00  0.00     0.149 A
HETATM   22  F1  UNL     1      23.964  34.072  35.926  1.00  0.00    -0.203 F
HETATM   23  C18 UNL     1      21.740  33.753  36.785  1.00  0.00     0.021 A
BRANCH  23  24
HETATM   24  C19 UNL     1      22.165  33.849  38.241  1.00  0.00     0.272 C
BRANCH  24  25
HETATM   25  N2  UNL     1      21.876  35.125  38.807  1.00  0.00    -0.075 N
ATOM     26  H23 UNL     1      22.266  35.877  38.239  1.00  0.00     0.274 HD
ATOM     27  H22 UNL     1      20.886  35.351  38.719  1.00  0.00     0.274 HD
ATOM     28  H21 UNL     1      22.185  35.198  39.777  1.00  0.00     0.274 HD
ENDBRANCH  24  25
ENDBRANCH  23  24
ENDBRANCH  16  17
ENDBRANCH  15  16
ENDBRANCH  14  15
ENDBRANCH  12  14
ENDBRANCH   5  12
BRANCH   1  29
HETATM   29  C4  UNL     1      16.055  35.780  43.817  1.00  0.00     0.042 C
HETATM   30  C20 UNL     1      14.691  35.380  44.461  1.00  0.00     0.019 C
HETATM   31  C21 UNL     1      14.754  33.930  44.756  1.00  0.00     0.001 C
HETATM   32  C22 UNL     1      16.196  33.578  44.862  1.00  0.00     0.001 C
HETATM   33  C23 UNL     1      16.991  34.758  44.335  1.00  0.00     0.019 C
BRANCH  29  34
HETATM   34  C3  UNL     1      16.253  37.181  44.238  1.00  0.00     0.034 C
BRANCH  34  35
HETATM   35  C2  UNL     1      15.169  37.933  44.902  1.00  0.00     0.084 C
HETATM   36  C1  UNL     1      15.863  39.216  45.463  1.00  0.00     0.021 C
BRANCH  35  37
HETATM   37  C24 UNL     1      14.120  38.447  44.003  1.00  0.00     0.176 C
HETATM   38  O4  UNL     1      14.366  39.504  43.324  1.00  0.00    -0.648 OA
HETATM   39  O5  UNL     1      12.868  37.859  43.836  1.00  0.00    -0.648 OA
ENDBRANCH  35  37
ENDBRANCH  34  35
ENDBRANCH  29  34
ENDBRANCH   1  29
TORSDOF 13
ENDMDL