MODEL 1
REMARK VINA RESULT: -7.526967303      0.000      0.000
REMARK  15 active torsions:
REMARK  status: ('A' for Active; 'I' for Inactive)
REMARK    1  A    between atoms: C2_2  and  C3_3
REMARK    2  A    between atoms: C3_3  and  C4_4
REMARK    3  A    between atoms: C4_4  and  C5_5
REMARK    4  A    between atoms: C5_5  and  C6_6
REMARK    5  A    between atoms: C6_6  and  O2_8
REMARK    6  A    between atoms: O2_8  and  C7_9
REMARK    7  A    between atoms: C9_11  and  O3_12
REMARK    8  A    between atoms: O3_12  and  C10_13
REMARK    9  A    between atoms: C14_18  and  O5_19
REMARK   10  A    between atoms: C16_23  and  N1_24
REMARK   11  A    between atoms: N1_24  and  C17_25
REMARK   12  A    between atoms: N1_24  and  C19_27
REMARK   13  A    between atoms: C19_27  and  C20_28
REMARK   14  A    between atoms: C20_28  and  C21_29
REMARK   15  A    between atoms: C23_32  and  O6_33
ROOT
HETATM    1  C7  UNL     1      19.148  33.567  38.814  1.00  0.00     0.142 C
HETATM    2  C8  UNL     1      20.491  32.996  39.060  1.00  0.00     0.066 C
HETATM    3  C9  UNL     1      21.596  33.497  38.135  1.00  0.00     0.139 C
HETATM    4  C12 UNL     1      21.202  33.636  36.725  1.00  0.00     0.030 C
HETATM    5  C13 UNL     1      19.781  33.210  36.423  1.00  0.00     0.034 C
HETATM    6  C14 UNL     1      19.649  31.743  36.363  1.00  0.00     0.159 C
HETATM    7  C15 UNL     1      19.388  31.263  34.929  1.00  0.00     0.232 C
HETATM    8  F1  UNL     1      18.815  29.983  34.994  1.00  0.00    -0.244 F
HETATM    9  C16 UNL     1      20.707  31.119  34.159  1.00  0.00     0.262 C
HETATM   10  C22 UNL     1      20.994  32.441  33.552  1.00  0.00     0.077 C
HETATM   11  C23 UNL     1      21.846  33.371  34.306  1.00  0.00     0.067 C
HETATM   12  C24 UNL     1      23.217  33.399  33.624  1.00  0.00     0.016 C
HETATM   13  C25 UNL     1      23.194  34.141  32.311  1.00  0.00     0.013 C
HETATM   14  C26 UNL     1      24.172  33.962  34.606  1.00  0.00     0.007 C
HETATM   15  C27 UNL     1      23.459  33.881  35.911  1.00  0.00     0.009 C
HETATM   16  C28 UNL     1      22.183  33.079  35.719  1.00  0.00     0.027 C
HETATM   17  C29 UNL     1      18.845  33.902  37.384  1.00  0.00    -0.014 C
HETATM   18  C30 UNL     1      18.928  35.386  37.072  1.00  0.00     0.018 C
HETATM   19  C31 UNL     1      17.408  33.528  37.070  1.00  0.00     0.018 C
ENDROOT
BRANCH   1  20
HETATM   20  O2  UNL     1      18.754  34.601  39.669  1.00  0.00    -0.315 OA
BRANCH  20  21
HETATM   21  C6  UNL     1      17.737  34.616  40.555  1.00  0.00     0.259 C
HETATM   22  O1  UNL     1      17.516  35.648  41.173  1.00  0.00    -0.265 OA
BRANCH  21  23
HETATM   23  C5  UNL     1      16.915  33.418  40.770  1.00  0.00     0.111 C
BRANCH  23  24
HETATM   24  C4  UNL     1      15.747  33.569  41.672  1.00  0.00     0.010 C
BRANCH  24  25
HETATM   25  C3  UNL     1      15.396  32.333  42.446  1.00  0.00     0.000 C
BRANCH  25  26
HETATM   26  C2  UNL     1      14.947  32.744  43.851  1.00  0.00    -0.005 C
HETATM   27  C1  UNL     1      15.657  34.022  44.244  1.00  0.00     0.005 C
ENDBRANCH  25  26
ENDBRANCH  24  25
ENDBRANCH  23  24
ENDBRANCH  21  23
ENDBRANCH  20  21
ENDBRANCH   1  20
BRANCH   3  28
HETATM   28  O3  UNL     1      22.085  34.698  38.694  1.00  0.00    -0.316 OA
BRANCH  28  29
HETATM   29  C10 UNL     1      23.207  34.716  39.480  1.00  0.00     0.255 C
HETATM   30  C11 UNL     1      24.527  35.217  38.989  1.00  0.00     0.126 C
HETATM   31  O4  UNL     1      23.168  34.304  40.665  1.00  0.00    -0.266 OA
ENDBRANCH  28  29
ENDBRANCH   3  28
BRANCH   6  32
HETATM   32  O5  UNL     1      18.567  31.226  37.078  1.00  0.00    -0.392 OA
ATOM     33  H5  UNL     1      17.920  30.776  36.547  1.00  0.00     0.210 HD
ENDBRANCH   6  32
BRANCH  11  34
HETATM   34  O6  UNL     1      21.383  34.698  34.231  1.00  0.00    -0.389 OA
ATOM     35  H6  UNL     1      22.090  35.319  34.099  1.00  0.00     0.210 HD
ENDBRANCH  11  34
BRANCH   9  36
HETATM   36  N1  UNL     1      20.376  30.168  33.093  1.00  0.00     0.095 N
BRANCH  36  37
HETATM   37  C17 UNL     1      19.595  30.805  32.060  1.00  0.00     0.268 C
HETATM   38  C18 UNL     1      19.216  29.758  31.039  1.00  0.00     0.037 C
ENDBRANCH  36  37
BRANCH  36  39
HETATM   39  C19 UNL     1      21.495  29.519  32.532  1.00  0.00     0.274 C
BRANCH  39  40
HETATM   40  C20 UNL     1      22.734  29.542  33.402  1.00  0.00     0.045 C
BRANCH  40  41
HETATM   41  C21 UNL     1      23.879  29.984  32.478  1.00  0.00     0.116 C
HETATM   42 CL1  UNL     1      23.273  30.751  31.012  1.00  0.00    -0.130 Cl
ENDBRANCH  40  41
ENDBRANCH  39  40
ENDBRANCH  36  39
ENDBRANCH   9  36
TORSDOF 15
ENDMDL