MODEL 4
REMARK VINA RESULT: -8.998352401      7.613     12.662
REMARK  14 active torsions:
REMARK  status: ('A' for Active; 'I' for Inactive)
REMARK    1  A    between atoms: C6_6  and  C7_7
REMARK    2  A    between atoms: C7_7  and  C10_10
REMARK    3  A    between atoms: C12_15  and  C13_16
REMARK    4  A    between atoms: N1_17  and  N2_19
REMARK       I    between atoms: N2_19  and  C14_21
REMARK    5  A    between atoms: C14_21  and  C15_23
REMARK    6  A    between atoms: C15_23  and  S1_24
REMARK    7  A    between atoms: S1_24  and  C16_25
REMARK    8  A    between atoms: C17_30  and  C18_31
REMARK    9  A    between atoms: C18_31  and  O2_32
REMARK   10  A    between atoms: N5_34  and  C19_35
REMARK   11  A    between atoms: C19_35  and  C20_36
REMARK   12  A    between atoms: C20_36  and  C21_37
REMARK   13  A    between atoms: C21_37  and  C22_38
REMARK   14  A    between atoms: C22_38  and  C23_39
REMARK       I    between atoms: C23_39  and  N6_41
ROOT
HETATM    1  C15 UNL     1      17.247  31.227  34.346  1.00  0.00     0.186 C
ENDROOT
BRANCH   1   2
HETATM    2  C14 UNL     1      17.476  30.679  32.979  1.00  0.00     0.245 C
HETATM    3  N2  UNL     1      17.441  31.576  31.881  1.00  0.00    -0.270 N
ATOM      4  H2  UNL     1      17.261  32.562  32.067  1.00  0.00     0.190 HD
HETATM    5  O1  UNL     1      17.696  29.464  32.777  1.00  0.00    -0.271 OA
BRANCH   3   6
HETATM    6  N1  UNL     1      17.639  31.181  30.568  1.00  0.00    -0.308 N
HETATM    7  C13 UNL     1      16.844  31.383  29.612  1.00  0.00     0.119 C
ATOM      8  H1  UNL     1      18.503  30.682  30.357  1.00  0.00     0.186 HD
BRANCH   7   9
HETATM    9  C12 UNL     1      17.118  30.939  28.252  1.00  0.00    -0.013 A
HETATM   10  C2  UNL     1      16.875  31.780  27.195  1.00  0.00    -0.050 A
HETATM   11  C1  UNL     1      16.346  33.168  27.330  1.00  0.00     0.049 C
HETATM   12  C3  UNL     1      17.154  31.285  25.944  1.00  0.00     0.015 A
HETATM   13  C4  UNL     1      17.664  29.992  25.705  1.00  0.00    -0.054 A
HETATM   14  C5  UNL     1      17.854  29.572  24.327  1.00  0.00     0.049 C
HETATM   15  C6  UNL     1      17.911  29.149  26.744  1.00  0.00    -0.035 A
HETATM   16  C11 UNL     1      17.622  29.659  28.024  1.00  0.00     0.022 A
BRANCH  15  17
HETATM   17  C7  UNL     1      18.485  27.852  26.682  1.00  0.00     0.078 C
HETATM   18  C8  UNL     1      18.315  27.191  28.101  1.00  0.00     0.029 C
HETATM   19  C9  UNL     1      18.151  26.816  25.735  1.00  0.00     0.029 C
BRANCH  17  20
HETATM   20  C10 UNL     1      20.030  27.970  26.686  1.00  0.00     0.398 C
HETATM   21  F1  UNL     1      20.406  29.302  26.716  1.00  0.00    -0.170 F
HETATM   22  F2  UNL     1      20.613  27.378  25.645  1.00  0.00    -0.170 F
HETATM   23  F3  UNL     1      20.505  27.415  27.882  1.00  0.00    -0.170 F
ENDBRANCH  17  20
ENDBRANCH  15  17
ENDBRANCH   7   9
ENDBRANCH   3   6
ENDBRANCH   1   2
BRANCH   1  24
HETATM   24  S1  UNL     1      17.451  33.007  34.379  1.00  0.00    -0.083 SA
BRANCH  24  25
HETATM   25  C16 UNL     1      18.688  33.563  35.541  1.00  0.00     0.163 A
HETATM   26  N3  UNL     1      19.784  34.241  35.186  1.00  0.00    -0.278 N
HETATM   27  N4  UNL     1      20.468  34.505  36.282  1.00  0.00    -0.285 N
ATOM     28  H3  UNL     1      20.045  34.507  34.236  1.00  0.00     0.189 HD
HETATM   29  C17 UNL     1      19.813  33.996  37.337  1.00  0.00     0.124 A
ATOM     30  H4  UNL     1      21.353  35.012  36.321  1.00  0.00     0.188 HD
HETATM   31  N5  UNL     1      18.710  33.412  36.865  1.00  0.00    -0.313 N
BRANCH  29  32
HETATM   32  C18 UNL     1      20.258  34.072  38.780  1.00  0.00     0.242 C
BRANCH  32  33
HETATM   33  O2  UNL     1      21.438  34.783  38.879  1.00  0.00    -0.393 OA
ATOM     34  H2  UNL     1      21.259  35.715  38.914  1.00  0.00     0.209 HD
ENDBRANCH  32  33
ENDBRANCH  29  32
BRANCH  31  35
HETATM   35  C19 UNL     1      17.709  32.720  37.656  1.00  0.00     0.133 C
BRANCH  35  36
HETATM   36  C20 UNL     1      16.507  33.609  37.920  1.00  0.00     0.021 C
BRANCH  36  37
HETATM   37  C21 UNL     1      15.836  33.294  39.234  1.00  0.00     0.011 C
BRANCH  37  38
HETATM   38  C22 UNL     1      16.717  33.702  40.398  1.00  0.00     0.103 C
BRANCH  38  39
HETATM   39  C23 UNL     1      16.077  33.378  41.685  1.00  0.00     0.219 C
HETATM   40  O3  UNL     1      15.214  32.428  41.703  1.00  0.00    -0.273 OA
HETATM   41  N6  UNL     1      16.338  34.031  42.912  1.00  0.00    -0.352 N
HETATM   42  C24 UNL     1      17.286  35.121  42.927  1.00  0.00     0.125 C
HETATM   43  C28 UNL     1      15.645  33.581  44.102  1.00  0.00     0.125 C
HETATM   44  C25 UNL     1      16.840  36.254  43.823  1.00  0.00     0.020 C
HETATM   45  C26 UNL     1      16.176  35.746  45.083  1.00  0.00     0.003 C
HETATM   46  C27 UNL     1      15.042  34.790  44.765  1.00  0.00     0.020 C
ENDBRANCH  38  39
ENDBRANCH  37  38
ENDBRANCH  36  37
ENDBRANCH  35  36
ENDBRANCH  31  35
ENDBRANCH  24  25
ENDBRANCH   1  24
TORSDOF 14
ENDMDL