MODEL 3
REMARK VINA RESULT: -8.544399568      2.766      6.224
REMARK  17 active torsions:
REMARK  status: ('A' for Active; 'I' for Inactive)
REMARK    1  A    between atoms: O1_2  and  C2_3
REMARK    2  A    between atoms: C2_3  and  C3_5
REMARK    3  A    between atoms: C3_5  and  C5_7
REMARK    4  A    between atoms: C7_9  and  C8_10
REMARK    5  A    between atoms: C8_10  and  O3_11
REMARK    6  A    between atoms: N1_13  and  O4_15
REMARK       I    between atoms: N2_17  and  C9_18
REMARK    7  A    between atoms: C9_18  and  C10_20
REMARK    8  A    between atoms: C10_20  and  N3_23
REMARK    9  A    between atoms: N3_23  and  N4_25
REMARK   10  A    between atoms: N4_25  and  N5_26
REMARK   11  A    between atoms: C14_30  and  C15_31
REMARK   12  A    between atoms: C15_31  and  C16_32
REMARK   13  A    between atoms: C16_32  and  C17_33
REMARK   14  A    between atoms: C17_33  and  C18_34
REMARK   15  A    between atoms: C21_37  and  S1_38
REMARK   16  A    between atoms: S1_38  and  C22_39
REMARK   17  A    between atoms: C22_39  and  C23_40
ROOT
HETATM    1  C5  UNL     1      18.429  30.715  31.602  1.00  0.00     0.015 C
HETATM    2  C6  UNL     1      18.654  30.699  32.894  1.00  0.00     0.037 C
HETATM    3  C7  UNL     1      19.888  30.152  33.628  1.00  0.00     0.215 C
HETATM    4  N2  UNL     1      20.086  31.346  34.492  1.00  0.00    -0.310 N
HETATM    5  C9  UNL     1      21.394  31.772  34.812  1.00  0.00     0.252 C
HETATM    6  O5  UNL     1      22.361  30.991  34.462  1.00  0.00    -0.270 OA
HETATM    7  C13 UNL     1      18.818  31.859  34.883  1.00  0.00     0.196 C
HETATM    8  C14 UNL     1      17.971  31.255  35.925  1.00  0.00     0.046 C
HETATM    9  C27 UNL     1      16.790  31.540  34.897  1.00  0.00     0.133 C
HETATM   10  N6  UNL     1      17.837  31.164  33.935  1.00  0.00    -0.360 N
ENDROOT
BRANCH   8  11
HETATM   11  C15 UNL     1      17.571  31.886  37.187  1.00  0.00     0.010 C
BRANCH  11  12
HETATM   12  C16 UNL     1      16.799  33.153  37.157  1.00  0.00     0.005 C
BRANCH  12  13
HETATM   13  C17 UNL     1      15.681  33.093  38.184  1.00  0.00     0.038 C
BRANCH  13  14
HETATM   14  C18 UNL     1      16.042  33.652  39.490  1.00  0.00    -0.058 A
HETATM   15  C19 UNL     1      15.451  33.156  40.629  1.00  0.00     0.008 A
HETATM   16  C20 UNL     1      15.804  33.703  41.853  1.00  0.00     0.019 A
HETATM   17  C21 UNL     1      16.711  34.717  42.021  1.00  0.00     0.000 A
HETATM   18  C25 UNL     1      17.307  35.213  40.849  1.00  0.00     0.019 A
HETATM   19  C26 UNL     1      16.970  34.684  39.631  1.00  0.00     0.008 A
BRANCH  17  20
HETATM   20  S1  UNL     1      17.125  35.443  43.587  1.00  0.00    -0.124 SA
BRANCH  20  21
HETATM   21  C22 UNL     1      16.003  36.667  44.200  1.00  0.00     0.158 C
BRANCH  21  22
HETATM   22  C23 UNL     1      14.549  36.324  44.150  1.00  0.00     0.248 C
HETATM   23  C24 UNL     1      13.708  37.329  44.931  1.00  0.00     0.091 C
HETATM   24  F1  UNL     1      14.063  36.431  42.827  1.00  0.00    -0.206 F
HETATM   25  F2  UNL     1      14.326  35.070  44.636  1.00  0.00    -0.206 F
ENDBRANCH  21  22
ENDBRANCH  20  21
ENDBRANCH  17  20
ENDBRANCH  13  14
ENDBRANCH  12  13
ENDBRANCH  11  12
ENDBRANCH   8  11
BRANCH   3  26
HETATM   26  C8  UNL     1      20.955  29.893  32.692  1.00  0.00     0.165 C
HETATM   27  N1  UNL     1      21.497  28.733  32.621  1.00  0.00    -0.249 N
ATOM     28  H1  UNL     1      21.160  27.995  33.240  1.00  0.00     0.196 HD
BRANCH  26  29
HETATM   29  O3  UNL     1      21.420  30.883  31.849  1.00  0.00    -0.346 OA
ATOM     30  H3  UNL     1      21.011  31.040  31.006  1.00  0.00     0.219 HD
ENDBRANCH  26  29
BRANCH  27  31
HETATM   31  O4  UNL     1      22.503  28.448  31.755  1.00  0.00    -0.288 OA
ATOM     32  H4  UNL     1      22.351  28.284  30.831  1.00  0.00     0.244 HD
ENDBRANCH  27  31
ENDBRANCH   3  26
BRANCH   5  33
HETATM   33  C10 UNL     1      21.791  33.017  35.501  1.00  0.00     0.133 C
HETATM   34  C11 UNL     1      23.291  32.987  35.762  1.00  0.00     0.051 C
HETATM   35  C12 UNL     1      21.586  34.226  34.564  1.00  0.00     0.051 C
BRANCH  33  36
HETATM   36  N3  UNL     1      21.081  33.326  36.690  1.00  0.00    -0.234 N
ATOM     37  H3  UNL     1      20.711  32.540  37.223  1.00  0.00     0.198 HD
BRANCH  36  38
HETATM   38  N4  UNL     1      20.870  34.443  37.136  1.00  0.00    -0.247 NA
BRANCH  38  39
HETATM   39  N5  UNL     1      20.368  35.363  37.805  1.00  0.00    -0.261 N
ATOM     40  H52 UNL     1      19.507  35.441  37.263  1.00  0.00     0.193 HD
ATOM     41  H51 UNL     1      20.252  36.077  38.525  1.00  0.00     0.193 HD
ENDBRANCH  38  39
ENDBRANCH  36  38
ENDBRANCH  33  36
ENDBRANCH   5  33
BRANCH   1  42
HETATM   42  C3  UNL     1      17.191  31.278  31.064  1.00  0.00     0.106 C
HETATM   43  C4  UNL     1      17.399  32.014  29.753  1.00  0.00     0.025 C
BRANCH  42  44
HETATM   44  C2  UNL     1      16.222  30.194  30.824  1.00  0.00     0.265 C
HETATM   45  O2  UNL     1      15.119  30.458  30.248  1.00  0.00    -0.265 OA
BRANCH  44  46
HETATM   46  O1  UNL     1      16.440  28.884  31.193  1.00  0.00    -0.326 OA
HETATM   47  C1  UNL     1      16.225  27.843  30.252  1.00  0.00     0.213 C
ENDBRANCH  44  46
ENDBRANCH  42  44
ENDBRANCH   1  42
TORSDOF 17
ENDMDL