MODEL 2
REMARK VINA RESULT: -9.344163264      2.496      4.677
REMARK  10 active torsions:
REMARK  status: ('A' for Active; 'I' for Inactive)
REMARK    1  A    between atoms: C2_2  and  C4_4
REMARK    2  A    between atoms: C4_4  and  C5_5
REMARK    3  A    between atoms: C12_14  and  C13_15
REMARK       I    between atoms: C13_15  and  N1_17
REMARK    4  A    between atoms: C18_23  and  C19_24
REMARK    5  A    between atoms: C19_24  and  C20_25
REMARK    6  A    between atoms: C20_25  and  C21_26
REMARK    7  A    between atoms: C21_26  and  C22_27
REMARK    8  A    between atoms: C22_27  and  C23_28
REMARK    9  A    between atoms: C23_28  and  C24_29
REMARK   10  A    between atoms: C24_29  and  N3_30
ROOT
HETATM    1  C4  UNL     1      17.651  31.646  35.426  1.00  0.00     0.008 C
HETATM    2  C11 UNL     1      18.557  30.874  36.319  1.00  0.00     0.051 C
HETATM    3  C12 UNL     1      19.504  31.891  36.990  1.00  0.00     0.176 C
HETATM    4  N2  UNL     1      19.260  33.105  36.414  1.00  0.00    -0.379 N
HETATM    5  C18 UNL     1      19.841  34.329  36.496  1.00  0.00     0.059 C
HETATM    6  C30 UNL     1      17.972  33.083  35.736  1.00  0.00     0.137 C
ENDROOT
BRANCH   3   7
HETATM    7  C13 UNL     1      20.904  31.397  36.920  1.00  0.00     0.242 C
HETATM    8  O1  UNL     1      21.460  31.023  37.989  1.00  0.00    -0.271 OA
HETATM    9  N1  UNL     1      21.636  31.328  35.721  1.00  0.00    -0.350 N
HETATM   10  C14 UNL     1      23.037  30.831  35.617  1.00  0.00     0.126 C
HETATM   11  C17 UNL     1      21.340  31.678  34.349  1.00  0.00     0.126 C
HETATM   12  C15 UNL     1      23.672  31.980  34.840  1.00  0.00     0.021 C
HETATM   13  C16 UNL     1      22.534  32.605  34.020  1.00  0.00     0.021 C
ENDBRANCH   3   7
BRANCH   5  14
HETATM   14  C19 UNL     1      19.776  35.163  37.734  1.00  0.00     0.044 C
BRANCH  14  15
HETATM   15  C20 UNL     1      18.464  35.826  38.011  1.00  0.00     0.005 C
BRANCH  15  16
HETATM   16  C21 UNL     1      17.493  34.832  38.671  1.00  0.00     0.000 C
BRANCH  16  17
HETATM   17  C22 UNL     1      18.144  34.163  39.850  1.00  0.00     0.002 C
BRANCH  17  18
HETATM   18  C23 UNL     1      17.759  34.972  41.122  1.00  0.00     0.020 C
BRANCH  18  19
HETATM   19  C24 UNL     1      16.673  34.274  41.846  1.00  0.00     0.128 C
BRANCH  19  20
HETATM   20  N3  UNL     1      15.815  35.040  42.696  1.00  0.00    -0.329 N
HETATM   21  C25 UNL     1      14.722  35.740  42.037  1.00  0.00     0.194 A
HETATM   22  N4  UNL     1      14.518  35.527  40.639  1.00  0.00    -0.063 NA
HETATM   23  N5  UNL     1      13.944  36.517  42.669  1.00  0.00    -0.305 N
HETATM   24  C26 UNL     1      14.054  36.769  44.066  1.00  0.00     0.192 A
ATOM     25  H5  UNL     1      13.202  36.986  42.150  1.00  0.00     0.171 HD
HETATM   26  N6  UNL     1      13.177  37.657  44.748  1.00  0.00    -0.063 NA
HETATM   27  N7  UNL     1      14.996  36.142  44.669  1.00  0.00    -0.338 N
HETATM   28  C27 UNL     1      15.938  35.216  44.107  1.00  0.00     0.102 A
ATOM     29  H7  UNL     1      15.087  36.322  45.669  1.00  0.00     0.164 HD
HETATM   30  C28 UNL     1      15.790  33.848  44.781  1.00  0.00     0.063 C
HETATM   31  C29 UNL     1      17.323  35.719  44.504  1.00  0.00     0.063 C
ENDBRANCH  19  20
ENDBRANCH  18  19
ENDBRANCH  17  18
ENDBRANCH  16  17
ENDBRANCH  15  16
ENDBRANCH  14  15
ENDBRANCH   5  14
BRANCH   1  32
HETATM   32  C2  UNL     1      16.226  31.343  35.888  1.00  0.00    -0.008 C
HETATM   33  C1  UNL     1      15.222  31.715  34.827  1.00  0.00     0.011 C
HETATM   34  C3  UNL     1      15.860  31.959  37.187  1.00  0.00     0.011 C
ENDBRANCH   1  32
BRANCH   1  35
HETATM   35  C5  UNL     1      17.783  31.367  33.974  1.00  0.00    -0.046 A
HETATM   36  C6  UNL     1      17.906  32.315  32.998  1.00  0.00     0.010 A
HETATM   37  C7  UNL     1      18.024  31.957  31.672  1.00  0.00     0.026 A
HETATM   38  C8  UNL     1      18.018  30.627  31.328  1.00  0.00     0.055 A
HETATM   39 CL1  UNL     1      18.170  30.172  29.652  1.00  0.00    -0.083 Cl
HETATM   40  C9  UNL     1      17.898  29.639  32.278  1.00  0.00     0.056 A
HETATM   41 CL2  UNL     1      17.896  27.953  31.785  1.00  0.00    -0.083 Cl
HETATM   42  C10 UNL     1      17.781  30.021  33.591  1.00  0.00     0.033 A
ENDBRANCH   1  35
TORSDOF 10
ENDMDL