MODEL 3
REMARK VINA RESULT: -7.328993726      2.438      5.313
REMARK  3 active torsions:
REMARK  status: ('A' for Active; 'I' for Inactive)
REMARK    1  A    between atoms: N1_1  and  C1_4
REMARK    2  A    between atoms: C2_7  and  C3_8
REMARK       I    between atoms: C3_8  and  N3_10
REMARK    3  A    between atoms: N3_10  and  N4_12
ROOT
HETATM    1  C1  UNL     1      23.336  74.304  10.434  1.00  0.00     0.116 A
HETATM    2  N2  UNL     1      24.203  75.216  10.942  1.00  0.00    -0.324 N
ATOM      3  H2  UNL     1      23.865  76.160  11.125  1.00  0.00     0.169 HD
HETATM    4  C2  UNL     1      25.483  74.930  11.215  1.00  0.00     0.179 A
HETATM    5  N5  UNL     1      25.913  73.681  10.969  1.00  0.00    -0.322 N
ATOM      6  H5  UNL     1      26.886  73.455  11.174  1.00  0.00     0.169 HD
HETATM    7  C4  UNL     1      25.127  72.718  10.469  1.00  0.00     0.137 A
HETATM    8  N6  UNL     1      25.288  71.429  10.137  1.00  0.00    -0.285 N
ATOM      9  H6  UNL     1      26.162  70.911  10.229  1.00  0.00     0.188 HD
HETATM   10  N7  UNL     1      24.166  70.922   9.676  1.00  0.00    -0.309 N
ATOM     11  H7  UNL     1      24.030  69.962   9.357  1.00  0.00     0.186 HD
HETATM   12  C5  UNL     1      23.232  71.883   9.697  1.00  0.00     0.126 A
HETATM   13  C6  UNL     1      23.818  73.023  10.193  1.00  0.00     0.070 A
ENDROOT
BRANCH   4  14
HETATM   14  C3  UNL     1      26.374  75.944  11.759  1.00  0.00     0.303 C
HETATM   15  O1  UNL     1      25.976  77.149  11.921  1.00  0.00    -0.263 OA
HETATM   16  N3  UNL     1      27.712  75.675  12.138  1.00  0.00    -0.270 N
ATOM     17  H3  UNL     1      28.074  74.728  12.026  1.00  0.00     0.189 HD
BRANCH  16  18
HETATM   18  N4  UNL     1      28.555  76.663  12.659  1.00  0.00    -0.342 N
ATOM     19  H42 UNL     1      28.382  76.981  13.613  1.00  0.00     0.176 HD
ATOM     20  H41 UNL     1      29.322  77.066  12.121  1.00  0.00     0.176 HD
ENDBRANCH  16  18
ENDBRANCH   4  14
BRANCH   1  21
HETATM   21  N1  UNL     1      22.126  74.592  10.181  1.00  0.00    -0.385 N
ATOM     22  H12 UNL     1      21.379  74.274  10.800  1.00  0.00     0.157 HD
ATOM     23  H11 UNL     1      21.859  75.141   9.364  1.00  0.00     0.157 HD
ENDBRANCH   1  21
TORSDOF 3
ENDMDL