MODEL 1
REMARK VINA RESULT: -7.060609926      0.000      0.000
REMARK  3 active torsions:
REMARK  status: ('A' for Active; 'I' for Inactive)
REMARK    1  A    between atoms: N1_1  and  C1_4
REMARK    2  A    between atoms: C4_10  and  C5_11
REMARK       I    between atoms: C5_11  and  N4_13
REMARK    3  A    between atoms: N4_13  and  N5_15
ROOT
HETATM    1  C1  UNL     1      24.445  73.168   9.090  1.00  0.00     0.680 C
HETATM    2  N2  UNL     1      23.355  73.680   9.723  1.00  0.00    -0.179 N
ATOM      3  H2  UNL     1      22.449  73.445   9.317  1.00  0.00     0.185 HD
HETATM    4  C2  UNL     1      23.327  74.455  10.816  1.00  0.00     0.133 C
HETATM    5  N3  UNL     1      22.035  74.655  11.427  1.00  0.00    -0.082 NA
HETATM    6  C3  UNL     1      24.395  75.080  11.408  1.00  0.00     0.068 C
HETATM    7  C4  UNL     1      25.709  75.186  10.962  1.00  0.00     0.105 C
HETATM    8  C6  UNL     1      26.265  74.558   9.839  1.00  0.00     0.275 C
HETATM    9  O2  UNL     1      27.432  74.901   9.508  1.00  0.00    -0.267 OA
HETATM   10  N6  UNL     1      25.707  73.615   9.052  1.00  0.00    -0.155 N
ATOM     11  H6  UNL     1      26.315  73.195   8.348  1.00  0.00     0.187 HD
ENDROOT
BRANCH   7  12
HETATM   12  C5  UNL     1      26.571  76.076  11.737  1.00  0.00     0.275 C
HETATM   13  O1  UNL     1      26.087  77.229  11.971  1.00  0.00    -0.266 OA
HETATM   14  N4  UNL     1      27.849  75.664  12.182  1.00  0.00    -0.272 N
ATOM     15  H4  UNL     1      28.217  74.737  11.970  1.00  0.00     0.189 HD
BRANCH  14  16
HETATM   16  N5  UNL     1      28.575  76.586  12.920  1.00  0.00    -0.342 N
ATOM     17  H52 UNL     1      28.839  77.486  12.518  1.00  0.00     0.176 HD
ATOM     18  H51 UNL     1      28.825  76.314  13.871  1.00  0.00     0.176 HD
ENDBRANCH  14  16
ENDBRANCH   7  12
BRANCH   1  19
HETATM   19  N1  UNL     1      24.170  72.088   8.448  1.00  0.00    -0.234 N
ATOM     20  H12 UNL     1      23.216  71.965   8.109  1.00  0.00     0.174 HD
ATOM     21  H11 UNL     1      24.981  71.477   8.359  1.00  0.00     0.174 HD
ENDBRANCH   1  19
TORSDOF 3
ENDMDL