MODEL 2
REMARK VINA RESULT: -6.619110828      1.198      1.457
REMARK  4 active torsions:
REMARK  status: ('A' for Active; 'I' for Inactive)
REMARK    1  A    between atoms: N1_2  and  C3_4
REMARK    2  A    between atoms: C4_7  and  N3_8
REMARK    3  A    between atoms: C5_13  and  N5_14
REMARK    4  A    between atoms: N5_14  and  N6_16
REMARK       I    between atoms: N6_16  and  C6_18
ROOT
HETATM    1  C3  UNL     1      23.926  73.249   9.296  1.00  0.00     0.708 A
HETATM    2  N2  UNL     1      24.566  72.177   9.794  1.00  0.00    -0.022 N
ATOM      3  H2  UNL     1      24.103  71.269   9.759  1.00  0.00     0.203 HD
HETATM    4  C4  UNL     1      25.771  72.254  10.328  1.00  0.00     0.705 A
HETATM    5  N4  UNL     1      26.387  73.445  10.378  1.00  0.00    -0.020 N
ATOM      6  H4  UNL     1      27.319  73.522  10.786  1.00  0.00     0.203 HD
HETATM    7  C5  UNL     1      25.770  74.545   9.885  1.00  0.00     0.726 A
HETATM    8  N9  UNL     1      24.525  74.429   9.341  1.00  0.00    -0.020 N
ATOM      9  H9  UNL     1      24.054  75.252   8.968  1.00  0.00     0.203 HD
ENDROOT
BRANCH   7  10
HETATM   10  N5  UNL     1      26.332  75.709   9.916  1.00  0.00    -0.129 N
ATOM     11  H5  UNL     1      26.859  76.053   9.114  1.00  0.00     0.205 HD
BRANCH  10  12
HETATM   12  N6  UNL     1      26.204  76.483  11.066  1.00  0.00    -0.260 N
HETATM   13  C6  UNL     1      27.296  76.786  11.923  1.00  0.00     0.201 C
HETATM   14  N7  UNL     1      28.065  75.857  12.398  1.00  0.00    -0.372 N
HETATM   15  N8  UNL     1      27.592  78.118  12.293  1.00  0.00    -0.062 NA
ATOM     16  H72 UNL     1      27.851  74.896  12.130  1.00  0.00     0.158 HD
ATOM     17  H71 UNL     1      28.848  76.074  13.014  1.00  0.00     0.158 HD
ATOM     18  H6  UNL     1      25.283  76.850  11.304  1.00  0.00     0.190 HD
ENDBRANCH  10  12
ENDBRANCH   7  10
BRANCH   4  19
HETATM   19  N3  UNL     1      26.354  71.207  10.795  1.00  0.00    -0.234 N
ATOM     20  H32 UNL     1      25.801  70.448  11.191  1.00  0.00     0.174 HD
ATOM     21  H31 UNL     1      27.370  71.121  10.776  1.00  0.00     0.174 HD
ENDBRANCH   4  19
BRANCH   1  22
HETATM   22  N1  UNL     1      22.632  73.062   8.744  1.00  0.00    -0.225 N
HETATM   23  C1  UNL     1      21.536  73.813   9.314  1.00  0.00     0.168 C
HETATM   24  C2  UNL     1      22.412  72.147   7.642  1.00  0.00     0.168 C
ENDBRANCH   1  22
TORSDOF 4
ENDMDL