MODEL 1
REMARK VINA RESULT: -7.558576199      0.000      0.000
REMARK  1 active torsions:
REMARK  status: ('A' for Active; 'I' for Inactive)
REMARK    1  A    between atoms: N1_1  and  C1_4
ROOT
HETATM    1  C1  UNL     1      28.511  77.042  12.792  1.00  0.00     0.680 A
HETATM    2  N2  UNL     1      28.171  78.130  12.094  1.00  0.00    -0.155 N
ATOM      3  H2  UNL     1      28.667  79.009  12.246  1.00  0.00     0.187 HD
HETATM    4  C2  UNL     1      27.159  78.069  11.176  1.00  0.00     0.279 A
HETATM    5  O1  UNL     1      26.853  79.105  10.527  1.00  0.00    -0.266 OA
HETATM    6  C3  UNL     1      26.483  76.891  10.962  1.00  0.00     0.145 A
HETATM    7  C4  UNL     1      25.472  76.826  10.046  1.00  0.00     0.267 A
HETATM    8  O2  UNL     1      25.109  77.807   9.363  1.00  0.00    -0.267 OA
HETATM    9  N3  UNL     1      24.830  75.648   9.863  1.00  0.00    -0.296 N
ATOM     10  H3  UNL     1      24.073  75.589   9.182  1.00  0.00     0.171 HD
HETATM   11  C5  UNL     1      25.174  74.553  10.569  1.00  0.00     0.196 A
HETATM   12  N4  UNL     1      24.467  73.342  10.338  1.00  0.00    -0.063 NA
HETATM   13  N5  UNL     1      26.166  74.615  11.468  1.00  0.00    -0.315 N
ATOM     14  H5  UNL     1      26.416  73.777  11.993  1.00  0.00     0.170 HD
HETATM   15  C6  UNL     1      26.837  75.754  11.691  1.00  0.00     0.144 A
HETATM   16  N6  UNL     1      27.828  75.907  12.557  1.00  0.00    -0.176 N
ATOM     17  H6  UNL     1      28.100  75.085  13.098  1.00  0.00     0.186 HD
ENDROOT
BRANCH   1  18
HETATM   18  N1  UNL     1      29.478  77.076  13.678  1.00  0.00    -0.234 N
ATOM     19  H12 UNL     1      29.778  77.958  14.093  1.00  0.00     0.174 HD
ATOM     20  H11 UNL     1      29.955  76.224  13.975  1.00  0.00     0.174 HD
ENDBRANCH   1  18
TORSDOF 1
ENDMDL