MODEL 5
REMARK VINA RESULT: -6.695525909      1.882      2.485
REMARK  1 active torsions:
REMARK  status: ('A' for Active; 'I' for Inactive)
REMARK    1  A    between atoms: C4_7  and  N4_8
REMARK       I    between atoms: N4_8  and  C5_10
REMARK       I    between atoms: C5_10  and  N5_11
REMARK       I    between atoms: C5_10  and  N6_15
ROOT
HETATM    1  C1  UNL     1      23.596  70.955   9.505  1.00  0.00     0.162 C
HETATM    2  N1  UNL     1      24.391  72.068  10.019  1.00  0.00    -0.290 N
HETATM    3  C2  UNL     1      25.467  72.514   9.332  1.00  0.00     0.150 A
HETATM    4  N2  UNL     1      25.848  71.910   8.099  1.00  0.00    -0.080 NA
HETATM    5  C3  UNL     1      26.220  73.570   9.822  1.00  0.00     0.131 A
HETATM    6  N3  UNL     1      27.343  74.012   9.075  1.00  0.00    -0.095 NA
HETATM    7  C4  UNL     1      25.880  74.178  11.015  1.00  0.00     0.136 A
HETATM    8  N7  UNL     1      24.800  73.708  11.673  1.00  0.00    -0.293 N
ATOM      9  H7  UNL     1      24.524  74.138  12.557  1.00  0.00     0.172 HD
HETATM   10  C6  UNL     1      24.083  72.684  11.184  1.00  0.00     0.329 A
HETATM   11  O1  UNL     1      23.091  72.268  11.810  1.00  0.00    -0.246 OA
ENDROOT
BRANCH   7  12
HETATM   12  N4  UNL     1      26.598  75.157  11.443  1.00  0.00    -0.325 N
HETATM   13  C5  UNL     1      26.054  76.494  11.434  1.00  0.00     0.481 C
HETATM   14  N5  UNL     1      26.883  77.402  12.215  1.00  0.00    -0.033 N
HETATM   15  N6  UNL     1      26.099  76.975  10.059  1.00  0.00    -0.033 N
ATOM     16  H53 UNL     1      27.023  77.060  13.166  1.00  0.00     0.278 HD
ATOM     17  H52 UNL     1      27.854  77.389  11.900  1.00  0.00     0.278 HD
ATOM     18  H51 UNL     1      26.499  78.347  12.208  1.00  0.00     0.278 HD
ATOM     19  H63 UNL     1      27.030  76.921   9.649  1.00  0.00     0.278 HD
ATOM     20  H62 UNL     1      25.629  76.349   9.403  1.00  0.00     0.278 HD
ATOM     21  H61 UNL     1      25.714  77.920  10.052  1.00  0.00     0.278 HD
ATOM     22  H4  UNL     1      27.544  74.989  11.786  1.00  0.00     0.165 HD
ENDBRANCH   7  12
TORSDOF 1
ENDMDL