MODEL 3
REMARK VINA RESULT: -6.375588080      2.063      3.365
REMARK  2 active torsions:
REMARK  status: ('A' for Active; 'I' for Inactive)
REMARK    1  A    between atoms: N1_1  and  C1_4
REMARK    2  A    between atoms: N3_9  and  C4_10
ROOT
HETATM    1  C1  UNL     1      27.060  75.759  11.472  1.00  0.00     0.677 A
HETATM    2  N2  UNL     1      25.752  75.758  11.833  1.00  0.00    -0.190 N
ATOM      3  H2  UNL     1      25.437  76.351  12.601  1.00  0.00     0.184 HD
HETATM    4  C2  UNL     1      24.866  74.976  11.179  1.00  0.00     0.084 A
HETATM    5  C3  UNL     1      23.510  74.740  11.283  1.00  0.00     0.134 A
HETATM    6  N3  UNL     1      23.129  73.839  10.353  1.00  0.00    -0.264 N
HETATM    7  C5  UNL     1      24.211  73.468   9.627  1.00  0.00     0.269 A
HETATM    8  O2  UNL     1      24.236  72.654   8.684  1.00  0.00    -0.266 OA
HETATM    9  C6  UNL     1      25.332  74.134  10.082  1.00  0.00     0.103 A
HETATM   10  C7  UNL     1      26.661  74.177   9.764  1.00  0.00     0.149 A
HETATM   11  N4  UNL     1      27.151  73.381   8.714  1.00  0.00    -0.081 NA
HETATM   12  N5  UNL     1      27.495  74.978  10.454  1.00  0.00    -0.178 N
ATOM     13  H5  UNL     1      28.483  74.996  10.203  1.00  0.00     0.185 HD
ENDROOT
BRANCH   1  14
HETATM   14  N1  UNL     1      27.876  76.516  12.116  1.00  0.00    -0.234 N
ATOM     15  H12 UNL     1      28.877  76.493  11.922  1.00  0.00     0.174 HD
ATOM     16  H11 UNL     1      27.500  77.142  12.829  1.00  0.00     0.174 HD
ENDBRANCH   1  14
BRANCH   6  17
HETATM   17  C4  UNL     1      21.820  73.348  10.151  1.00  0.00     0.362 C
HETATM   18  O1  UNL     1      21.407  72.358  10.828  1.00  0.00    -0.283 OA
ENDBRANCH   6  17
TORSDOF 2
ENDMDL