MODEL 5
REMARK VINA RESULT: -6.262317836      3.521      6.310
REMARK  4 active torsions:
REMARK  status: ('A' for Active; 'I' for Inactive)
REMARK    1  A    between atoms: C2_2  and  C3_4
REMARK       I    between atoms: C3_4  and  N1_6
REMARK    2  A    between atoms: N1_6  and  N2_7
REMARK       I    between atoms: N2_7  and  C4_8
REMARK       I    between atoms: C4_8  and  N4_12
REMARK    3  A    between atoms: N4_12  and  N5_13
REMARK    4  A    between atoms: N4_12  and  N6_16
ROOT
HETATM    1  N6  UNL     1      27.218  77.410  11.827  1.00  0.00    -0.211 N
ATOM      2  H6  UNL     1      26.600  78.218  11.748  1.00  0.00     0.201 HD
HETATM    3  C5  UNL     1      28.312  77.498  12.704  1.00  0.00     0.199 C
HETATM    4  N7  UNL     1      29.213  77.544  13.401  1.00  0.00    -0.170 NA
ENDROOT
BRANCH   1   5
HETATM    5  N4  UNL     1      26.938  76.320  11.084  1.00  0.00    -0.145 N
HETATM    6  C4  UNL     1      25.864  76.181  10.090  1.00  0.00     0.327 C
HETATM    7  N2  UNL     1      25.630  74.923   9.602  1.00  0.00    -0.203 NA
HETATM    8  N3  UNL     1      25.312  77.231   9.706  1.00  0.00    -0.354 N
ATOM      9  H32 UNL     1      24.567  77.134   9.016  1.00  0.00     0.160 HD
ATOM     10  H31 UNL     1      25.486  78.168  10.069  1.00  0.00     0.160 HD
BRANCH   7  11
HETATM   11  N1  UNL     1      25.399  73.763   9.174  1.00  0.00    -0.197 NA
HETATM   12  C3  UNL     1      25.177  72.464   8.682  1.00  0.00     0.395 C
HETATM   13  O2  UNL     1      25.989  71.747   8.085  1.00  0.00    -0.245 OA
BRANCH  12  14
HETATM   14  C2  UNL     1      23.811  71.879   8.867  1.00  0.00     0.230 C
HETATM   15  C1  UNL     1      22.649  72.274   7.949  1.00  0.00     0.103 C
HETATM   16  O1  UNL     1      23.665  71.084   9.842  1.00  0.00    -0.286 OA
ENDBRANCH  12  14
ENDBRANCH   7  11
BRANCH   5  17
HETATM   17  N5  UNL     1      27.705  75.098  11.185  1.00  0.00    -0.320 N
ATOM     18  H52 UNL     1      27.553  74.306  10.560  1.00  0.00     0.179 HD
ATOM     19  H51 UNL     1      28.384  75.158  11.944  1.00  0.00     0.179 HD
ENDBRANCH   5  17
ENDBRANCH   1   5
TORSDOF 4
ENDMDL