MODEL 1
REMARK VINA RESULT: -6.883297748      0.000      0.000
REMARK  3 active torsions:
REMARK  status: ('A' for Active; 'I' for Inactive)
REMARK    1  A    between atoms: N1_1  and  C1_4
REMARK    2  A    between atoms: N5_16  and  C6_17
REMARK    3  A    between atoms: C6_17  and  O2_19
ROOT
HETATM    1  C1  UNL     1      25.551  72.196  10.274  1.00  0.00     0.687 A
HETATM    2  N2  UNL     1      26.594  72.799   9.718  1.00  0.00    -0.174 N
ATOM      3  H2  UNL     1      27.276  72.359   9.101  1.00  0.00     0.186 HD
HETATM    4  C2  UNL     1      26.600  74.083  10.102  1.00  0.00     0.155 A
HETATM    5  N3  UNL     1      27.386  75.133   9.863  1.00  0.00    -0.336 N
ATOM      6  H3  UNL     1      28.194  75.007   9.252  1.00  0.00     0.168 HD
HETATM    7  C3  UNL     1      27.165  76.343  10.385  1.00  0.00     0.185 A
HETATM    8  N4  UNL     1      26.122  76.567  11.190  1.00  0.00    -0.318 N
ATOM      9  H4  UNL     1      25.947  77.488  11.593  1.00  0.00     0.169 HD
HETATM   10  C4  UNL     1      25.303  75.508  11.450  1.00  0.00     0.278 A
HETATM   11  O1  UNL     1      24.334  75.739  12.207  1.00  0.00    -0.265 OA
HETATM   12  C5  UNL     1      25.499  74.246  10.931  1.00  0.00     0.172 A
HETATM   13  N5  UNL     1      24.845  73.093  11.045  1.00  0.00    -0.104 N
ENDROOT
BRANCH  13  14
HETATM   14  C6  UNL     1      23.692  72.761  11.761  1.00  0.00     0.251 C
HETATM   15  N6  UNL     1      22.352  73.095  11.565  1.00  0.00    -0.055 NA
BRANCH  14  16
HETATM   16  O2  UNL     1      23.836  72.004  12.815  1.00  0.00    -0.334 OA
ATOM     17  H2  UNL     1      23.186  72.084  13.503  1.00  0.00     0.220 HD
ENDBRANCH  14  16
ENDBRANCH  13  14
BRANCH   1  18
HETATM   18  N1  UNL     1      25.236  70.948  10.120  1.00  0.00    -0.234 N
ATOM     19  H12 UNL     1      24.283  70.598  10.023  1.00  0.00     0.174 HD
ATOM     20  H11 UNL     1      25.897  70.172  10.079  1.00  0.00     0.174 HD
ENDBRANCH   1  18
TORSDOF 3
ENDMDL