MODEL 1
REMARK VINA RESULT: -6.789604779      0.000      0.000
REMARK  2 active torsions:
REMARK  status: ('A' for Active; 'I' for Inactive)
REMARK    1  A    between atoms: C4_7  and  N3_8
REMARK       I    between atoms: N3_8  and  C5_10
REMARK       I    between atoms: C5_10  and  N4_11
REMARK       I    between atoms: C5_10  and  N5_15
REMARK    2  A    between atoms: C6_21  and  N7_22
ROOT
HETATM    1  C1  UNL     1      23.718  71.584   7.748  1.00  0.00     0.158 C
HETATM    2  N1  UNL     1      24.573  72.272   8.701  1.00  0.00    -0.331 N
HETATM    3  C2  UNL     1      25.898  72.147   8.879  1.00  0.00     0.184 A
HETATM    4  N2  UNL     1      26.315  72.959   9.864  1.00  0.00    -0.346 N
ATOM      5  H2  UNL     1      27.278  73.048  10.188  1.00  0.00     0.167 HD
HETATM    6  C3  UNL     1      25.262  73.638  10.355  1.00  0.00     0.123 A
HETATM    7  C4  UNL     1      25.095  74.582  11.347  1.00  0.00     0.150 A
HETATM    8  N6  UNL     1      23.826  75.033  11.539  1.00  0.00    -0.175 N
ATOM      9  H6  UNL     1      23.662  75.733  12.262  1.00  0.00     0.186 HD
HETATM   10  C6  UNL     1      22.790  74.601  10.822  1.00  0.00     0.679 A
HETATM   11  N8  UNL     1      22.944  73.682   9.855  1.00  0.00    -0.174 N
ATOM     12  H8  UNL     1      22.146  73.355   9.310  1.00  0.00     0.186 HD
HETATM   13  C7  UNL     1      24.183  73.204   9.627  1.00  0.00     0.154 A
ENDROOT
BRANCH   7  14
HETATM   14  N3  UNL     1      26.060  75.011  12.043  1.00  0.00    -0.325 N
HETATM   15  C5  UNL     1      27.040  76.005  11.733  1.00  0.00     0.481 C
HETATM   16  N4  UNL     1      26.469  77.328  11.868  1.00  0.00    -0.033 N
HETATM   17  N5  UNL     1      28.187  75.931  12.645  1.00  0.00    -0.033 N
ATOM     18  H43 UNL     1      25.624  77.437  11.306  1.00  0.00     0.278 HD
ATOM     19  H42 UNL     1      26.056  77.474  12.788  1.00  0.00     0.278 HD
ATOM     20  H41 UNL     1      27.168  78.037  11.646  1.00  0.00     0.278 HD
ATOM     21  H53 UNL     1      27.894  75.988  13.620  1.00  0.00     0.278 HD
ATOM     22  H52 UNL     1      28.594  74.995  12.657  1.00  0.00     0.278 HD
ATOM     23  H51 UNL     1      28.887  76.640  12.423  1.00  0.00     0.278 HD
ATOM     24  H3  UNL     1      26.153  74.583  12.965  1.00  0.00     0.165 HD
ENDBRANCH   7  14
BRANCH  10  25
HETATM   25  N7  UNL     1      21.594  75.051  11.030  1.00  0.00    -0.234 N
ATOM     26  H72 UNL     1      21.491  76.055  11.177  1.00  0.00     0.174 HD
ATOM     27  H71 UNL     1      20.788  74.426  11.045  1.00  0.00     0.174 HD
ENDBRANCH  10  25
TORSDOF 2
ENDMDL