MODEL 3
REMARK VINA RESULT: -6.628536897      3.373      6.027
REMARK  3 active torsions:
REMARK  status: ('A' for Active; 'I' for Inactive)
REMARK    1  A    between atoms: N1_1  and  C1_4
REMARK       I    between atoms: N5_15  and  C6_16
REMARK       I    between atoms: C6_16  and  N6_18
REMARK    2  A    between atoms: N6_18  and  N7_20
REMARK    3  A    between atoms: N7_20  and  N8_21
ROOT
HETATM    1  C1  UNL     1      26.344  75.465  11.040  1.00  0.00     0.131 A
HETATM    2  N2  UNL     1      27.373  75.127  10.244  1.00  0.00    -0.337 N
ATOM      3  H2  UNL     1      28.234  75.672  10.287  1.00  0.00     0.168 HD
HETATM    4  C2  UNL     1      27.295  74.086   9.389  1.00  0.00     0.183 A
HETATM    5  N3  UNL     1      26.184  73.334   9.288  1.00  0.00    -0.336 N
ATOM      6  H3  UNL     1      26.145  72.551   8.635  1.00  0.00     0.168 HD
HETATM    7  C3  UNL     1      25.121  73.632  10.066  1.00  0.00     0.148 A
HETATM    8  C4  UNL     1      25.206  74.706  10.946  1.00  0.00     0.122 A
HETATM    9  N4  UNL     1      24.036  74.772  11.576  1.00  0.00    -0.346 N
ATOM     10  H4  UNL     1      23.794  75.462  12.286  1.00  0.00     0.167 HD
HETATM   11  C5  UNL     1      23.218  73.799  11.142  1.00  0.00     0.195 A
HETATM   12  N5  UNL     1      23.904  73.080  10.189  1.00  0.00    -0.242 N
HETATM   13  C6  UNL     1      23.356  71.967   9.510  1.00  0.00     0.346 C
HETATM   14  O1  UNL     1      22.155  71.611   9.800  1.00  0.00    -0.245 OA
HETATM   15  N6  UNL     1      23.983  71.177   8.529  1.00  0.00    -0.235 N
ATOM     16  H6  UNL     1      24.938  71.402   8.250  1.00  0.00     0.189 HD
ENDROOT
BRANCH  15  17
HETATM   17  N7  UNL     1      23.337  70.087   7.920  1.00  0.00    -0.026 NA
BRANCH  17  18
HETATM   18  N8  UNL     1      23.200  68.989   8.742  1.00  0.00    -0.329 N
ATOM     19  H82 UNL     1      22.583  68.992   9.555  1.00  0.00     0.174 HD
ATOM     20  H81 UNL     1      23.766  68.188   8.460  1.00  0.00     0.174 HD
ENDBRANCH  17  18
ENDBRANCH  15  17
BRANCH   1  21
HETATM   21  N1  UNL     1      26.423  76.466  11.863  1.00  0.00    -0.383 N
ATOM     22  H12 UNL     1      25.588  76.947  12.196  1.00  0.00     0.157 HD
ATOM     23  H11 UNL     1      27.322  76.804  12.206  1.00  0.00     0.157 HD
ENDBRANCH   1  21
TORSDOF 3
ENDMDL