MODEL 4
REMARK VINA RESULT: -8.006599153      1.673      2.218
REMARK  6 active torsions:
REMARK  status: ('A' for Active; 'I' for Inactive)
REMARK    1  A    between atoms: C2_2  and  C3_3
REMARK    2  A    between atoms: C3_3  and  C4_4
REMARK    3  A    between atoms: C3_3  and  N1_6
REMARK    4  A    between atoms: N1_6  and  C6_8
REMARK    5  A    between atoms: C9_16  and  C10_17
REMARK    6  A    between atoms: C16_24  and  C17_25
ROOT
HETATM    1  C6  UNL     1      85.258   1.554  61.055  1.00  0.00     0.118 A
HETATM    2  N2  UNL     1      84.519   1.604  59.927  1.00  0.00    -0.338 N
ATOM      3  H2  UNL     1      83.506   1.491  59.943  1.00  0.00     0.168 HD
HETATM    4  C7  UNL     1      85.190   1.810  58.784  1.00  0.00     0.184 A
HETATM    5  N3  UNL     1      86.516   1.969  58.685  1.00  0.00    -0.332 N
ATOM      6  H3  UNL     1      86.958   2.124  57.779  1.00  0.00     0.168 HD
HETATM    7  C8  UNL     1      87.249   1.919  59.805  1.00  0.00     0.164 A
HETATM    8  O1  UNL     1      88.528   2.035  60.026  1.00  0.00    -0.291 OA
HETATM    9  C9  UNL     1      88.810   1.917  61.311  1.00  0.00     0.102 A
HETATM   10  C16 UNL     1      87.615   1.706  61.985  1.00  0.00     0.051 A
HETATM   11  C21 UNL     1      86.636   1.711  61.015  1.00  0.00     0.075 A
ENDROOT
BRANCH   1  12
HETATM   12  N1  UNL     1      84.733   1.362  62.212  1.00  0.00    -0.368 N
ATOM     13  H1  UNL     1      85.106   0.601  62.780  1.00  0.00     0.161 HD
BRANCH  12  14
HETATM   14  C3  UNL     1      83.656   2.141  62.765  1.00  0.00     0.105 C
BRANCH  14  15
HETATM   15  C2  UNL     1      83.401   1.616  64.142  1.00  0.00    -0.012 C
HETATM   16  C1  UNL     1      83.181   0.312  64.294  1.00  0.00     0.009 C
ENDBRANCH  14  15
BRANCH  14  17
HETATM   17  C4  UNL     1      84.005   3.594  62.869  1.00  0.00     0.024 C
HETATM   18  C5  UNL     1      83.026   4.395  62.029  1.00  0.00     0.007 C
ENDBRANCH  14  17
ENDBRANCH  12  14
ENDBRANCH   1  12
BRANCH  10  19
HETATM   19  C17 UNL     1      87.407   1.515  63.422  1.00  0.00     0.092 A
HETATM   20  C18 UNL     1      87.967   2.336  64.387  1.00  0.00     0.043 A
HETATM   21  C19 UNL     1      87.552   1.848  65.598  1.00  0.00     0.072 A
HETATM   22  C20 UNL     1      86.754   0.752  65.352  1.00  0.00     0.230 A
HETATM   23  F2  UNL     1      86.166   0.018  66.326  1.00  0.00    -0.178 F
HETATM   24  O2  UNL     1      86.717   0.620  64.049  1.00  0.00    -0.283 OA
ENDBRANCH  10  19
BRANCH   9  25
HETATM   25  C10 UNL     1      90.124   1.992  61.921  1.00  0.00    -0.001 A
HETATM   26  C11 UNL     1      91.010   0.939  61.962  1.00  0.00     0.017 A
HETATM   27  C12 UNL     1      92.251   1.063  62.558  1.00  0.00     0.043 A
HETATM   28  C13 UNL     1      92.645   2.256  63.136  1.00  0.00     0.116 A
HETATM   29  F1  UNL     1      93.880   2.372  63.725  1.00  0.00    -0.206 F
HETATM   30  C14 UNL     1      91.768   3.316  63.101  1.00  0.00     0.043 A
HETATM   31  C15 UNL     1      90.545   3.163  62.504  1.00  0.00     0.017 A
ENDBRANCH   9  25
TORSDOF 6
ENDMDL