MODEL 3
REMARK VINA RESULT: -8.094936787      2.059      2.799
REMARK  7 active torsions:
REMARK  status: ('A' for Active; 'I' for Inactive)
REMARK    1  A    between atoms: C2_2  and  C3_3
REMARK    2  A    between atoms: C8_10  and  S1_11
REMARK    3  A    between atoms: S1_11  and  C9_12
REMARK    4  A    between atoms: C13_18  and  N2_19
REMARK    5  A    between atoms: N2_19  and  C14_21
REMARK    6  A    between atoms: C14_21  and  C16_24
REMARK    7  A    between atoms: C16_24  and  C17_25
ROOT
HETATM    1  C14 UNL     1      81.347   4.354  59.592  1.00  0.00     0.207 C
HETATM    2  C15 UNL     1      80.782   5.397  58.696  1.00  0.00     0.085 C
HETATM    3  N3  UNL     1      80.348   6.212  57.999  1.00  0.00    -0.195 NA
ENDROOT
BRANCH   1   4
HETATM    4  N2  UNL     1      82.725   4.236  59.242  1.00  0.00    -0.209 N
ATOM      5  H2  UNL     1      83.132   4.942  58.630  1.00  0.00     0.179 HD
BRANCH   4   6
HETATM    6  C13 UNL     1      83.490   3.267  59.667  1.00  0.00     0.680 A
HETATM    7  N1  UNL     1      83.818   2.244  58.870  1.00  0.00    -0.196 N
HETATM    8  C11 UNL     1      84.601   1.238  59.280  1.00  0.00     0.025 A
ATOM      9  H1  UNL     1      83.459   2.229  57.915  1.00  0.00     0.184 HD
HETATM   10  C10 UNL     1      85.079   1.272  60.571  1.00  0.00     0.063 A
HETATM   11  C12 UNL     1      84.944   0.117  58.361  1.00  0.00     0.069 C
HETATM   12  C9  UNL     1      84.766   2.302  61.419  1.00  0.00     0.093 A
HETATM   13  N4  UNL     1      83.972   3.272  60.920  1.00  0.00    -0.185 N
ATOM     14  H4  UNL     1      83.723   4.052  61.529  1.00  0.00     0.185 HD
BRANCH  12  15
HETATM   15  S1  UNL     1      85.376   2.366  63.105  1.00  0.00    -0.068 SA
BRANCH  15  16
HETATM   16  C8  UNL     1      87.158   2.299  63.056  1.00  0.00     0.056 A
HETATM   17  C3  UNL     1      87.855   1.726  64.079  1.00  0.00    -0.014 A
HETATM   18  C4  UNL     1      89.267   1.741  63.996  1.00  0.00     0.055 A
HETATM   19  C5  UNL     1      89.918   2.301  62.937  1.00  0.00     0.120 A
HETATM   20  F1  UNL     1      91.297   2.277  62.925  1.00  0.00    -0.206 F
HETATM   21  C6  UNL     1      89.209   2.872  61.914  1.00  0.00     0.086 A
HETATM   22  C7  UNL     1      87.849   2.870  61.975  1.00  0.00     0.137 A
HETATM   23  F2  UNL     1      87.076   3.423  60.988  1.00  0.00    -0.205 F
BRANCH  17  24
HETATM   24  C2  UNL     1      87.250   1.129  65.257  1.00  0.00     0.003 C
HETATM   25  C1  UNL     1      87.853   0.656  66.287  1.00  0.00     0.012 C
ENDBRANCH  17  24
ENDBRANCH  15  16
ENDBRANCH  12  15
ENDBRANCH   4   6
ENDBRANCH   1   4
BRANCH   1  26
HETATM   26  C16 UNL     1      81.053   4.792  60.979  1.00  0.00     0.049 C
BRANCH  26  27
HETATM   27  C17 UNL     1      80.187   3.919  61.805  1.00  0.00    -0.049 C
HETATM   28  C18 UNL     1      80.585   3.989  63.250  1.00  0.00     0.014 C
HETATM   29  C19 UNL     1      80.107   2.496  61.300  1.00  0.00     0.014 C
HETATM   30  C20 UNL     1      78.753   4.460  61.734  1.00  0.00     0.014 C
ENDBRANCH  26  27
ENDBRANCH   1  26
TORSDOF 7
ENDMDL