MODEL 1
REMARK VINA RESULT: -10.025155247      0.000      0.000
REMARK  5 active torsions:
REMARK  status: ('A' for Active; 'I' for Inactive)
REMARK    1  A    between atoms: C2_2  and  C3_3
REMARK    2  A    between atoms: C3_3  and  C4_4
REMARK    3  A    between atoms: C7_7  and  C8_8
REMARK    4  A    between atoms: C8_8  and  C9_9
REMARK    5  A    between atoms: C9_9  and  N1_10
ROOT
HETATM    1  N1  UNL     1      84.374   2.588  59.935  1.00  0.00    -0.306 N
HETATM    2  C10 UNL     1      84.189   1.594  59.047  1.00  0.00     0.181 A
HETATM    3  S1  UNL     1      85.304   0.515  58.475  1.00  0.00    -0.040 SA
HETATM    4  N2  UNL     1      82.904   1.622  58.660  1.00  0.00    -0.316 N
ATOM      5  H2  UNL     1      82.490   0.975  57.989  1.00  0.00     0.170 HD
HETATM    6  C11 UNL     1      82.231   2.613  59.272  1.00  0.00     0.153 A
HETATM    7  N3  UNL     1      80.948   3.063  59.238  1.00  0.00    -0.337 N
ATOM      8  H3  UNL     1      80.260   2.608  58.638  1.00  0.00     0.167 HD
HETATM    9  C12 UNL     1      80.591   4.112  59.999  1.00  0.00     0.060 A
HETATM   10  C13 UNL     1      79.300   4.614  60.005  1.00  0.00     0.032 A
HETATM   11  C14 UNL     1      78.931   5.694  60.787  1.00  0.00     0.002 A
HETATM   12  C15 UNL     1      79.851   6.318  61.601  1.00  0.00     0.002 A
HETATM   13  C16 UNL     1      81.138   5.828  61.604  1.00  0.00     0.032 A
HETATM   14  C17 UNL     1      81.511   4.737  60.813  1.00  0.00     0.060 A
HETATM   15  N4  UNL     1      82.770   4.268  60.824  1.00  0.00    -0.337 N
ATOM     16  H4  UNL     1      83.454   4.727  61.425  1.00  0.00     0.167 HD
HETATM   17  C18 UNL     1      83.169   3.222  60.080  1.00  0.00     0.155 A
ENDROOT
BRANCH   1  18
HETATM   18  C9  UNL     1      85.567   2.953  60.607  1.00  0.00     0.138 C
BRANCH  18  19
HETATM   19  C8  UNL     1      85.744   2.644  62.039  1.00  0.00     0.062 C
BRANCH  19  20
HETATM   20  C7  UNL     1      87.082   2.459  62.574  1.00  0.00    -0.015 A
HETATM   21  C6  UNL     1      88.182   2.803  61.782  1.00  0.00     0.011 A
HETATM   22  C5  UNL     1      89.449   2.604  62.259  1.00  0.00     0.011 A
HETATM   23  C4  UNL     1      89.711   2.072  63.504  1.00  0.00    -0.016 A
HETATM   24  C20 UNL     1      88.622   1.741  64.268  1.00  0.00     0.161 A
HETATM   25  C19 UNL     1      87.306   1.929  63.817  1.00  0.00     0.161 A
HETATM   26  F2  UNL     1      88.775   1.170  65.504  1.00  0.00    -0.202 F
HETATM   27  F1  UNL     1      86.323   1.593  64.685  1.00  0.00    -0.202 F
BRANCH  23  28
HETATM   28  C3  UNL     1      91.112   1.938  63.928  1.00  0.00     0.041 C
BRANCH  28  29
HETATM   29  C2  UNL     1      92.053   2.785  63.146  1.00  0.00     0.000 C
HETATM   30  C1  UNL     1      93.486   2.413  63.136  1.00  0.00     0.005 C
ENDBRANCH  28  29
ENDBRANCH  23  28
ENDBRANCH  19  20
ENDBRANCH  18  19
ENDBRANCH   1  18
TORSDOF 5
ENDMDL