MODEL 3
REMARK VINA RESULT: -10.259430583      3.186      8.293
REMARK  5 active torsions:
REMARK  status: ('A' for Active; 'I' for Inactive)
REMARK    1  A    between atoms: C2_2  and  N1_3
REMARK    2  A    between atoms: C3_6  and  C4_7
REMARK    3  A    between atoms: C4_7  and  O1_8
REMARK    4  A    between atoms: C4_7  and  C5_10
REMARK    5  A    between atoms: C8_13  and  C9_14
ROOT
HETATM    1  N1  UNL     1      81.183   4.867  60.904  1.00  0.00    -0.275 N
HETATM    2  N2  UNL     1      82.305   4.734  60.152  1.00  0.00    -0.283 N
ATOM      3  H2  UNL     1      82.948   5.495  59.934  1.00  0.00     0.188 HD
HETATM    4  C3  UNL     1      82.453   3.479  59.738  1.00  0.00     0.131 A
HETATM    5  N3  UNL     1      81.418   2.813  60.232  1.00  0.00    -0.327 N
ATOM      6  H3  UNL     1      81.237   1.818  60.095  1.00  0.00     0.169 HD
HETATM    7  C17 UNL     1      80.626   3.670  60.958  1.00  0.00     0.134 A
HETATM    8  C18 UNL     1      79.409   3.186  61.572  1.00  0.00     0.010 A
HETATM    9  C19 UNL     1      78.612   3.888  62.422  1.00  0.00     0.018 A
HETATM   10  C20 UNL     1      77.415   3.364  62.955  1.00  0.00     0.043 A
HETATM   11  C21 UNL     1      77.006   2.099  62.627  1.00  0.00     0.116 A
HETATM   12  F2  UNL     1      75.848   1.634  63.162  1.00  0.00    -0.206 F
HETATM   13  C22 UNL     1      77.787   1.369  61.777  1.00  0.00     0.043 A
HETATM   14  C23 UNL     1      78.949   1.890  61.263  1.00  0.00     0.018 A
ENDROOT
BRANCH   4  15
HETATM   15  C4  UNL     1      83.550   2.899  58.889  1.00  0.00     0.220 C
BRANCH  15  16
HETATM   16  O1  UNL     1      83.149   1.660  58.392  1.00  0.00    -0.383 OA
ATOM     17  H1  UNL     1      83.863   1.267  57.904  1.00  0.00     0.211 HD
ENDBRANCH  15  16
BRANCH  15  18
HETATM   18  C5  UNL     1      84.697   2.656  59.799  1.00  0.00    -0.022 A
HETATM   19  C6  UNL     1      85.567   3.702  60.014  1.00  0.00     0.011 A
HETATM   20  C7  UNL     1      86.648   3.535  60.850  1.00  0.00     0.013 A
HETATM   21  C8  UNL     1      86.909   2.344  61.495  1.00  0.00    -0.023 A
HETATM   22  C15 UNL     1      86.005   1.315  61.251  1.00  0.00     0.013 A
HETATM   23  C16 UNL     1      84.933   1.471  60.426  1.00  0.00     0.011 A
BRANCH  21  24
HETATM   24  C9  UNL     1      88.055   2.160  62.385  1.00  0.00     0.013 A
HETATM   25  C10 UNL     1      89.338   2.285  61.877  1.00  0.00     0.015 A
HETATM   26  C11 UNL     1      90.399   2.109  62.731  1.00  0.00     0.001 A
HETATM   27  C12 UNL     1      90.257   1.814  64.074  1.00  0.00     0.003 A
HETATM   28  C13 UNL     1      88.984   1.693  64.570  1.00  0.00     0.043 A
HETATM   29  C14 UNL     1      87.891   1.866  63.729  1.00  0.00     0.127 A
HETATM   30  F1  UNL     1      86.642   1.736  64.265  1.00  0.00    -0.205 F
ENDBRANCH  21  24
ENDBRANCH  15  18
ENDBRANCH   4  15
BRANCH   1  31
HETATM   31  C2  UNL     1      80.771   6.140  61.485  1.00  0.00     0.146 C
HETATM   32  C1  UNL     1      81.592   6.547  62.672  1.00  0.00     0.028 C
ENDBRANCH   1  31
TORSDOF 5
ENDMDL