MODEL 5
REMARK VINA RESULT: -9.437780713      2.346      8.006
REMARK  5 active torsions:
REMARK  status: ('A' for Active; 'I' for Inactive)
REMARK    1  A    between atoms: C1_2  and  C2_4
REMARK    2  A    between atoms: N2_13  and  C9_14
REMARK    3  A    between atoms: C13_20  and  C14_21
REMARK    4  A    between atoms: C14_21  and  C15_22
REMARK    5  A    between atoms: C15_22  and  C16_23
ROOT
HETATM    1  C9  UNL     1      85.370   2.197  60.856  1.00  0.00     0.115 A
HETATM    2  C10 UNL     1      86.602   2.761  60.590  1.00  0.00     0.051 A
HETATM    3  C11 UNL     1      87.655   2.731  61.482  1.00  0.00     0.037 A
HETATM    4  C12 UNL     1      87.451   2.102  62.694  1.00  0.00     0.078 A
HETATM    5  N3  UNL     1      88.226   1.885  63.775  1.00  0.00    -0.343 N
ATOM      6  H3  UNL     1      89.195   2.189  63.871  1.00  0.00     0.167 HD
HETATM    7  C13 UNL     1      87.534   1.208  64.710  1.00  0.00     0.083 A
HETATM    8  N4  UNL     1      86.317   0.997  64.215  1.00  0.00    -0.330 N
ATOM      9  H4  UNL     1      85.566   0.504  64.698  1.00  0.00     0.168 HD
HETATM   10  C22 UNL     1      86.222   1.535  62.967  1.00  0.00     0.135 A
HETATM   11  N5  UNL     1      85.232   1.595  62.059  1.00  0.00    -0.326 N
ATOM     12  H5  UNL     1      84.335   1.167  62.289  1.00  0.00     0.169 HD
ENDROOT
BRANCH   1  13
HETATM   13  N2  UNL     1      84.290   2.229  59.939  1.00  0.00    -0.280 N
HETATM   14  C2  UNL     1      84.088   1.390  58.913  1.00  0.00     0.156 A
HETATM   15  N1  UNL     1      82.960   1.722  58.255  1.00  0.00    -0.339 N
HETATM   16  C3  UNL     1      82.409   2.793  58.852  1.00  0.00     0.061 A
ATOM     17  H1  UNL     1      82.586   1.240  57.437  1.00  0.00     0.167 HD
HETATM   18  C4  UNL     1      81.279   3.538  58.610  1.00  0.00     0.032 A
HETATM   19  C8  UNL     1      83.268   3.096  59.914  1.00  0.00     0.069 A
HETATM   20  C5  UNL     1      81.009   4.586  59.432  1.00  0.00     0.002 A
HETATM   21  C6  UNL     1      81.822   4.935  60.498  1.00  0.00     0.002 A
HETATM   22  C7  UNL     1      82.949   4.184  60.731  1.00  0.00     0.032 A
BRANCH  14  23
HETATM   23  C1  UNL     1      84.999   0.264  58.577  1.00  0.00     0.420 C
HETATM   24  F1  UNL     1      84.462  -0.454  57.516  1.00  0.00    -0.206 F
HETATM   25  F2  UNL     1      86.232   0.756  58.148  1.00  0.00    -0.206 F
ENDBRANCH  14  23
ENDBRANCH   1  13
BRANCH   7  26
HETATM   26  C14 UNL     1      88.025   0.764  66.063  1.00  0.00     0.081 C
BRANCH  26  27
HETATM   27  C15 UNL     1      86.847   0.816  67.040  1.00  0.00     0.046 C
BRANCH  27  28
HETATM   28  C16 UNL     1      86.405  -0.584  67.232  1.00  0.00    -0.058 A
HETATM   29  C17 UNL     1      85.276  -1.055  66.572  1.00  0.00     0.007 A
HETATM   30  C18 UNL     1      84.860  -2.354  66.745  1.00  0.00     0.001 A
HETATM   31  C19 UNL     1      85.568  -3.182  67.574  1.00  0.00     0.000 A
HETATM   32  C20 UNL     1      86.690  -2.743  68.240  1.00  0.00     0.001 A
HETATM   33  C21 UNL     1      87.095  -1.439  68.058  1.00  0.00     0.007 A
ENDBRANCH  27  28
ENDBRANCH  26  27
ENDBRANCH   7  26
TORSDOF 5
ENDMDL