MODEL 4
REMARK VINA RESULT: -7.339883556      3.319      4.720
REMARK  8 active torsions:
REMARK  status: ('A' for Active; 'I' for Inactive)
REMARK    1  A    between atoms: O1_1  and  C1_3
REMARK    2  A    between atoms: C1_3  and  C2_4
REMARK    3  A    between atoms: C3_5  and  C4_6
REMARK    4  A    between atoms: C6_12  and  S1_13
REMARK    5  A    between atoms: S1_13  and  C7_14
REMARK    6  A    between atoms: C7_14  and  C8_15
REMARK    7  A    between atoms: C14_21  and  C15_22
REMARK    8  A    between atoms: C18_25  and  C19_26
ROOT
HETATM    1  C4  UNL     1      89.019   1.694  64.113  1.00  0.00     0.101 A
HETATM    2  N1  UNL     1      90.297   2.116  63.926  1.00  0.00    -0.345 N
ATOM      3  H1  UNL     1      90.977   2.048  64.683  1.00  0.00     0.167 HD
HETATM    4  C5  UNL     1      90.661   2.625  62.729  1.00  0.00     0.182 A
HETATM    5  N2  UNL     1      89.753   2.704  61.756  1.00  0.00    -0.346 N
ATOM      6  H2  UNL     1      90.052   3.092  60.862  1.00  0.00     0.167 HD
HETATM    7  C6  UNL     1      88.471   2.309  61.867  1.00  0.00     0.085 A
HETATM    8  C14 UNL     1      88.094   1.785  63.092  1.00  0.00     0.043 A
ENDROOT
BRANCH   8   9
HETATM    9  C15 UNL     1      86.737   1.347  63.354  1.00  0.00    -0.020 A
HETATM   10  C16 UNL     1      85.975   1.838  64.392  1.00  0.00     0.013 A
HETATM   11  C17 UNL     1      84.683   1.367  64.605  1.00  0.00     0.013 A
HETATM   12  C18 UNL     1      84.145   0.403  63.784  1.00  0.00     0.006 A
HETATM   13  C20 UNL     1      84.916  -0.097  62.729  1.00  0.00     0.013 A
HETATM   14  C21 UNL     1      86.182   0.386  62.546  1.00  0.00     0.013 A
BRANCH  12  15
HETATM   15  C19 UNL     1      82.774  -0.134  63.962  1.00  0.00     0.386 C
HETATM   16  F1  UNL     1      82.007   0.880  64.550  1.00  0.00    -0.209 F
HETATM   17  F2  UNL     1      82.745  -1.273  64.738  1.00  0.00    -0.209 F
ENDBRANCH  12  15
ENDBRANCH   8   9
BRANCH   1  18
HETATM   18  C3  UNL     1      88.583   1.146  65.389  1.00  0.00    -0.046 C
HETATM   19  C2  UNL     1      88.241   0.680  66.457  1.00  0.00    -0.074 C
BRANCH  19  20
HETATM   20  C1  UNL     1      87.847   0.094  67.747  1.00  0.00     0.258 C
BRANCH  20  21
HETATM   21  O1  UNL     1      88.990  -0.159  68.541  1.00  0.00    -0.389 OA
ATOM     22  H1  UNL     1      88.972  -1.050  68.871  1.00  0.00     0.210 HD
ENDBRANCH  20  21
ENDBRANCH  19  20
ENDBRANCH   1  18
BRANCH   7  23
HETATM   23  S1  UNL     1      87.315   2.478  60.518  1.00  0.00    -0.107 SA
BRANCH  23  24
HETATM   24  C7  UNL     1      86.306   3.961  60.736  1.00  0.00     0.119 C
BRANCH  24  25
HETATM   25  C8  UNL     1      84.924   3.640  61.164  1.00  0.00    -0.049 A
HETATM   26  C9  UNL     1      84.368   4.227  62.279  1.00  0.00     0.008 A
HETATM   27  C10 UNL     1      83.090   3.963  62.709  1.00  0.00     0.001 A
HETATM   28  C11 UNL     1      82.309   3.078  62.008  1.00  0.00     0.000 A
HETATM   29  C12 UNL     1      82.841   2.474  60.883  1.00  0.00     0.001 A
HETATM   30  C13 UNL     1      84.125   2.752  60.472  1.00  0.00     0.008 A
ENDBRANCH  24  25
ENDBRANCH  23  24
ENDBRANCH   7  23
TORSDOF 8
ENDMDL