MODEL 4
REMARK VINA RESULT: -7.919123927      1.956      3.578
REMARK  6 active torsions:
REMARK  status: ('A' for Active; 'I' for Inactive)
REMARK    1  A    between atoms: C2_2  and  C3_3
REMARK    2  A    between atoms: C6_6  and  C7_7
REMARK    3  A    between atoms: C7_7  and  C8_8
REMARK    4  A    between atoms: C8_8  and  N1_9
REMARK    5  A    between atoms: N1_9  and  C9_11
REMARK    6  A    between atoms: C13_20  and  C14_21
ROOT
HETATM    1  C9  UNL     1      86.985   1.481  64.228  1.00  0.00     0.116 A
HETATM    2  N2  UNL     1      86.892   1.104  65.514  1.00  0.00    -0.338 N
ATOM      3  H2  UNL     1      85.958   0.894  65.868  1.00  0.00     0.168 HD
HETATM    4  C10 UNL     1      87.903   0.978  66.370  1.00  0.00     0.182 A
HETATM    5  N3  UNL     1      89.127   1.254  65.896  1.00  0.00    -0.346 N
ATOM      6  H3  UNL     1      89.935   1.172  66.512  1.00  0.00     0.167 HD
HETATM    7  C11 UNL     1      89.305   1.646  64.593  1.00  0.00     0.089 A
HETATM    8  S1  UNL     1      90.681   2.084  63.684  1.00  0.00    -0.082 SA
HETATM    9  C12 UNL     1      89.938   2.424  62.205  1.00  0.00     0.065 A
HETATM   10  C13 UNL     1      88.599   2.184  62.450  1.00  0.00    -0.003 A
HETATM   11  C20 UNL     1      88.275   1.778  63.705  1.00  0.00     0.053 A
ENDROOT
BRANCH   1  12
HETATM   12  N1  UNL     1      85.939   1.596  63.491  1.00  0.00    -0.375 N
ATOM     13  H1  UNL     1      86.060   1.813  62.502  1.00  0.00     0.161 HD
BRANCH  12  14
HETATM   14  C8  UNL     1      84.609   1.433  64.001  1.00  0.00     0.128 C
BRANCH  14  15
HETATM   15  C7  UNL     1      83.672   1.148  62.847  1.00  0.00     0.084 C
BRANCH  15  16
HETATM   16  C6  UNL     1      83.246   2.434  62.223  1.00  0.00     0.054 A
HETATM   17  C5  UNL     1      83.268   3.681  62.831  1.00  0.00     0.035 A
HETATM   18  C4  UNL     1      82.797   4.598  61.920  1.00  0.00     0.035 A
HETATM   19  C3  UNL     1      82.501   3.883  60.784  1.00  0.00     0.053 A
HETATM   20  O1  UNL     1      82.780   2.641  61.018  1.00  0.00    -0.319 OA
BRANCH  19  21
HETATM   21  C2  UNL     1      81.950   4.444  59.498  1.00  0.00     0.060 C
HETATM   22  C1  UNL     1      81.585   3.236  58.640  1.00  0.00     0.012 C
ENDBRANCH  19  21
ENDBRANCH  15  16
ENDBRANCH  14  15
ENDBRANCH  12  14
ENDBRANCH   1  12
BRANCH  10  23
HETATM   23  C14 UNL     1      87.639   2.333  61.308  1.00  0.00    -0.024 A
HETATM   24  C15 UNL     1      87.336   1.260  60.502  1.00  0.00     0.015 A
HETATM   25  C16 UNL     1      86.415   1.329  59.477  1.00  0.00     0.043 A
HETATM   26  C17 UNL     1      85.791   2.542  59.282  1.00  0.00     0.116 A
HETATM   27  F1  UNL     1      84.876   2.688  58.296  1.00  0.00    -0.206 F
HETATM   28  C18 UNL     1      86.055   3.652  60.057  1.00  0.00     0.043 A
HETATM   29  C19 UNL     1      86.985   3.515  61.064  1.00  0.00     0.015 A
ENDBRANCH  10  23
TORSDOF 6
ENDMDL