MODEL 2
REMARK VINA RESULT: -7.588753979      1.114      1.407
REMARK  6 active torsions:
REMARK  status: ('A' for Active; 'I' for Inactive)
REMARK    1  A    between atoms: C2_2  and  C3_3
REMARK    2  A    between atoms: C3_3  and  N1_5
REMARK    3  A    between atoms: N1_5  and  C5_7
REMARK    4  A    between atoms: C6_10  and  S1_11
REMARK    5  A    between atoms: S1_11  and  C7_12
REMARK    6  A    between atoms: C7_12  and  C8_13
ROOT
HETATM    1  C5  UNL     1      82.696   3.358  60.354  1.00  0.00     0.163 A
HETATM    2  N2  UNL     1      83.861   2.796  60.685  1.00  0.00    -0.316 N
ATOM      3  H2  UNL     1      84.170   2.754  61.657  1.00  0.00     0.170 HD
HETATM    4  C6  UNL     1      84.592   2.302  59.725  1.00  0.00     0.152 A
HETATM    5  N3  UNL     1      84.138   2.386  58.479  1.00  0.00    -0.304 N
ATOM      6  H3  UNL     1      84.579   2.053  57.621  1.00  0.00     0.176 HD
HETATM    7  S2  UNL     1      82.662   3.169  58.656  1.00  0.00     0.024 SA
ENDROOT
BRANCH   4   8
HETATM    8  S1  UNL     1      86.206   1.510  60.016  1.00  0.00    -0.089 SA
BRANCH   8   9
HETATM    9  C7  UNL     1      87.359   2.829  60.486  1.00  0.00     0.121 C
BRANCH   9  10
HETATM   10  C8  UNL     1      87.942   2.459  61.808  1.00  0.00    -0.047 A
HETATM   11  C9  UNL     1      87.134   2.113  62.881  1.00  0.00     0.011 A
HETATM   12  C10 UNL     1      87.678   1.771  64.100  1.00  0.00     0.044 A
HETATM   13  C11 UNL     1      89.058   1.766  64.283  1.00  0.00     0.133 A
HETATM   14  F1  UNL     1      89.520   1.418  65.513  1.00  0.00    -0.205 F
HETATM   15  C12 UNL     1      89.878   2.107  63.233  1.00  0.00     0.050 A
HETATM   16 BR1  UNL     1      91.757   2.087  63.522  1.00  0.00    -0.048 Br
HETATM   17  C13 UNL     1      89.310   2.443  62.027  1.00  0.00     0.030 A
ENDBRANCH   9  10
ENDBRANCH   8   9
ENDBRANCH   4   8
BRANCH   1  18
HETATM   18  N1  UNL     1      81.824   3.905  61.172  1.00  0.00    -0.365 N
ATOM     19  H1  UNL     1      81.193   3.305  61.703  1.00  0.00     0.162 HD
BRANCH  18  20
HETATM   20  C3  UNL     1      81.744   5.322  61.330  1.00  0.00     0.079 C
HETATM   21  C4  UNL     1      80.343   5.832  61.144  1.00  0.00     0.032 C
BRANCH  20  22
HETATM   22  C2  UNL     1      82.257   5.664  62.721  1.00  0.00     0.020 C
HETATM   23  C1  UNL     1      81.885   7.098  63.081  1.00  0.00     0.007 C
ENDBRANCH  20  22
ENDBRANCH  18  20
ENDBRANCH   1  18
TORSDOF 6
ENDMDL