MODEL 1
REMARK VINA RESULT: -9.470286874      0.000      0.000
REMARK  6 active torsions:
REMARK  status: ('A' for Active; 'I' for Inactive)
REMARK    1  A    between atoms: O1_1  and  C1_3
REMARK    2  A    between atoms: C1_3  and  C2_4
REMARK    3  A    between atoms: C1_3  and  C16_23
REMARK    4  A    between atoms: C2_4  and  N1_5
REMARK    5  A    between atoms: C4_9  and  C5_10
REMARK    6  A    between atoms: C11_17  and  C12_18
ROOT
HETATM    1  N1  UNL     1      85.056   3.485  59.108  1.00  0.00    -0.288 N
HETATM    2  N2  UNL     1      86.224   3.234  58.517  1.00  0.00    -0.308 N
ATOM      3  H2  UNL     1      86.421   3.366  57.525  1.00  0.00     0.186 HD
HETATM    4  C3  UNL     1      87.095   2.784  59.417  1.00  0.00     0.122 A
HETATM    5  C4  UNL     1      86.443   2.747  60.647  1.00  0.00     0.020 A
HETATM    6  C11 UNL     1      85.174   3.197  60.388  1.00  0.00     0.074 A
ENDROOT
BRANCH   1   7
HETATM    7  C2  UNL     1      83.917   3.989  58.394  1.00  0.00     0.185 C
BRANCH   7   8
HETATM    8  C1  UNL     1      82.785   3.012  58.256  1.00  0.00     0.171 C
BRANCH   8   9
HETATM    9  O1  UNL     1      82.440   2.734  56.940  1.00  0.00    -0.389 OA
ATOM     10  H1  UNL     1      81.986   3.444  56.503  1.00  0.00     0.210 HD
ENDBRANCH   8   9
BRANCH   8  11
HETATM   11  C16 UNL     1      81.581   3.400  59.033  1.00  0.00    -0.028 A
HETATM   12  C17 UNL     1      81.393   4.730  59.333  1.00  0.00     0.013 A
HETATM   13  C18 UNL     1      80.259   5.069  60.062  1.00  0.00     0.043 A
HETATM   14  C19 UNL     1      79.336   4.134  60.485  1.00  0.00     0.116 A
HETATM   15  F2  UNL     1      78.256   4.567  61.194  1.00  0.00    -0.206 F
HETATM   16  C20 UNL     1      79.526   2.801  60.182  1.00  0.00     0.043 A
HETATM   17  C21 UNL     1      80.649   2.458  59.459  1.00  0.00     0.013 A
ENDBRANCH   8  11
ENDBRANCH   7   8
ENDBRANCH   1   7
BRANCH   6  18
HETATM   18  C12 UNL     1      84.128   3.332  61.442  1.00  0.00     0.000 A
HETATM   19  C13 UNL     1      83.846   4.464  62.096  1.00  0.00     0.021 A
HETATM   20  C14 UNL     1      82.857   4.439  63.035  1.00  0.00     0.050 A
HETATM   21  S1  UNL     1      82.335   2.816  62.988  1.00  0.00    -0.113 SA
HETATM   22  C15 UNL     1      83.384   2.224  61.781  1.00  0.00     0.063 A
ENDBRANCH   6  18
BRANCH   5  23
HETATM   23  C5  UNL     1      87.049   2.313  61.895  1.00  0.00    -0.022 A
HETATM   24  C6  UNL     1      86.309   1.715  62.886  1.00  0.00     0.015 A
HETATM   25  C7  UNL     1      86.875   1.296  64.082  1.00  0.00     0.043 A
HETATM   26  C8  UNL     1      88.218   1.472  64.304  1.00  0.00     0.116 A
HETATM   27  F1  UNL     1      88.788   1.060  65.484  1.00  0.00    -0.206 F
HETATM   28  C9  UNL     1      88.980   2.067  63.329  1.00  0.00     0.043 A
HETATM   29  C10 UNL     1      88.397   2.485  62.128  1.00  0.00     0.015 A
ENDBRANCH   5  23
TORSDOF 6
ENDMDL