MODEL 4
REMARK VINA RESULT: -7.164369796      2.376      6.770
REMARK  7 active torsions:
REMARK  status: ('A' for Active; 'I' for Inactive)
REMARK    1  A    between atoms: C2_2  and  C3_3
REMARK    2  A    between atoms: C3_3  and  C4_4
REMARK       I    between atoms: C4_4  and  N1_6
REMARK    3  A    between atoms: C7_9  and  C8_10
REMARK    4  A    between atoms: C7_9  and  C11_13
REMARK    5  A    between atoms: C8_10  and  C9_11
REMARK    6  A    between atoms: C11_13  and  N3_18
REMARK    7  A    between atoms: N2_14  and  O2_16
ROOT
HETATM    1  C4  UNL     1      80.914   4.024  61.742  1.00  0.00     0.219 C
HETATM    2  O1  UNL     1      80.697   4.718  62.774  1.00  0.00    -0.273 OA
HETATM    3  N1  UNL     1      82.228   3.586  61.415  1.00  0.00    -0.348 N
HETATM    4  C5  UNL     1      83.298   3.948  62.278  1.00  0.00     0.127 C
HETATM    5  C6  UNL     1      84.671   3.927  61.652  1.00  0.00     0.042 C
HETATM    6  C7  UNL     1      84.859   2.730  60.755  1.00  0.00     0.073 C
HETATM    7  C17 UNL     1      83.785   2.795  59.679  1.00  0.00     0.209 C
HETATM    8  F1  UNL     1      83.913   3.900  58.865  1.00  0.00    -0.222 F
HETATM    9 CL1  UNL     1      83.965   1.354  58.660  1.00  0.00    -0.079 Cl
HETATM   10  C18 UNL     1      82.399   2.807  60.235  1.00  0.00     0.187 C
ENDROOT
BRANCH   6  11
HETATM   11  C8  UNL     1      84.568   1.442  61.487  1.00  0.00     0.022 C
BRANCH  11  12
HETATM   12  C9  UNL     1      85.059   1.329  62.866  1.00  0.00    -0.003 C
HETATM   13  C10 UNL     1      84.863  -0.132  63.309  1.00  0.00     0.005 C
ENDBRANCH  11  12
ENDBRANCH   6  11
BRANCH   6  14
HETATM   14  C11 UNL     1      86.172   2.663  60.134  1.00  0.00     0.113 C
HETATM   15  N2  UNL     1      86.311   3.084  58.901  1.00  0.00    -0.256 N
ATOM     16  H2  UNL     1      85.501   3.450  58.401  1.00  0.00     0.195 HD
BRANCH  15  17
HETATM   17  O2  UNL     1      87.505   3.041  58.286  1.00  0.00    -0.288 OA
ATOM     18  H2  UNL     1      88.134   2.359  58.487  1.00  0.00     0.244 HD
ENDBRANCH  15  17
BRANCH  14  19
HETATM   19  N3  UNL     1      87.372   2.202  60.728  1.00  0.00    -0.369 N
HETATM   20  C12 UNL     1      88.107   3.005  61.663  1.00  0.00     0.124 C
HETATM   21  C13 UNL     1      89.094   2.083  62.401  1.00  0.00     0.020 C
HETATM   22  C14 UNL     1      90.101   1.682  61.335  1.00  0.00     0.003 C
HETATM   23  C15 UNL     1      89.409   0.920  60.236  1.00  0.00     0.020 C
HETATM   24  C16 UNL     1      87.904   0.915  60.402  1.00  0.00     0.124 C
ENDBRANCH  14  19
ENDBRANCH   6  14
BRANCH   1  25
HETATM   25  C3  UNL     1      79.734   3.695  60.901  1.00  0.00     0.103 C
BRANCH  25  26
HETATM   26  C2  UNL     1      79.010   4.946  60.459  1.00  0.00     0.005 C
HETATM   27  C1  UNL     1      79.895   5.639  59.440  1.00  0.00     0.005 C
ENDBRANCH  25  26
ENDBRANCH   1  25
TORSDOF 7
ENDMDL