MODEL 4
REMARK VINA RESULT: -8.320678197      2.247      3.184
REMARK  9 active torsions:
REMARK  status: ('A' for Active; 'I' for Inactive)
REMARK    1  A    between atoms: C2_2  and  N1_4
REMARK    2  A    between atoms: N1_4  and  C4_5
REMARK    3  A    between atoms: N1_4  and  C14_19
REMARK    4  A    between atoms: C4_5  and  C5_6
REMARK    5  A    between atoms: C6_9  and  C7_10
REMARK    6  A    between atoms: C14_19  and  C16_21
REMARK    7  A    between atoms: C16_21  and  C17_22
REMARK    8  A    between atoms: C17_22  and  O1_24
REMARK    9  A    between atoms: C17_22  and  C19_26
ROOT
HETATM    1  N1  UNL     1       7.671   2.868  42.070  1.00  0.00     0.102 N
ENDROOT
BRANCH   1   2
HETATM    2  C2  UNL     1       7.678   2.274  40.766  1.00  0.00     0.216 C
HETATM    3  C1  UNL     1       8.367   0.886  40.819  1.00  0.00     0.042 C
HETATM    4  C3  UNL     1       8.206   3.046  39.614  1.00  0.00     0.042 C
ENDBRANCH   1   2
BRANCH   1   5
HETATM    5  C4  UNL     1       6.270   3.331  42.294  1.00  0.00     0.338 C
BRANCH   5   6
HETATM    6  C5  UNL     1       5.274   2.262  42.511  1.00  0.00     0.079 A
HETATM    7  N2  UNL     1       4.050   2.163  42.023  1.00  0.00    -0.351 N
HETATM    8  C6  UNL     1       3.309   1.142  42.290  1.00  0.00     0.049 A
ATOM      9  H2  UNL     1       3.686   2.905  41.425  1.00  0.00     0.166 HD
HETATM   10  C13 UNL     1       3.839   0.164  43.100  1.00  0.00     0.081 A
HETATM   11  S1  UNL     1       5.387   0.809  43.414  1.00  0.00    -0.085 SA
BRANCH   8  12
HETATM   12  C7  UNL     1       1.930   1.012  41.748  1.00  0.00    -0.009 A
HETATM   13  C8  UNL     1       1.698   0.596  40.464  1.00  0.00     0.017 A
HETATM   14  C9  UNL     1       0.423   0.470  39.941  1.00  0.00     0.043 A
HETATM   15  C10 UNL     1      -0.659   0.763  40.706  1.00  0.00     0.116 A
HETATM   16  F1  UNL     1      -1.941   0.666  40.269  1.00  0.00    -0.206 F
HETATM   17  C11 UNL     1      -0.463   1.187  42.010  1.00  0.00     0.043 A
HETATM   18  C12 UNL     1       0.812   1.304  42.506  1.00  0.00     0.017 A
ENDBRANCH   8  12
ENDBRANCH   5   6
ENDBRANCH   1   5
BRANCH   1  19
HETATM   19  C14 UNL     1       8.480   3.965  42.391  1.00  0.00     0.223 C
HETATM   20  C15 UNL     1       9.976   3.702  42.562  1.00  0.00     0.043 C
BRANCH  19  21
HETATM   21  C16 UNL     1       8.006   4.661  43.642  1.00  0.00     0.082 C
BRANCH  21  22
HETATM   22  C17 UNL     1       8.278   4.282  44.992  1.00  0.00     0.153 C
HETATM   23  C18 UNL     1       9.592   4.880  45.583  1.00  0.00     0.055 C
BRANCH  22  24
HETATM   24  O1  UNL     1       7.328   5.078  45.749  1.00  0.00    -0.381 OA
ATOM     25  H1  UNL     1       6.536   5.014  45.228  1.00  0.00     0.211 HD
ENDBRANCH  22  24
BRANCH  22  26
HETATM   26  C19 UNL     1       8.120   2.946  45.589  1.00  0.00     0.417 C
HETATM   27  F2  UNL     1       6.773   2.773  46.051  1.00  0.00    -0.168 F
HETATM   28  F3  UNL     1       8.798   2.885  46.812  1.00  0.00    -0.168 F
HETATM   29  F4  UNL     1       8.327   1.850  44.844  1.00  0.00    -0.168 F
ENDBRANCH  22  26
ENDBRANCH  21  22
ENDBRANCH  19  21
ENDBRANCH   1  19
TORSDOF 9
ENDMDL