MODEL 4
REMARK VINA RESULT: -7.320063638      2.087      2.946
REMARK  9 active torsions:
REMARK  status: ('A' for Active; 'I' for Inactive)
REMARK    1  A    between atoms: C2_2  and  C3_3
REMARK    2  A    between atoms: C3_3  and  C4_4
REMARK    3  A    between atoms: C5_5  and  C6_6
REMARK    4  A    between atoms: C6_6  and  C7_7
REMARK    5  A    between atoms: C7_7  and  O1_8
REMARK    6  A    between atoms: C7_7  and  C8_11
REMARK    7  A    between atoms: C8_11  and  C9_12
REMARK    8  A    between atoms: C8_11  and  C13_19
REMARK    9  A    between atoms: C10_13  and  C11_15
ROOT
HETATM    1  C8  UNL     1       5.886   1.388  44.374  1.00  0.00     0.136 C
ENDROOT
BRANCH   1   2
HETATM    2  C7  UNL     1       4.689   2.230  44.745  1.00  0.00     0.151 C
HETATM    3 CL1  UNL     1       3.602   1.337  45.854  1.00  0.00    -0.087 Cl
BRANCH   2   4
HETATM    4  C6  UNL     1       3.901   2.744  43.589  1.00  0.00     0.082 C
BRANCH   4   5
HETATM    5  C5  UNL     1       2.511   2.226  43.732  1.00  0.00    -0.026 C
HETATM    6  C4  UNL     1       1.881   1.562  42.773  1.00  0.00    -0.030 C
BRANCH   6   7
HETATM    7  C3  UNL     1       0.514   1.086  42.989  1.00  0.00     0.026 C
BRANCH   7   8
HETATM    8  C2  UNL     1      -0.417   1.361  41.841  1.00  0.00    -0.001 C
HETATM    9  C1  UNL     1      -0.025   0.700  40.565  1.00  0.00     0.005 C
ENDBRANCH   7   8
ENDBRANCH   6   7
ENDBRANCH   4   5
ENDBRANCH   2   4
BRANCH   2  10
HETATM   10  O1  UNL     1       5.157   3.324  45.475  1.00  0.00    -0.373 OA
ATOM     11  H1  UNL     1       4.407   3.789  45.827  1.00  0.00     0.212 HD
ENDBRANCH   2  10
ENDBRANCH   1   2
BRANCH   1  12
HETATM   12  C9  UNL     1       5.933   1.053  42.944  1.00  0.00     0.013 C
HETATM   13  C10 UNL     1       5.344  -0.012  42.414  1.00  0.00     0.047 C
HETATM   14 CL2  UNL     1       4.464  -1.069  43.502  1.00  0.00    -0.086 Cl
BRANCH  13  15
HETATM   15  C11 UNL     1       5.384  -0.358  40.990  1.00  0.00     0.147 C
HETATM   16  C12 UNL     1       6.376   0.471  40.207  1.00  0.00     0.056 C
HETATM   17 CL3  UNL     1       5.700  -2.092  40.792  1.00  0.00    -0.096 Cl
HETATM   18 CL4  UNL     1       3.765  -0.043  40.283  1.00  0.00    -0.096 Cl
ENDBRANCH  13  15
ENDBRANCH   1  12
BRANCH   1  19
HETATM   19  C13 UNL     1       7.140   1.964  44.903  1.00  0.00     0.152 A
HETATM   20  N1  UNL     1       7.798   1.624  46.029  1.00  0.00    -0.281 N
HETATM   21  N2  UNL     1       8.862   2.405  46.094  1.00  0.00    -0.282 N
ATOM     22  H1  UNL     1       7.528   0.905  46.699  1.00  0.00     0.189 HD
HETATM   23  C14 UNL     1       8.876   3.220  45.035  1.00  0.00     0.136 A
ATOM     24  H2  UNL     1       9.562   2.388  46.836  1.00  0.00     0.189 HD
HETATM   25  C15 UNL     1       9.887   4.272  44.688  1.00  0.00     0.099 C
HETATM   26  O2  UNL     1       7.827   2.929  44.339  1.00  0.00    -0.282 OA
ENDBRANCH   1  19
TORSDOF 9
ENDMDL