MODEL 3
REMARK VINA RESULT: -9.130982318      0.753      1.785
REMARK  7 active torsions:
REMARK  status: ('A' for Active; 'I' for Inactive)
REMARK    1  A    between atoms: C7_11  and  C8_12
REMARK    2  A    between atoms: C8_12  and  C9_15
REMARK    3  A    between atoms: C9_15  and  C10_16
REMARK    4  A    between atoms: C10_16  and  C11_17
REMARK    5  A    between atoms: C11_17  and  C12_18
REMARK    6  A    between atoms: C12_18  and  N1_19
REMARK    7  A    between atoms: N1_19  and  C13_21
ROOT
HETATM    1  C9  UNL     1       5.953   1.246  45.995  1.00  0.00     0.082 C
ENDROOT
BRANCH   1   2
HETATM    2  C8  UNL     1       6.073   2.734  45.745  1.00  0.00     0.270 C
HETATM    3  F3  UNL     1       5.940   3.297  47.037  1.00  0.00    -0.203 F
HETATM    4  F4  UNL     1       4.991   3.152  45.047  1.00  0.00    -0.203 F
BRANCH   2   5
HETATM    5  C7  UNL     1       7.403   3.171  45.245  1.00  0.00     0.209 A
HETATM    6  C2  UNL     1       7.743   3.233  43.834  1.00  0.00     0.038 A
HETATM    7  C1  UNL     1       6.741   2.875  42.770  1.00  0.00     0.023 C
HETATM    8  C3  UNL     1       9.113   2.667  43.509  1.00  0.00     0.025 C
HETATM    9  C6  UNL     1       7.839   4.708  44.040  1.00  0.00     0.278 A
HETATM   10  C4  UNL     1      10.193   3.176  44.425  1.00  0.00     0.113 C
HETATM   11  C5  UNL     1      10.090   4.672  44.589  1.00  0.00     0.356 C
HETATM   12  F1  UNL     1      11.271   5.302  44.217  1.00  0.00    -0.176 F
HETATM   13  F2  UNL     1       9.809   5.082  45.859  1.00  0.00    -0.176 F
HETATM   14  O1  UNL     1       9.120   5.129  43.718  1.00  0.00    -0.294 OA
HETATM   15  O2  UNL     1       7.536   4.547  45.366  1.00  0.00    -0.348 OA
ENDBRANCH   2   5
ENDBRANCH   1   2
BRANCH   1  16
HETATM   16  C10 UNL     1       5.127   0.600  44.917  1.00  0.00     0.008 C
BRANCH  16  17
HETATM   17  C11 UNL     1       3.784   0.140  45.397  1.00  0.00     0.020 C
BRANCH  17  18
HETATM   18  C12 UNL     1       2.639   0.922  44.861  1.00  0.00     0.120 C
BRANCH  18  19
HETATM   19  N1  UNL     1       3.008   1.504  43.596  1.00  0.00    -0.388 N
ATOM     20  H1  UNL     1       3.642   2.304  43.615  1.00  0.00     0.159 HD
BRANCH  19  21
HETATM   21  C13 UNL     1       2.561   1.054  42.325  1.00  0.00     0.056 A
HETATM   22  C14 UNL     1       3.339   0.580  41.297  1.00  0.00     0.049 A
HETATM   23  C15 UNL     1       2.534   0.255  40.212  1.00  0.00     0.099 A
HETATM   24  N2  UNL     1       1.276   0.535  40.590  1.00  0.00    -0.331 N
HETATM   25  C16 UNL     1       0.111   0.402  39.908  1.00  0.00     0.096 A
HETATM   26  C20 UNL     1       1.256   1.016  41.853  1.00  0.00     0.065 A
HETATM   27  C17 UNL     1      -1.121   0.739  40.444  1.00  0.00     0.018 A
HETATM   28  C18 UNL     1      -1.100   1.228  41.742  1.00  0.00     0.004 A
HETATM   29  C19 UNL     1       0.072   1.368  42.443  1.00  0.00     0.032 A
ENDBRANCH  19  21
ENDBRANCH  18  19
ENDBRANCH  17  18
ENDBRANCH  16  17
ENDBRANCH   1  16
TORSDOF 7
ENDMDL