MODEL 3
REMARK VINA RESULT: -7.775202196      1.990      2.775
REMARK  9 active torsions:
REMARK  status: ('A' for Active; 'I' for Inactive)
REMARK    1  A    between atoms: O1_1  and  C1_3
REMARK    2  A    between atoms: C1_3  and  C2_4
REMARK    3  A    between atoms: C1_3  and  C6_11
REMARK    4  A    between atoms: C1_3  and  C12_18
REMARK    5  A    between atoms: C2_4  and  N1_5
REMARK    6  A    between atoms: C12_18  and  C13_19
REMARK    7  A    between atoms: C12_18  and  S1_24
REMARK    8  A    between atoms: C13_19  and  C14_20
REMARK    9  A    between atoms: S1_24  and  C15_25
ROOT
HETATM    1  C1  UNL     1       3.586   0.827  42.874  1.00  0.00     0.114 C
ENDROOT
BRANCH   1   2
HETATM    2  O1  UNL     1       3.856  -0.526  43.218  1.00  0.00    -0.382 OA
ATOM      3  H1  UNL     1       3.190  -1.008  42.740  1.00  0.00     0.211 HD
ENDBRANCH   1   2
BRANCH   1   4
HETATM    4  C2  UNL     1       3.404   1.497  44.222  1.00  0.00     0.173 C
BRANCH   4   5
HETATM    5  N1  UNL     1       4.335   0.891  45.200  1.00  0.00    -0.348 N
HETATM    6  C3  UNL     1       5.562   1.395  45.462  1.00  0.00     0.108 A
HETATM    7  C4  UNL     1       6.154   0.605  46.422  1.00  0.00     0.106 A
HETATM    8  N2  UNL     1       5.250  -0.345  46.696  1.00  0.00    -0.361 N
HETATM    9  C5  UNL     1       4.136  -0.179  45.956  1.00  0.00     0.182 A
ATOM     10  H2  UNL     1       5.388  -1.095  47.374  1.00  0.00     0.166 HD
ENDBRANCH   4   5
ENDBRANCH   1   4
BRANCH   1  11
HETATM   11  C6  UNL     1       2.319   0.824  42.117  1.00  0.00    -0.021 A
HETATM   12  C7  UNL     1       1.146   1.134  42.783  1.00  0.00     0.013 A
HETATM   13  C8  UNL     1      -0.096   1.155  42.203  1.00  0.00     0.043 A
HETATM   14  C9  UNL     1      -0.205   0.852  40.870  1.00  0.00     0.116 A
HETATM   15  F1  UNL     1      -1.438   0.877  40.335  1.00  0.00    -0.206 F
HETATM   16  C10 UNL     1       0.928   0.539  40.169  1.00  0.00     0.043 A
HETATM   17  C11 UNL     1       2.185   0.524  40.780  1.00  0.00     0.013 A
ENDBRANCH   1  11
BRANCH   1  18
HETATM   18  C12 UNL     1       4.687   1.369  42.022  1.00  0.00     0.101 C
BRANCH  18  19
HETATM   19  C13 UNL     1       5.840   0.388  42.038  1.00  0.00     0.136 C
BRANCH  19  20
HETATM   20  C14 UNL     1       6.063  -0.212  40.663  1.00  0.00     0.389 C
HETATM   21  F2  UNL     1       7.167  -1.060  40.795  1.00  0.00    -0.171 F
HETATM   22  F3  UNL     1       5.010  -0.968  40.255  1.00  0.00    -0.171 F
HETATM   23  F4  UNL     1       6.430   0.775  39.787  1.00  0.00    -0.171 F
ENDBRANCH  19  20
ENDBRANCH  18  19
BRANCH  18  24
HETATM   24  S1  UNL     1       5.158   3.062  42.230  1.00  0.00    -0.121 SA
BRANCH  24  25
HETATM   25  C15 UNL     1       6.872   3.416  42.349  1.00  0.00     0.001 A
HETATM   26  C16 UNL     1       7.823   3.266  41.366  1.00  0.00     0.018 A
HETATM   27  C17 UNL     1       9.145   3.552  41.494  1.00  0.00     0.001 A
HETATM   28  C18 UNL     1       9.588   4.038  42.712  1.00  0.00     0.000 A
HETATM   29  C19 UNL     1       8.687   4.213  43.740  1.00  0.00     0.001 A
HETATM   30  C20 UNL     1       7.361   3.906  43.553  1.00  0.00     0.018 A
ENDBRANCH  24  25
ENDBRANCH  18  24
ENDBRANCH   1  18
TORSDOF 9
ENDMDL