MODEL 5
REMARK VINA RESULT: -7.461582438      0.883      1.328
REMARK  9 active torsions:
REMARK  status: ('A' for Active; 'I' for Inactive)
REMARK    1  A    between atoms: C6_6  and  C7_7
REMARK    2  A    between atoms: C8_8  and  C9_9
REMARK    3  A    between atoms: C9_9  and  C10_10
REMARK    4  A    between atoms: C10_10  and  C11_11
REMARK    5  A    between atoms: C15_19  and  C16_20
REMARK    6  A    between atoms: C16_20  and  O1_21
REMARK    7  A    between atoms: N2_23  and  C17_24
REMARK    8  A    between atoms: C17_24  and  C18_25
REMARK    9  A    between atoms: C18_25  and  C19_26
ROOT
HETATM    1  C1  UNL     1       8.997   1.832  42.556  1.00  0.00     0.042 C
HETATM    2  C2  UNL     1       7.600   2.435  42.551  1.00  0.00     0.039 C
HETATM    3  C3  UNL     1       7.594   3.525  41.515  1.00  0.00     0.042 C
HETATM    4  C4  UNL     1       6.698   1.352  42.007  1.00  0.00    -0.000 C
HETATM    5  C5  UNL     1       5.687   0.826  42.629  1.00  0.00    -0.018 C
HETATM    6  C6  UNL     1       5.351   1.315  44.020  1.00  0.00     0.055 C
HETATM    7  C15 UNL     1       6.705   1.756  44.617  1.00  0.00     0.114 C
HETATM    8  N2  UNL     1       7.256   2.816  43.851  1.00  0.00    -0.394 N
ENDROOT
BRANCH   6   9
HETATM    9  C7  UNL     1       4.444   2.445  43.866  1.00  0.00    -0.014 C
HETATM   10  C8  UNL     1       3.154   2.495  43.740  1.00  0.00     0.024 C
BRANCH  10  11
HETATM   11  C9  UNL     1       2.207   1.407  43.710  1.00  0.00     0.041 C
HETATM   12  N1  UNL     1       1.480   1.001  44.671  1.00  0.00    -0.228 N
HETATM   13  F1  UNL     1       0.625  -0.013  44.566  1.00  0.00    -0.102 F
ATOM     14  H1  UNL     1       1.555   1.478  45.570  1.00  0.00     0.199 HD
BRANCH  11  15
HETATM   15  C10 UNL     1       2.044   0.660  42.407  1.00  0.00     0.105 C
BRANCH  15  16
HETATM   16  C11 UNL     1       0.677   0.959  41.839  1.00  0.00    -0.012 A
HETATM   17  C12 UNL     1      -0.334   1.688  42.399  1.00  0.00     0.015 A
HETATM   18  C13 UNL     1      -1.465   1.816  41.697  1.00  0.00     0.008 A
HETATM   19  C14 UNL     1      -1.520   1.206  40.474  1.00  0.00     0.050 A
HETATM   20  S1  UNL     1       0.016   0.472  40.345  1.00  0.00    -0.106 SA
ENDBRANCH  15  16
ENDBRANCH  11  15
ENDBRANCH  10  11
ENDBRANCH   6   9
BRANCH   7  21
HETATM   21  C16 UNL     1       6.633   1.983  46.084  1.00  0.00     0.190 C
BRANCH  21  22
HETATM   22  O1  UNL     1       6.744   0.751  46.742  1.00  0.00    -0.399 OA
ATOM     23  H1  UNL     1       7.597   0.697  47.156  1.00  0.00     0.209 HD
ENDBRANCH  21  22
ENDBRANCH   7  21
BRANCH   8  24
HETATM   24  C17 UNL     1       7.499   4.059  44.384  1.00  0.00     0.127 C
BRANCH  24  25
HETATM   25  C18 UNL     1       8.709   4.035  45.330  1.00  0.00     0.137 C
BRANCH  25  26
HETATM   26  C19 UNL     1       9.913   4.666  44.657  1.00  0.00     0.389 C
HETATM   27  F2  UNL     1      10.473   5.541  45.568  1.00  0.00    -0.171 F
HETATM   28  F3  UNL     1      10.863   3.743  44.313  1.00  0.00    -0.171 F
HETATM   29  F4  UNL     1       9.554   5.407  43.542  1.00  0.00    -0.171 F
ENDBRANCH  25  26
ENDBRANCH  24  25
ENDBRANCH   8  24
TORSDOF 9
ENDMDL