MODEL 1
REMARK VINA RESULT: -7.750502237      0.000      0.000
REMARK  9 active torsions:
REMARK  status: ('A' for Active; 'I' for Inactive)
REMARK    1  A    between atoms: C2_2  and  C3_3
REMARK    2  A    between atoms: C3_3  and  C4_4
REMARK    3  A    between atoms: C4_4  and  N1_5
REMARK    4  A    between atoms: C5_10  and  C6_11
REMARK    5  A    between atoms: C8_13  and  C9_14
REMARK    6  A    between atoms: C9_14  and  O1_15
REMARK    7  A    between atoms: C9_14  and  C10_17
REMARK    8  A    between atoms: C9_14  and  C19_27
REMARK    9  A    between atoms: C10_17  and  C11_18
ROOT
HETATM    1  C9  UNL     1       3.758   1.205  43.579  1.00  0.00     0.205 C
ENDROOT
BRANCH   1   2
HETATM    2  C8  UNL     1       2.985   0.789  42.390  1.00  0.00     0.097 A
HETATM    3  N1  UNL     1       1.753   1.072  41.987  1.00  0.00    -0.277 N
HETATM    4  N2  UNL     1       1.629   0.608  40.683  1.00  0.00    -0.240 N
HETATM    5  N3  UNL     1       2.694   0.065  40.288  1.00  0.00    -0.288 N
ATOM      6  H2  UNL     1       0.784   0.696  40.118  1.00  0.00     0.208 HD
HETATM    7  C5  UNL     1       3.600   0.134  41.309  1.00  0.00     0.054 A
ATOM      8  H3  UNL     1       2.852  -0.351  39.370  1.00  0.00     0.188 HD
BRANCH   3   9
HETATM    9  C4  UNL     1       0.606   1.667  42.573  1.00  0.00     0.154 C
BRANCH   9  10
HETATM   10  C3  UNL     1      -0.649   0.889  42.219  1.00  0.00     0.048 C
BRANCH  10  11
HETATM   11  C2  UNL     1      -1.695   1.724  41.578  1.00  0.00    -0.035 C
HETATM   12  C1  UNL     1      -2.816   1.173  41.184  1.00  0.00     0.007 C
ENDBRANCH  10  11
ENDBRANCH   9  10
ENDBRANCH   3   9
BRANCH   7  13
HETATM   13  C6  UNL     1       4.890  -0.592  41.247  1.00  0.00     0.056 C
HETATM   14  C7  UNL     1       5.532  -0.210  39.879  1.00  0.00     0.011 C
ENDBRANCH   7  13
ENDBRANCH   1   2
BRANCH   1  15
HETATM   15  O1  UNL     1       3.605   2.557  43.763  1.00  0.00    -0.375 OA
ATOM     16  H1  UNL     1       4.455   2.946  43.931  1.00  0.00     0.211 HD
ENDBRANCH   1  15
BRANCH   1  17
HETATM   17  C10 UNL     1       5.287   1.109  43.322  1.00  0.00     0.089 C
BRANCH  17  18
HETATM   18  C11 UNL     1       5.958   2.418  43.177  1.00  0.00    -0.059 C
HETATM   19  C12 UNL     1       6.872   2.802  44.096  1.00  0.00     0.015 C
HETATM   20 CL1  UNL     1       7.341   1.856  45.477  1.00  0.00    -0.089 Cl
HETATM   21  C13 UNL     1       7.501   4.131  43.886  1.00  0.00     0.060 C
HETATM   22  C14 UNL     1       8.126   4.204  42.512  1.00  0.00    -0.043 C
HETATM   23  C15 UNL     1       8.252   5.659  42.041  1.00  0.00     0.015 C
HETATM   24  C16 UNL     1       9.497   3.569  42.602  1.00  0.00     0.015 C
HETATM   25  C17 UNL     1       7.239   3.520  41.495  1.00  0.00     0.013 C
HETATM   26  C18 UNL     1       5.804   3.401  42.081  1.00  0.00     0.036 C
ENDBRANCH  17  18
ENDBRANCH   1  17
BRANCH   1  27
HETATM   27  C19 UNL     1       3.433   0.423  44.801  1.00  0.00     0.424 C
HETATM   28  F1  UNL     1       4.343  -0.550  45.069  1.00  0.00    -0.167 F
HETATM   29  F2  UNL     1       2.215  -0.247  44.748  1.00  0.00    -0.167 F
HETATM   30  F3  UNL     1       3.452   1.232  45.948  1.00  0.00    -0.167 F
ENDBRANCH   1  27
TORSDOF 9
ENDMDL