MODEL 1
REMARK VINA RESULT: -7.384413111      0.000      0.000
REMARK  7 active torsions:
REMARK  status: ('A' for Active; 'I' for Inactive)
REMARK    1  A    between atoms: C2_2  and  C3_3
REMARK    2  A    between atoms: C3_3  and  C4_4
REMARK    3  A    between atoms: C4_4  and  C5_5
REMARK    4  A    between atoms: C5_5  and  C6_6
REMARK    5  A    between atoms: C7_9  and  S1_10
REMARK    6  A    between atoms: C10_16  and  S2_17
REMARK    7  A    between atoms: S2_17  and  C11_18
ROOT
HETATM    1  C6  UNL     1       2.474   0.233  40.855  1.00  0.00     0.056 A
HETATM    2  N1  UNL     1       2.529  -0.284  39.582  1.00  0.00    -0.336 N
ATOM      3  H1  UNL     1       3.422  -0.656  39.260  1.00  0.00     0.168 HD
HETATM    4  C7  UNL     1       1.504  -0.333  38.745  1.00  0.00     0.147 A
HETATM    5  N2  UNL     1       0.297   0.139  39.102  1.00  0.00    -0.303 N
ATOM      6  H2  UNL     1      -0.494   0.101  38.458  1.00  0.00     0.171 HD
HETATM    7  C9  UNL     1       0.162   0.668  40.347  1.00  0.00     0.266 A
HETATM    8  O1  UNL     1      -0.949   1.122  40.720  1.00  0.00    -0.267 OA
HETATM    9  C10 UNL     1       1.253   0.716  41.223  1.00  0.00     0.100 A
ENDROOT
BRANCH   1  10
HETATM   10  C5  UNL     1       3.676   0.175  41.671  1.00  0.00     0.028 C
BRANCH  10  11
HETATM   11  C4  UNL     1       4.469   1.311  42.044  1.00  0.00    -0.015 C
BRANCH  11  12
HETATM   12  C3  UNL     1       5.290   1.616  43.190  1.00  0.00    -0.018 C
HETATM   13  C12 UNL     1       4.922   2.874  43.919  1.00  0.00     0.014 C
HETATM   14  C13 UNL     1       3.604   2.724  44.665  1.00  0.00     0.007 C
HETATM   15  C14 UNL     1       3.747   1.780  45.815  1.00  0.00     0.079 C
HETATM   16  C15 UNL     1       4.956   0.887  45.617  1.00  0.00     0.244 C
HETATM   17  F3  UNL     1       6.080   1.343  46.238  1.00  0.00    -0.206 F
HETATM   18  F4  UNL     1       4.622  -0.289  46.340  1.00  0.00    -0.206 F
HETATM   19  C16 UNL     1       5.088   0.445  44.218  1.00  0.00     0.092 C
BRANCH  12  20
HETATM   20  C2  UNL     1       6.794   1.605  43.024  1.00  0.00     0.009 C
HETATM   21  C1  UNL     1       7.467   2.848  43.560  1.00  0.00     0.006 C
ENDBRANCH  12  20
ENDBRANCH  11  12
ENDBRANCH  10  11
ENDBRANCH   1  10
BRANCH   9  22
HETATM   22  S2  UNL     1       0.935   1.494  42.788  1.00  0.00    -0.053 SA
BRANCH  22  23
HETATM   23  C11 UNL     1       0.611   0.347  44.122  1.00  0.00     0.420 C
HETATM   24  F1  UNL     1      -0.509  -0.402  43.859  1.00  0.00    -0.202 F
HETATM   25  F2  UNL     1       1.741  -0.412  44.339  1.00  0.00    -0.202 F
ENDBRANCH  22  23
ENDBRANCH   9  22
BRANCH   4  26
HETATM   26  S1  UNL     1       1.675  -1.026  37.108  1.00  0.00    -0.098 SA
HETATM   27  C8  UNL     1       2.978  -2.256  37.035  1.00  0.00     0.099 C
ENDBRANCH   4  26
TORSDOF 7
ENDMDL