MODEL 3
REMARK VINA RESULT: -7.481689942      5.341      8.354
REMARK  8 active torsions:
REMARK  status: ('A' for Active; 'I' for Inactive)
REMARK    1  A    between atoms: C2_2  and  C3_3
REMARK    2  A    between atoms: C3_3  and  C4_4
REMARK    3  A    between atoms: C4_4  and  N1_5
REMARK    4  A    between atoms: N1_5  and  C5_6
REMARK    5  A    between atoms: N1_5  and  C7_9
REMARK    6  A    between atoms: C5_6  and  C6_7
REMARK    7  A    between atoms: N3_16  and  C12_18
REMARK    8  A    between atoms: C14_20  and  C15_21
ROOT
HETATM    1  C7  UNL     1       6.436   2.609  43.092  1.00  0.00     0.120 A
HETATM    2  C8  UNL     1       6.579   1.411  42.443  1.00  0.00     0.074 A
HETATM    3  C9  UNL     1       5.489   0.562  42.228  1.00  0.00     0.026 A
HETATM    4  C10 UNL     1       5.650  -0.745  41.515  1.00  0.00     0.069 C
HETATM    5  N2  UNL     1       4.299   0.994  42.694  1.00  0.00    -0.196 N
ATOM      6  H2  UNL     1       3.488   0.393  42.550  1.00  0.00     0.184 HD
HETATM    7  C11 UNL     1       4.106   2.163  43.338  1.00  0.00     0.684 A
HETATM    8  N3  UNL     1       2.962   2.587  43.747  1.00  0.00    -0.185 N
ATOM      9  H3  UNL     1       2.886   3.480  44.235  1.00  0.00     0.185 HD
HETATM   10  N4  UNL     1       5.208   2.960  43.525  1.00  0.00    -0.176 N
ATOM     11  H4  UNL     1       5.094   3.850  44.010  1.00  0.00     0.186 HD
ENDROOT
BRANCH   8  12
HETATM   12  C12 UNL     1       1.805   1.798  43.508  1.00  0.00     0.091 A
HETATM   13  C13 UNL     1       0.828   1.836  42.567  1.00  0.00     0.054 A
HETATM   14  C14 UNL     1      -0.150   0.914  42.635  1.00  0.00     0.057 A
HETATM   15  C16 UNL     1      -0.092  -0.001  43.653  1.00  0.00     0.068 A
HETATM   16  S1  UNL     1       1.323   0.451  44.486  1.00  0.00    -0.083 SA
BRANCH  14  17
HETATM   17  C15 UNL     1      -1.297   0.838  41.632  1.00  0.00     0.418 C
HETATM   18  F1  UNL     1      -1.918   2.061  41.534  1.00  0.00    -0.166 F
HETATM   19  F2  UNL     1      -2.247  -0.058  42.064  1.00  0.00    -0.166 F
HETATM   20  F3  UNL     1      -0.848   0.397  40.409  1.00  0.00    -0.166 F
ENDBRANCH  14  17
ENDBRANCH   8  12
BRANCH   1  21
HETATM   21  N1  UNL     1       7.514   3.490  43.274  1.00  0.00    -0.366 N
BRANCH  21  22
HETATM   22  C4  UNL     1       8.383   4.048  42.292  1.00  0.00     0.124 C
BRANCH  22  23
HETATM   23  C3  UNL     1       7.800   4.663  41.078  1.00  0.00     0.019 C
BRANCH  23  24
HETATM   24  C2  UNL     1       7.771   6.191  41.371  1.00  0.00    -0.003 C
HETATM   25  C1  UNL     1       7.391   6.958  40.114  1.00  0.00     0.005 C
ENDBRANCH  23  24
ENDBRANCH  22  23
ENDBRANCH  21  22
BRANCH  21  26
HETATM   26  C5  UNL     1       7.862   3.902  44.651  1.00  0.00     0.139 C
BRANCH  26  27
HETATM   27  C6  UNL     1       8.250   2.751  45.517  1.00  0.00     0.134 C
HETATM   28 CL1  UNL     1       9.604   1.815  44.927  1.00  0.00    -0.129 Cl
ENDBRANCH  26  27
ENDBRANCH  21  26
ENDBRANCH   1  21
TORSDOF 8
ENDMDL