MODEL 5
REMARK VINA RESULT: -9.081813258      1.668      2.215
REMARK  8 active torsions:
REMARK  status: ('A' for Active; 'I' for Inactive)
REMARK    1  A    between atoms: C3_3  and  S1_4
REMARK    2  A    between atoms: S1_4  and  C4_5
REMARK    3  A    between atoms: C4_5  and  C5_6
REMARK    4  A    between atoms: C5_6  and  C6_7
REMARK    5  A    between atoms: C6_7  and  C7_8
REMARK    6  A    between atoms: C7_8  and  C8_9
REMARK    7  A    between atoms: C12_17  and  C13_18
REMARK    8  A    between atoms: C14_19  and  C15_20
ROOT
HETATM    1  C1  UNL     1       6.158   2.623  45.360  1.00  0.00     0.056 C
HETATM    2  C2  UNL     1       4.895   2.341  44.657  1.00  0.00     0.031 A
HETATM    3  C3  UNL     1       4.805   1.699  43.457  1.00  0.00     0.025 A
HETATM    4  C9  UNL     1       3.555   1.515  42.896  1.00  0.00     0.018 A
HETATM    5  C10 UNL     1       3.381   0.877  41.687  1.00  0.00     0.058 A
HETATM    6  C11 UNL     1       2.140   0.691  41.122  1.00  0.00     0.127 A
HETATM    7  F4  UNL     1       2.087   0.055  39.940  1.00  0.00    -0.205 F
HETATM    8  C12 UNL     1       0.993   1.128  41.724  1.00  0.00     0.005 A
HETATM    9  C16 UNL     1       1.154   1.782  42.960  1.00  0.00     0.053 A
HETATM   10  C17 UNL     1       2.397   1.954  43.500  1.00  0.00     0.092 A
HETATM   11  O3  UNL     1       2.545   2.572  44.666  1.00  0.00    -0.274 OA
HETATM   12  C18 UNL     1       3.687   2.762  45.220  1.00  0.00     0.295 A
HETATM   13  O4  UNL     1       3.771   3.356  46.330  1.00  0.00    -0.259 OA
ENDROOT
BRANCH   3  14
HETATM   14  S1  UNL     1       6.203   1.081  42.610  1.00  0.00    -0.128 SA
BRANCH  14  15
HETATM   15  C4  UNL     1       7.122   2.238  41.625  1.00  0.00     0.079 C
BRANCH  15  16
HETATM   16  C5  UNL     1       7.656   1.781  40.331  1.00  0.00     0.011 C
BRANCH  16  17
HETATM   17  C6  UNL     1       8.327   2.767  39.458  1.00  0.00     0.010 C
BRANCH  17  18
HETATM   18  C7  UNL     1       8.038   2.685  37.997  1.00  0.00     0.117 C
BRANCH  18  19
HETATM   19  C8  UNL     1       8.280   3.919  37.203  1.00  0.00     0.387 C
HETATM   20  F1  UNL     1       7.288   3.943  36.208  1.00  0.00    -0.171 F
HETATM   21  F2  UNL     1       8.091   5.030  37.999  1.00  0.00    -0.171 F
HETATM   22  F3  UNL     1       9.474   4.026  36.581  1.00  0.00    -0.171 F
ENDBRANCH  18  19
ENDBRANCH  17  18
ENDBRANCH  16  17
ENDBRANCH  15  16
ENDBRANCH  14  15
ENDBRANCH   3  14
BRANCH   8  23
HETATM   23  C13 UNL     1      -0.353   0.978  41.206  1.00  0.00     0.021 C
HETATM   24  C14 UNL     1      -1.445   1.499  41.662  1.00  0.00     0.085 C
BRANCH  24  25
HETATM   25  C15 UNL     1      -2.724   1.220  40.983  1.00  0.00     0.198 C
HETATM   26  O1  UNL     1      -2.705   0.877  39.774  1.00  0.00    -0.645 OA
HETATM   27  O2  UNL     1      -3.954   1.311  41.593  1.00  0.00    -0.645 OA
ENDBRANCH  24  25
ENDBRANCH   8  23
TORSDOF 8
ENDMDL