MODEL 5
REMARK VINA RESULT: -7.924259053      4.166      8.854
REMARK  8 active torsions:
REMARK  status: ('A' for Active; 'I' for Inactive)
REMARK    1  A    between atoms: C2_2  and  C3_3
REMARK    2  A    between atoms: C3_3  and  C4_4
REMARK    3  A    between atoms: C3_3  and  N1_6
REMARK    4  A    between atoms: N5_19  and  C11_20
REMARK    5  A    between atoms: C14_24  and  C15_25
REMARK    6  A    between atoms: C15_25  and  C17_27
REMARK    7  A    between atoms: C17_27  and  C18_28
REMARK    8  A    between atoms: C18_28  and  C19_29
ROOT
HETATM    1  N1  UNL     1       2.344   1.625  42.196  1.00  0.00    -0.370 N
ATOM      2  H1  UNL     1       3.097   1.683  41.512  1.00  0.00     0.161 HD
HETATM    3  C6  UNL     1       2.848   1.913  43.259  1.00  0.00     0.133 A
HETATM    4  N2  UNL     1       2.228   1.965  44.451  1.00  0.00    -0.337 N
ATOM      5  H2  UNL     1       1.233   1.745  44.491  1.00  0.00     0.168 HD
HETATM    6  C7  UNL     1       2.864   2.297  45.604  1.00  0.00     0.183 A
HETATM    7  N3  UNL     1       4.172   2.598  45.628  1.00  0.00    -0.336 N
ATOM      8  H3  UNL     1       4.632   2.845  46.505  1.00  0.00     0.168 HD
HETATM    9  C8  UNL     1       4.865   2.568  44.475  1.00  0.00     0.141 A
HETATM   10  C9  UNL     1       4.226   2.234  43.312  1.00  0.00     0.122 A
HETATM   11  N4  UNL     1       5.126   2.282  42.346  1.00  0.00    -0.346 N
ATOM     12  H4  UNL     1       4.963   2.085  41.358  1.00  0.00     0.167 HD
HETATM   13  C10 UNL     1       6.305   2.640  42.907  1.00  0.00     0.185 A
HETATM   14  N5  UNL     1       6.195   2.829  44.224  1.00  0.00    -0.319 N
ENDROOT
BRANCH  14  15
HETATM   15  C11 UNL     1       7.111   3.178  45.245  1.00  0.00     0.131 C
HETATM   16  C12 UNL     1       7.473   2.099  46.262  1.00  0.00     0.194 C
HETATM   17  F1  UNL     1       6.838   0.912  46.167  1.00  0.00    -0.247 F
HETATM   18  C13 UNL     1       8.862   2.131  45.597  1.00  0.00     0.046 C
HETATM   19  C14 UNL     1       8.541   3.439  44.968  1.00  0.00     0.018 C
BRANCH  19  20
HETATM   20  C15 UNL     1       9.079   3.894  43.706  1.00  0.00    -0.012 C
HETATM   21  C16 UNL     1      10.039   5.123  43.965  1.00  0.00     0.010 C
BRANCH  20  22
HETATM   22  C17 UNL     1       9.794   3.097  42.720  1.00  0.00     0.013 C
BRANCH  22  23
HETATM   23  C18 UNL     1      11.277   3.114  42.666  1.00  0.00     0.117 C
BRANCH  23  24
HETATM   24  C19 UNL     1      11.742   1.743  43.184  1.00  0.00     0.387 C
HETATM   25  F2  UNL     1      10.766   0.842  42.866  1.00  0.00    -0.171 F
HETATM   26  F3  UNL     1      12.965   1.398  42.652  1.00  0.00    -0.171 F
HETATM   27  F4  UNL     1      11.873   1.782  44.554  1.00  0.00    -0.171 F
ENDBRANCH  23  24
ENDBRANCH  22  23
ENDBRANCH  20  22
ENDBRANCH  19  20
ENDBRANCH  14  15
BRANCH   1  28
HETATM   28  C3  UNL     1       1.223   1.255  41.480  1.00  0.00     0.082 C
BRANCH  28  29
HETATM   29  C2  UNL     1       0.092   0.803  42.329  1.00  0.00     0.021 C
HETATM   30  C1  UNL     1      -1.295   1.073  41.820  1.00  0.00     0.007 C
ENDBRANCH  28  29
BRANCH  28  31
HETATM   31  C4  UNL     1       1.639   0.247  40.431  1.00  0.00     0.021 C
HETATM   32  C5  UNL     1       1.021   0.354  39.097  1.00  0.00     0.007 C
ENDBRANCH  28  31
ENDBRANCH   1  28
TORSDOF 8
ENDMDL