MODEL 1
REMARK VINA RESULT: -7.822382164      0.000      0.000
REMARK  5 active torsions:
REMARK  status: ('A' for Active; 'I' for Inactive)
REMARK    1  A    between atoms: C3_3  and  C6_6
REMARK    2  A    between atoms: C6_6  and  C7_8
REMARK    3  A    between atoms: C7_8  and  N1_9
REMARK       I    between atoms: N1_9  and  C8_11
REMARK    4  A    between atoms: C8_11  and  C9_13
REMARK    5  A    between atoms: C10_14  and  C11_15
ROOT
HETATM    1  C1  UNL     1      37.615   4.212  62.150  1.00  0.00     0.013 C
HETATM    2  C2  UNL     1      37.148   4.086  61.064  1.00  0.00    -0.100 C
HETATM    3  C3  UNL     1      36.590   3.928  59.722  1.00  0.00     0.077 C
HETATM    4  C4  UNL     1      35.469   4.952  59.499  1.00  0.00     0.037 C
HETATM    5  C5  UNL     1      36.054   2.548  59.506  1.00  0.00     0.037 C
ENDROOT
BRANCH   3   6
HETATM    6  C6  UNL     1      37.615   4.208  58.684  1.00  0.00     0.164 C
HETATM    7  O1  UNL     1      37.752   5.313  58.209  1.00  0.00    -0.294 OA
BRANCH   6   8
HETATM    8  C7  UNL     1      38.483   3.093  58.231  1.00  0.00     0.203 C
BRANCH   8   9
HETATM    9  N1  UNL     1      39.613   2.920  59.098  1.00  0.00    -0.351 N
HETATM   10  C8  UNL     1      40.843   3.538  58.794  1.00  0.00     0.241 C
HETATM   11  O2  UNL     1      40.957   4.244  57.763  1.00  0.00    -0.269 OA
ATOM     12  H1  UNL     1      39.526   2.347  59.938  1.00  0.00     0.163 HD
BRANCH  10  13
HETATM   13  C9  UNL     1      41.999   3.374  59.662  1.00  0.00     0.075 C
HETATM   14  C10 UNL     1      42.646   2.225  59.701  1.00  0.00     0.024 C
BRANCH  14  15
HETATM   15  C11 UNL     1      43.823   2.045  60.580  1.00  0.00     0.005 A
HETATM   16  C12 UNL     1      44.105   2.674  61.762  1.00  0.00     0.020 A
HETATM   17  C13 UNL     1      45.251   2.334  62.380  1.00  0.00     0.015 A
HETATM   18  C14 UNL     1      46.034   1.394  61.779  1.00  0.00    -0.021 A
HETATM   19  C15 UNL     1      47.345   0.840  62.248  1.00  0.00     0.056 C
HETATM   20  S1  UNL     1      45.160   1.003  60.370  1.00  0.00    -0.095 SA
ENDBRANCH  14  15
ENDBRANCH  10  13
ENDBRANCH   8   9
ENDBRANCH   6   8
ENDBRANCH   3   6
TORSDOF 5
ENDMDL