MODEL 4
REMARK VINA RESULT: -7.575064412      1.892      4.287
REMARK  5 active torsions:
REMARK  status: ('A' for Active; 'I' for Inactive)
REMARK    1  A    between atoms: C9_9  and  C10_10
REMARK    2  A    between atoms: C10_10  and  C11_11
REMARK    3  A    between atoms: C11_11  and  C12_12
REMARK    4  A    between atoms: C12_12  and  C13_13
REMARK    5  A    between atoms: C13_13  and  O1_14
ROOT
HETATM    1  C1  UNL     1      41.343   0.289  61.222  1.00  0.00     0.016 C
HETATM    2  C2  UNL     1      40.725   1.534  61.733  1.00  0.00    -0.033 C
HETATM    3  C3  UNL     1      39.250   1.590  61.395  1.00  0.00     0.016 C
HETATM    4  C4  UNL     1      41.403   2.829  61.449  1.00  0.00     0.064 C
HETATM    5  C5  UNL     1      41.063   3.228  62.886  1.00  0.00     0.018 C
HETATM    6  C6  UNL     1      41.007   1.825  63.217  1.00  0.00    -0.000 C
HETATM    7  C7  UNL     1      42.175   1.055  63.603  1.00  0.00     0.004 A
HETATM    8  C8  UNL     1      43.509   1.376  63.240  1.00  0.00     0.010 A
HETATM    9  C9  UNL     1      43.866   2.542  62.410  1.00  0.00     0.061 C
HETATM   10  C14 UNL     1      42.885   2.743  61.323  1.00  0.00     0.136 C
HETATM   11  O2  UNL     1      43.288   2.857  60.173  1.00  0.00    -0.297 OA
HETATM   12  C15 UNL     1      43.156   1.457  64.680  1.00  0.00    -0.038 A
HETATM   13  C16 UNL     1      43.701   0.355  65.609  1.00  0.00     0.015 C
HETATM   14  C17 UNL     1      42.956   2.749  65.408  1.00  0.00     0.015 C
ENDROOT
BRANCH   9  15
HETATM   15  C10 UNL     1      45.257   2.502  61.871  1.00  0.00     0.013 C
BRANCH  15  16
HETATM   16  C11 UNL     1      45.874   1.184  61.643  1.00  0.00     0.003 C
BRANCH  16  17
HETATM   17  C12 UNL     1      47.084   1.060  62.572  1.00  0.00     0.026 C
BRANCH  17  18
HETATM   18  C13 UNL     1      47.687   2.384  62.932  1.00  0.00     0.164 C
BRANCH  18  19
HETATM   19  O1  UNL     1      49.089   2.176  62.935  1.00  0.00    -0.401 OA
ATOM     20  H1  UNL     1      49.475   3.037  63.049  1.00  0.00     0.209 HD
ENDBRANCH  18  19
ENDBRANCH  17  18
ENDBRANCH  16  17
ENDBRANCH  15  16
ENDBRANCH   9  15
TORSDOF 5
ENDMDL