MODEL 2
REMARK VINA RESULT: -7.826898694      2.023      3.594
REMARK  4 active torsions:
REMARK  status: ('A' for Active; 'I' for Inactive)
REMARK       I    between atoms: C1_2  and  N1_3
REMARK    1  A    between atoms: C1_2  and  C9_12
REMARK    2  A    between atoms: N1_3  and  C2_5
REMARK    3  A    between atoms: C2_5  and  C3_6
REMARK    4  A    between atoms: C14_17  and  N2_18
ROOT
HETATM    1  C9  UNL     1      38.841   1.633  61.879  1.00  0.00     0.059 A
HETATM    2  C10 UNL     1      37.648   1.648  62.635  1.00  0.00     0.019 A
HETATM    3  C11 UNL     1      36.532   2.295  62.199  1.00  0.00     0.001 A
HETATM    4  C12 UNL     1      36.603   2.940  60.985  1.00  0.00     0.002 A
HETATM    5  C13 UNL     1      37.759   2.921  60.256  1.00  0.00     0.031 A
HETATM    6  C14 UNL     1      38.927   2.260  60.678  1.00  0.00     0.055 A
ENDROOT
BRANCH   1   7
HETATM    7  C1  UNL     1      39.967   0.991  62.494  1.00  0.00     0.254 C
HETATM    8  O1  UNL     1      40.179  -0.216  62.295  1.00  0.00    -0.268 OA
HETATM    9  N1  UNL     1      40.806   1.766  63.329  1.00  0.00    -0.353 N
ATOM     10  H1  UNL     1      40.586   2.754  63.459  1.00  0.00     0.163 HD
BRANCH   9  11
HETATM   11  C2  UNL     1      41.963   1.222  64.009  1.00  0.00     0.161 C
BRANCH  11  12
HETATM   12  C3  UNL     1      43.252   1.641  63.399  1.00  0.00    -0.041 A
HETATM   13  C4  UNL     1      44.429   1.374  64.026  1.00  0.00     0.009 A
HETATM   14  C5  UNL     1      45.618   1.759  63.447  1.00  0.00     0.001 A
HETATM   15  C6  UNL     1      45.652   2.415  62.238  1.00  0.00     0.000 A
HETATM   16  C7  UNL     1      44.454   2.683  61.606  1.00  0.00     0.001 A
HETATM   17  C8  UNL     1      43.260   2.296  62.184  1.00  0.00     0.009 A
ENDBRANCH  11  12
ENDBRANCH   9  11
ENDBRANCH   1   7
BRANCH   6  18
HETATM   18  N2  UNL     1      40.025   2.264  59.771  1.00  0.00    -0.316 N
HETATM   19  C15 UNL     1      40.851   3.388  59.716  1.00  0.00     0.115 A
HETATM   20  C16 UNL     1      41.807   3.132  58.785  1.00  0.00     0.106 A
HETATM   21  N3  UNL     1      41.575   1.908  58.296  1.00  0.00    -0.360 N
HETATM   22  C17 UNL     1      40.469   1.365  58.906  1.00  0.00     0.188 A
ATOM     23  H3  UNL     1      42.135   1.448  57.579  1.00  0.00     0.166 HD
ENDBRANCH   6  18
TORSDOF 4
ENDMDL