MODEL 3
REMARK VINA RESULT: -8.523284528      0.076      1.062
REMARK  4 active torsions:
REMARK  status: ('A' for Active; 'I' for Inactive)
REMARK    1  A    between atoms: C2_3  and  C10_11
REMARK    2  A    between atoms: C3_4  and  C4_5
REMARK       I    between atoms: C10_11  and  N2_13
REMARK    3  A    between atoms: N2_13  and  C11_15
REMARK    4  A    between atoms: C11_15  and  C12_16
ROOT
HETATM    1  N1  UNL     1      46.343   1.433  63.744  1.00  0.00    -0.191 NA
HETATM    2  C1  UNL     1      45.253   1.616  63.335  1.00  0.00     0.105 C
HETATM    3  C2  UNL     1      43.934   1.821  62.808  1.00  0.00     0.113 C
HETATM    4  C3  UNL     1      42.826   1.703  63.558  1.00  0.00     0.039 C
ENDROOT
BRANCH   3   5
HETATM    5  C10 UNL     1      43.847   2.168  61.401  1.00  0.00     0.262 C
HETATM    6  O1  UNL     1      44.901   2.313  60.757  1.00  0.00    -0.267 OA
HETATM    7  N2  UNL     1      42.599   2.334  60.782  1.00  0.00    -0.352 N
ATOM      8  H2  UNL     1      41.762   2.207  61.352  1.00  0.00     0.163 HD
BRANCH   7   9
HETATM    9  C11 UNL     1      42.426   2.674  59.389  1.00  0.00     0.161 C
BRANCH   9  10
HETATM   10  C12 UNL     1      41.032   2.609  58.936  1.00  0.00    -0.038 A
HETATM   11  C13 UNL     1      40.547   3.705  58.230  1.00  0.00     0.025 A
HETATM   12  C14 UNL     1      39.246   3.728  57.756  1.00  0.00     0.088 A
HETATM   13  N3  UNL     1      38.448   2.679  57.982  1.00  0.00    -0.375 N
HETATM   14  C15 UNL     1      38.896   1.597  58.666  1.00  0.00     0.088 A
ATOM     15  H3  UNL     1      37.489   2.693  57.634  1.00  0.00     0.164 HD
HETATM   16  C16 UNL     1      40.183   1.558  59.144  1.00  0.00     0.025 A
ENDBRANCH   9  10
ENDBRANCH   7   9
ENDBRANCH   3   5
BRANCH   4  17
HETATM   17  C4  UNL     1      42.948   1.361  64.959  1.00  0.00    -0.035 A
HETATM   18  C5  UNL     1      42.642   0.126  65.494  1.00  0.00     0.011 A
HETATM   19  C6  UNL     1      42.756  -0.111  66.850  1.00  0.00     0.001 A
HETATM   20  C7  UNL     1      43.178   0.871  67.721  1.00  0.00     0.000 A
HETATM   21  C8  UNL     1      43.488   2.109  67.204  1.00  0.00     0.001 A
HETATM   22  C9  UNL     1      43.379   2.358  65.854  1.00  0.00     0.011 A
ENDBRANCH   4  17
TORSDOF 4
ENDMDL