MODEL 5
REMARK VINA RESULT: -7.762327336      4.131      6.601
REMARK  4 active torsions:
REMARK  status: ('A' for Active; 'I' for Inactive)
REMARK       I    between atoms: C1_2  and  N1_3
REMARK    1  A    between atoms: C1_2  and  C11_17
REMARK    2  A    between atoms: N1_3  and  C2_5
REMARK    3  A    between atoms: C2_5  and  C3_6
REMARK    4  A    between atoms: C3_6  and  N2_7
ROOT
HETATM    1  C2  UNL     1      39.965   2.312  58.946  1.00  0.00     0.143 C
ENDROOT
BRANCH   1   2
HETATM    2  N1  UNL     1      40.810   2.139  60.084  1.00  0.00    -0.355 N
HETATM    3  C1  UNL     1      42.214   2.335  60.071  1.00  0.00     0.251 C
HETATM    4  O1  UNL     1      42.805   2.686  59.008  1.00  0.00    -0.268 OA
ATOM      5  H1  UNL     1      40.376   1.856  60.962  1.00  0.00     0.162 HD
BRANCH   3   6
HETATM    6  C11 UNL     1      43.021   2.144  61.254  1.00  0.00     0.032 A
HETATM    7  C12 UNL     1      42.536   1.618  62.429  1.00  0.00     0.017 A
HETATM    8  C13 UNL     1      43.340   1.449  63.545  1.00  0.00     0.001 A
HETATM    9  C14 UNL     1      44.666   1.801  63.524  1.00  0.00     0.000 A
HETATM   10  C15 UNL     1      45.180   2.332  62.360  1.00  0.00     0.001 A
HETATM   11  C16 UNL     1      44.371   2.495  61.257  1.00  0.00     0.017 A
ENDBRANCH   3   6
ENDBRANCH   1   2
BRANCH   1  12
HETATM   12  C3  UNL     1      39.279   3.644  58.842  1.00  0.00     0.149 C
BRANCH  12  13
HETATM   13  N2  UNL     1      37.857   3.402  58.996  1.00  0.00    -0.340 N
HETATM   14  C4  UNL     1      37.191   2.431  58.351  1.00  0.00     0.183 A
HETATM   15  N3  UNL     1      35.889   2.434  58.682  1.00  0.00    -0.350 N
HETATM   16  C5  UNL     1      35.742   3.443  59.563  1.00  0.00     0.060 A
ATOM     17  H3  UNL     1      35.164   1.805  58.339  1.00  0.00     0.166 HD
HETATM   18  C6  UNL     1      34.609   3.888  60.221  1.00  0.00     0.032 A
HETATM   19  C10 UNL     1      36.972   4.059  59.768  1.00  0.00     0.062 A
HETATM   20  C7  UNL     1      34.720   4.955  61.085  1.00  0.00     0.002 A
HETATM   21  C8  UNL     1      35.959   5.556  61.275  1.00  0.00     0.002 A
HETATM   22  C9  UNL     1      37.097   5.121  60.624  1.00  0.00     0.032 A
ENDBRANCH  12  13
ENDBRANCH   1  12
TORSDOF 4
ENDMDL