MODEL 2
REMARK VINA RESULT: -7.392981600      2.850      6.071
REMARK  5 active torsions:
REMARK  status: ('A' for Active; 'I' for Inactive)
REMARK    1  A    between atoms: C2_2  and  C4_4
REMARK    2  A    between atoms: C5_5  and  C6_6
REMARK    3  A    between atoms: N2_16  and  C12_17
REMARK    4  A    between atoms: C12_17  and  C13_18
REMARK    5  A    between atoms: C13_18  and  C14_19
ROOT
HETATM    1  C4  UNL     1      42.760   1.468  62.464  1.00  0.00     0.056 A
HETATM    2  C5  UNL     1      43.672   1.443  63.504  1.00  0.00     0.045 A
HETATM    3  C10 UNL     1      45.011   1.565  63.119  1.00  0.00     0.258 A
HETATM    4  O1  UNL     1      45.887   1.551  64.016  1.00  0.00    -0.267 OA
HETATM    5  N1  UNL     1      45.413   1.699  61.822  1.00  0.00    -0.275 N
ATOM      6  H1  UNL     1      46.402   1.786  61.586  1.00  0.00     0.173 HD
HETATM    7  C11 UNL     1      44.476   1.713  60.871  1.00  0.00     0.329 A
HETATM    8  O2  UNL     1      44.882   1.838  59.677  1.00  0.00    -0.246 OA
HETATM    9  N2  UNL     1      43.172   1.602  61.153  1.00  0.00    -0.298 N
ENDROOT
BRANCH   9  10
HETATM   10  C12 UNL     1      42.265   1.602  60.067  1.00  0.00     0.134 C
BRANCH  10  11
HETATM   11  C13 UNL     1      41.828   2.965  59.571  1.00  0.00     0.024 C
BRANCH  11  12
HETATM   12  C14 UNL     1      40.330   2.806  59.264  1.00  0.00    -0.021 C
HETATM   13  C15 UNL     1      39.971   3.671  58.100  1.00  0.00     0.009 C
HETATM   14  C16 UNL     1      39.937   1.379  59.118  1.00  0.00     0.009 C
ENDBRANCH  11  12
ENDBRANCH  10  11
ENDBRANCH   9  10
BRANCH   1  15
HETATM   15  C2  UNL     1      41.327   1.404  62.695  1.00  0.00    -0.044 C
HETATM   16  C1  UNL     1      40.568   0.344  62.641  1.00  0.00     0.021 C
HETATM   17  C3  UNL     1      40.583   2.698  62.983  1.00  0.00     0.049 C
ENDBRANCH   1  15
BRANCH   2  18
HETATM   18  C6  UNL     1      43.339   1.286  64.905  1.00  0.00    -0.017 C
HETATM   19  C7  UNL     1      44.470   0.691  65.768  1.00  0.00     0.019 C
HETATM   20  C8  UNL     1      42.998   2.561  65.663  1.00  0.00     0.019 C
HETATM   21  C9  UNL     1      42.184   0.301  65.184  1.00  0.00     0.019 C
ENDBRANCH   2  18
TORSDOF 5
ENDMDL