MODEL 4
REMARK VINA RESULT: -8.546552722      3.148      7.105
REMARK  4 active torsions:
REMARK  status: ('A' for Active; 'I' for Inactive)
REMARK    1  A    between atoms: C5_6  and  C6_7
REMARK    2  A    between atoms: C6_7  and  C7_9
REMARK    3  A    between atoms: C8_10  and  C9_11
REMARK    4  A    between atoms: C8_10  and  C10_14
ROOT
HETATM    1  N1  UNL     1      44.093  -0.164  67.660  1.00  0.00    -0.191 NA
HETATM    2  C1  UNL     1      43.870   0.286  66.618  1.00  0.00     0.099 C
HETATM    3  C2  UNL     1      43.611   0.855  65.320  1.00  0.00     0.044 A
HETATM    4  C3  UNL     1      44.631   1.358  64.546  1.00  0.00     0.023 A
HETATM    5  C4  UNL     1      44.394   1.913  63.284  1.00  0.00     0.017 A
HETATM    6  C5  UNL     1      43.131   1.974  62.769  1.00  0.00     0.014 A
HETATM    7  C16 UNL     1      42.113   1.463  63.557  1.00  0.00     0.017 A
HETATM    8  C17 UNL     1      42.339   0.917  64.800  1.00  0.00     0.023 A
ENDROOT
BRANCH   6   9
HETATM    9  C6  UNL     1      42.790   2.546  61.441  1.00  0.00     0.183 C
HETATM   10  O1  UNL     1      43.761   2.982  60.779  1.00  0.00    -0.288 OA
BRANCH   9  11
HETATM   11  C7  UNL     1      41.460   2.585  60.973  1.00  0.00     0.074 C
HETATM   12  C8  UNL     1      40.909   2.900  59.839  1.00  0.00     0.054 C
BRANCH  12  13
HETATM   13  C9  UNL     1      41.595   3.333  58.643  1.00  0.00     0.210 C
HETATM   14  O2  UNL     1      42.620   2.791  58.140  1.00  0.00    -0.644 OA
HETATM   15  O3  UNL     1      41.199   4.453  57.866  1.00  0.00    -0.644 OA
ENDBRANCH  12  13
BRANCH  12  16
HETATM   16  C10 UNL     1      39.405   2.902  59.766  1.00  0.00    -0.019 A
HETATM   17  C11 UNL     1      38.700   2.357  58.738  1.00  0.00     0.012 A
HETATM   18  C12 UNL     1      37.301   2.459  58.657  1.00  0.00     0.001 A
HETATM   19  C13 UNL     1      36.581   3.117  59.620  1.00  0.00     0.000 A
HETATM   20  C14 UNL     1      37.291   3.665  60.657  1.00  0.00     0.001 A
HETATM   21  C15 UNL     1      38.685   3.570  60.744  1.00  0.00     0.012 A
ENDBRANCH  12  16
ENDBRANCH   9  11
ENDBRANCH   6   9
TORSDOF 4
ENDMDL