MODEL 5
REMARK VINA RESULT: -7.591477803      3.182      5.671
REMARK  4 active torsions:
REMARK  status: ('A' for Active; 'I' for Inactive)
REMARK    1  A    between atoms: C1_2  and  C2_3
REMARK       I    between atoms: C1_2  and  N1_13
REMARK    2  A    between atoms: C2_3  and  S1_4
REMARK    3  A    between atoms: S1_4  and  C3_7
REMARK    4  A    between atoms: N1_13  and  C9_15
ROOT
HETATM    1  O1  UNL     1      39.195   2.438  58.481  1.00  0.00    -0.272 OA
HETATM    2  C1  UNL     1      39.393   2.227  59.674  1.00  0.00     0.236 C
HETATM    3  N1  UNL     1      38.532   2.618  60.695  1.00  0.00    -0.326 N
ATOM      4  H1  UNL     1      38.793   2.384  61.653  1.00  0.00     0.169 HD
ENDROOT
BRANCH   2   5
HETATM    5  C2  UNL     1      40.663   1.492  60.017  1.00  0.00     0.248 C
BRANCH   5   6
HETATM    6  S1  UNL     1      41.928   2.740  60.158  1.00  0.00     0.183 S
HETATM    7  O2  UNL     1      42.591   2.849  58.816  1.00  0.00    -0.222 OA
HETATM    8  O3  UNL     1      41.225   4.042  60.454  1.00  0.00    -0.222 OA
BRANCH   6   9
HETATM    9  C3  UNL     1      43.055   2.375  61.426  1.00  0.00     0.059 A
HETATM   10  C4  UNL     1      44.398   2.613  61.364  1.00  0.00     0.023 A
HETATM   11  C5  UNL     1      45.208   2.283  62.436  1.00  0.00     0.002 A
HETATM   12  C6  UNL     1      44.722   1.715  63.592  1.00  0.00     0.000 A
HETATM   13  C7  UNL     1      43.364   1.478  63.648  1.00  0.00     0.002 A
HETATM   14  C8  UNL     1      42.545   1.801  62.587  1.00  0.00     0.023 A
ENDBRANCH   6   9
ENDBRANCH   5   6
ENDBRANCH   2   5
BRANCH   3  15
HETATM   15  C9  UNL     1      37.320   3.319  60.494  1.00  0.00     0.034 A
HETATM   16  C10 UNL     1      37.196   4.672  60.329  1.00  0.00     0.029 A
HETATM   17  C11 UNL     1      35.950   5.243  60.108  1.00  0.00     0.002 A
HETATM   18  C12 UNL     1      34.789   4.505  60.044  1.00  0.00     0.000 A
HETATM   19  C13 UNL     1      34.945   3.147  60.214  1.00  0.00     0.002 A
HETATM   20  C14 UNL     1      36.150   2.544  60.432  1.00  0.00     0.029 A
ENDBRANCH   3  15
TORSDOF 4
ENDMDL