MODEL 4
REMARK VINA RESULT: -9.151254504      1.072      1.337
REMARK  5 active torsions:
REMARK  status: ('A' for Active; 'I' for Inactive)
REMARK       I    between atoms: C1_2  and  N1_3
REMARK    1  A    between atoms: C1_2  and  O3_13
REMARK       I    between atoms: N1_3  and  C2_5
REMARK    2  A    between atoms: C2_5  and  C3_7
REMARK    3  A    between atoms: O3_13  and  C9_14
REMARK    4  A    between atoms: C9_14  and  C10_15
REMARK    5  A    between atoms: C10_15  and  C11_17
ROOT
HETATM    1  O1  UNL     1      40.850   4.144  57.786  1.00  0.00    -0.238 OA
HETATM    2  C1  UNL     1      40.677   3.401  58.787  1.00  0.00     0.367 C
HETATM    3  N1  UNL     1      39.367   3.243  59.377  1.00  0.00    -0.269 N
ATOM      4  H1  UNL     1      39.226   2.640  60.188  1.00  0.00     0.174 HD
HETATM    5  C2  UNL     1      38.283   3.949  58.796  1.00  0.00     0.260 C
HETATM    6  O2  UNL     1      38.474   4.693  57.788  1.00  0.00    -0.267 OA
ENDROOT
BRANCH   2   7
HETATM    7  O3  UNL     1      41.784   2.748  59.294  1.00  0.00    -0.296 OA
BRANCH   7   8
HETATM    8  C9  UNL     1      42.367   3.172  60.510  1.00  0.00     0.264 C
BRANCH   8   9
HETATM    9  C10 UNL     1      43.557   2.359  60.873  1.00  0.00     0.183 C
HETATM   10  O4  UNL     1      44.459   2.069  60.061  1.00  0.00    -0.290 OA
BRANCH   9  11
HETATM   11  C11 UNL     1      43.627   1.901  62.248  1.00  0.00     0.012 A
HETATM   12  C12 UNL     1      44.778   1.906  63.015  1.00  0.00     0.015 A
HETATM   13  C13 UNL     1      44.785   1.458  64.319  1.00  0.00     0.001 A
HETATM   14  C14 UNL     1      43.633   0.989  64.896  1.00  0.00     0.000 A
HETATM   15  C15 UNL     1      42.489   0.973  64.164  1.00  0.00     0.001 A
HETATM   16  C16 UNL     1      42.489   1.425  62.852  1.00  0.00     0.015 A
ENDBRANCH   9  11
ENDBRANCH   8   9
ENDBRANCH   7   8
ENDBRANCH   2   7
BRANCH   5  17
HETATM   17  C3  UNL     1      36.931   3.843  59.331  1.00  0.00     0.032 A
HETATM   18  C4  UNL     1      36.312   2.592  59.427  1.00  0.00     0.017 A
HETATM   19  C5  UNL     1      35.043   2.455  59.925  1.00  0.00     0.001 A
HETATM   20  C6  UNL     1      34.311   3.548  60.359  1.00  0.00     0.000 A
HETATM   21  C7  UNL     1      34.909   4.782  60.270  1.00  0.00     0.001 A
HETATM   22  C8  UNL     1      36.190   4.919  59.767  1.00  0.00     0.017 A
ENDBRANCH   5  17
TORSDOF 5
ENDMDL