MODEL 2
REMARK VINA RESULT: -7.122273533      2.164      4.045
REMARK  4 active torsions:
REMARK  status: ('A' for Active; 'I' for Inactive)
REMARK    1  A    between atoms: C1_2  and  C2_4
REMARK    2  A    between atoms: C2_4  and  C3_5
REMARK    3  A    between atoms: C2_4  and  S1_11
REMARK    4  A    between atoms: S1_11  and  C9_14
ROOT
HETATM    1  C2  UNL     1      41.968   3.297  60.649  1.00  0.00     0.246 C
ENDROOT
BRANCH   1   2
HETATM    2  C1  UNL     1      41.865   3.405  59.177  1.00  0.00     0.197 C
HETATM    3  O1  UNL     1      42.739   2.867  58.453  1.00  0.00    -0.647 OA
HETATM    4  O2  UNL     1      40.819   4.092  58.551  1.00  0.00    -0.647 OA
ENDBRANCH   1   2
BRANCH   1   5
HETATM    5  C3  UNL     1      40.607   3.101  61.190  1.00  0.00    -0.029 A
HETATM    6  C4  UNL     1      40.134   3.990  62.129  1.00  0.00     0.009 A
HETATM    7  C5  UNL     1      38.867   3.853  62.667  1.00  0.00     0.001 A
HETATM    8  C6  UNL     1      38.056   2.809  62.260  1.00  0.00     0.000 A
HETATM    9  C7  UNL     1      38.538   1.919  61.317  1.00  0.00     0.001 A
HETATM   10  C8  UNL     1      39.810   2.065  60.782  1.00  0.00     0.009 A
ENDBRANCH   1   5
BRANCH   1  11
HETATM   11  S1  UNL     1      43.066   1.989  61.060  1.00  0.00     0.193 S
HETATM   12  O3  UNL     1      42.847   0.782  60.187  1.00  0.00    -0.221 OA
HETATM   13  O4  UNL     1      44.473   2.473  60.740  1.00  0.00    -0.221 OA
BRANCH  11  14
HETATM   14  C9  UNL     1      43.020   1.560  62.735  1.00  0.00     0.060 A
HETATM   15  C10 UNL     1      41.902   0.959  63.274  1.00  0.00     0.023 A
HETATM   16  C11 UNL     1      41.932   0.644  64.616  1.00  0.00     0.002 A
HETATM   17  C12 UNL     1      43.039   0.914  65.411  1.00  0.00     0.000 A
HETATM   18  C13 UNL     1      44.158   1.515  64.870  1.00  0.00     0.002 A
HETATM   19  C14 UNL     1      44.120   1.829  63.523  1.00  0.00     0.023 A
ENDBRANCH  11  14
ENDBRANCH   1  11
TORSDOF 4
ENDMDL