MODEL 5
REMARK VINA RESULT: -7.024868175      1.883      2.832
REMARK  2 active torsions:
REMARK  status: ('A' for Active; 'I' for Inactive)
REMARK       I    between atoms: C1_2  and  N1_3
REMARK    1  A    between atoms: C1_2  and  C7_12
REMARK    2  A    between atoms: N1_3  and  C2_5
ROOT
HETATM    1  C7  UNL     1      28.537   2.674   4.592  1.00  0.00     0.144 A
HETATM    2  C8  UNL     1      27.169   2.506   4.632  1.00  0.00     0.058 A
HETATM    3  C9  UNL     1      26.613   3.747   4.425  1.00  0.00     0.012 A
HETATM    4  C10 UNL     1      27.669   4.613   4.269  1.00  0.00     0.087 A
HETATM    5  C11 UNL     1      27.383   5.947   4.043  1.00  0.00     0.039 A
HETATM    6  C12 UNL     1      26.101   6.440   3.971  1.00  0.00     0.015 A
HETATM    7  C13 UNL     1      25.047   5.565   4.128  1.00  0.00    -0.025 A
HETATM    8  C14 UNL     1      23.754   6.036   4.060  1.00  0.00     0.012 A
HETATM    9  C15 UNL     1      22.733   5.127   4.224  1.00  0.00     0.001 A
HETATM   10  C16 UNL     1      22.998   3.789   4.450  1.00  0.00     0.001 A
HETATM   11  C17 UNL     1      24.293   3.322   4.518  1.00  0.00     0.013 A
HETATM   12  C18 UNL     1      25.335   4.233   4.354  1.00  0.00    -0.013 A
HETATM   13  O2  UNL     1      28.808   3.939   4.374  1.00  0.00    -0.304 OA
ENDROOT
BRANCH   1  14
HETATM   14  C1  UNL     1      29.556   1.620   4.762  1.00  0.00     0.281 C
HETATM   15  O1  UNL     1      29.859   1.271   5.924  1.00  0.00    -0.265 OA
HETATM   16  N1  UNL     1      30.168   1.028   3.625  1.00  0.00    -0.307 N
ATOM     17  H1  UNL     1      30.810   1.581   3.059  1.00  0.00     0.170 HD
BRANCH  16  18
HETATM   18  C2  UNL     1      29.928  -0.183   3.299  1.00  0.00     0.107 A
HETATM   19  C3  UNL     1      29.298  -0.500   2.116  1.00  0.00     0.048 A
HETATM   20  C4  UNL     1      29.031  -1.810   1.749  1.00  0.00     0.005 A
HETATM   21  C5  UNL     1      29.416  -2.805   2.606  1.00  0.00     0.017 A
HETATM   22  C6  UNL     1      30.051  -2.469   3.797  1.00  0.00     0.089 A
HETATM   23  N2  UNL     1      30.291  -1.189   4.115  1.00  0.00    -0.352 N
ATOM     24  H2  UNL     1      30.758  -0.973   4.996  1.00  0.00     0.166 HD
ENDBRANCH  16  18
ENDBRANCH   1  14
TORSDOF 2
ENDMDL