MODEL 2
REMARK VINA RESULT: 3.200907750      1.499      8.714
REMARK  3 active torsions:
REMARK  status: ('A' for Active; 'I' for Inactive)
REMARK    1  A    between atoms: C4_4  and  C5_5
REMARK    2  A    between atoms: C5_5  and  C6_6
REMARK    3  A    between atoms: C6_6  and  C7_7
ROOT
HETATM    1  C5  UNL     1      26.782   1.277   4.186  1.00  0.00    -0.061 C
ENDROOT
BRANCH   1   2
HETATM    2  C4  UNL     1      27.447   0.008   4.119  1.00  0.00     0.021 A
HETATM    3  C3  UNL     1      26.744  -1.161   4.322  1.00  0.00     0.029 A
HETATM    4  C2  UNL     1      27.377  -2.408   4.261  1.00  0.00    -0.032 A
HETATM    5  C1  UNL     1      26.666  -3.676   4.471  1.00  0.00     0.050 C
HETATM    6  C19 UNL     1      28.740  -2.438   3.988  1.00  0.00     0.066 A
HETATM    7  C17 UNL     1      29.461  -1.290   3.782  1.00  0.00     0.061 A
HETATM    8  N3  UNL     1      29.642  -3.448   3.860  1.00  0.00    -0.350 N
HETATM    9  C16 UNL     1      28.801  -0.095   3.851  1.00  0.00     0.052 A
HETATM   10  N2  UNL     1      30.750  -1.570   3.537  1.00  0.00    -0.350 N
HETATM   11  C18 UNL     1      30.849  -2.915   3.588  1.00  0.00     0.181 A
ATOM     12  H2  UNL     1      31.499  -0.904   3.350  1.00  0.00     0.166 HD
ATOM     13  H3  UNL     1      29.439  -4.443   3.953  1.00  0.00     0.166 HD
ENDBRANCH   1   2
BRANCH   1  14
HETATM   14  C6  UNL     1      26.217   2.341   4.235  1.00  0.00    -0.060 C
BRANCH  14  15
HETATM   15  C7  UNL     1      25.548   3.606   4.269  1.00  0.00     0.034 A
HETATM   16  C8  UNL     1      24.415   3.843   5.014  1.00  0.00     0.109 A
HETATM   17  N1  UNL     1      23.796   5.037   5.037  1.00  0.00    -0.364 N
HETATM   18  C9  UNL     1      24.272   6.073   4.314  1.00  0.00     0.042 A
ATOM     19  H1  UNL     1      22.959   5.161   5.606  1.00  0.00     0.165 HD
HETATM   20  C10 UNL     1      23.621   7.301   4.347  1.00  0.00     0.030 A
HETATM   21  C14 UNL     1      25.405   5.865   3.558  1.00  0.00    -0.008 A
HETATM   22  C11 UNL     1      24.167   8.313   3.582  1.00  0.00     0.002 A
HETATM   23  C12 UNL     1      25.286   8.174   2.812  1.00  0.00     0.001 A
HETATM   24  C13 UNL     1      25.902   6.923   2.812  1.00  0.00     0.014 A
HETATM   25  C15 UNL     1      26.056   4.639   3.523  1.00  0.00     0.035 A
ENDBRANCH  14  15
ENDBRANCH   1  14
TORSDOF 3
ENDMDL