MODEL 2
REMARK VINA RESULT: -7.167858437      1.635      6.260
REMARK  1 active torsions:
REMARK  status: ('A' for Active; 'I' for Inactive)
REMARK       I    between atoms: C1_2  and  N2_4
REMARK    1  A    between atoms: N2_4  and  C2_6
ROOT
HETATM    1  C2  UNL     1      26.313   2.517   4.279  1.00  0.00     0.063 A
HETATM    2  C3  UNL     1      26.453   3.912   4.209  1.00  0.00     0.025 A
HETATM    3  C4  UNL     1      25.332   4.699   4.164  1.00  0.00     0.016 A
HETATM    4  C5  UNL     1      25.512   6.107   4.094  1.00  0.00     0.001 A
HETATM    5  C6  UNL     1      26.754   6.666   4.072  1.00  0.00     0.003 A
HETATM    6  C7  UNL     1      27.846   5.840   4.119  1.00  0.00     0.038 A
HETATM    7  C8  UNL     1      27.710   4.452   4.188  1.00  0.00     0.088 A
HETATM    8  O2  UNL     1      28.790   3.732   4.229  1.00  0.00    -0.309 OA
HETATM    9  C9  UNL     1      28.734   2.439   4.294  1.00  0.00     0.089 A
HETATM   10  C10 UNL     1      29.929   1.727   4.336  1.00  0.00     0.039 A
HETATM   11  C11 UNL     1      29.891   0.376   4.404  1.00  0.00     0.015 A
HETATM   12  C12 UNL     1      28.693  -0.286   4.432  1.00  0.00    -0.025 A
HETATM   13  C13 UNL     1      28.702  -1.663   4.502  1.00  0.00     0.012 A
HETATM   14  C14 UNL     1      27.530  -2.366   4.531  1.00  0.00     0.001 A
HETATM   15  C15 UNL     1      26.335  -1.695   4.491  1.00  0.00     0.001 A
HETATM   16  C16 UNL     1      26.301  -0.294   4.420  1.00  0.00     0.013 A
HETATM   17  C17 UNL     1      27.471   0.393   4.392  1.00  0.00    -0.011 A
HETATM   18  C18 UNL     1      27.506   1.782   4.322  1.00  0.00     0.037 A
ENDROOT
BRANCH   1  19
HETATM   19  N2  UNL     1      25.211   2.025   4.299  1.00  0.00    -0.309 N
HETATM   20  C1  UNL     1      23.947   1.853   3.861  1.00  0.00     0.333 C
HETATM   21  N1  UNL     1      22.772   2.540   4.298  1.00  0.00    -0.040 NA
HETATM   22  O1  UNL     1      23.708   0.975   2.945  1.00  0.00    -0.251 OA
ATOM     23  H2  UNL     1      25.267   1.378   5.085  1.00  0.00     0.170 HD
ENDBRANCH   1  19
TORSDOF 1
ENDMDL