MODEL 1
REMARK VINA RESULT: -7.352072462      0.000      0.000
REMARK  2 active torsions:
REMARK  status: ('A' for Active; 'I' for Inactive)
REMARK    1  A    between atoms: N1_3  and  C3_5
REMARK    2  A    between atoms: C3_5  and  N2_7
ROOT
HETATM    1  C1  UNL     1      27.201   6.397   4.187  1.00  0.00     0.037 C
HETATM    2  C2  UNL     1      27.777   5.478   3.673  1.00  0.00     0.001 C
HETATM    3  N1  UNL     1      28.471   4.336   3.062  1.00  0.00    -0.295 N
ATOM      4  H1  UNL     1      29.057   4.436   2.233  1.00  0.00     0.178 HD
ENDROOT
BRANCH   3   5
HETATM    5  C3  UNL     1      28.278   3.128   3.683  1.00  0.00     0.170 C
HETATM    6  S1  UNL     1      29.204   3.076   5.185  1.00  0.00    -0.012 SA
BRANCH   5   7
HETATM    7  N2  UNL     1      27.395   2.025   3.621  1.00  0.00    -0.288 N
HETATM    8  C4  UNL     1      27.968   0.721   3.380  1.00  0.00     0.059 A
HETATM    9  C5  UNL     1      29.170   0.653   2.670  1.00  0.00     0.031 A
HETATM   10  C9  UNL     1      27.397  -0.489   3.606  1.00  0.00     0.033 A
HETATM   11  C6  UNL     1      29.722  -0.573   2.246  1.00  0.00     0.002 A
HETATM   12  C7  UNL     1      29.077  -1.748   2.520  1.00  0.00     0.002 A
HETATM   13  C8  UNL     1      27.888  -1.708   3.214  1.00  0.00     0.021 A
HETATM   14  S2  UNL     1      25.854  -0.548   4.480  1.00  0.00    -0.086 SA
HETATM   15  C10 UNL     1      25.243   1.119   4.455  1.00  0.00     0.033 A
HETATM   16  C11 UNL     1      23.929   1.263   4.843  1.00  0.00     0.021 A
HETATM   17  C15 UNL     1      26.068   2.162   4.134  1.00  0.00     0.059 A
HETATM   18  C12 UNL     1      23.364   2.508   4.933  1.00  0.00     0.002 A
HETATM   19  C13 UNL     1      24.126   3.589   4.632  1.00  0.00     0.002 A
HETATM   20  C14 UNL     1      25.443   3.401   4.243  1.00  0.00     0.031 A
ENDBRANCH   5   7
ENDBRANCH   3   5
TORSDOF 2
ENDMDL