MODEL 5
REMARK VINA RESULT: -7.034506765      2.022      3.245
REMARK  1 active torsions:
REMARK  status: ('A' for Active; 'I' for Inactive)
REMARK    1  A    between atoms: N2_11  and  O1_12
ROOT
HETATM    1  N1  UNL     1      22.023   4.869   4.693  1.00  0.00    -0.102 NA
HETATM    2  C1  UNL     1      23.301   4.339   4.371  1.00  0.00     0.049 A
HETATM    3  C2  UNL     1      24.378   5.168   4.211  1.00  0.00     0.039 A
HETATM    4  C3  UNL     1      25.649   4.693   3.895  1.00  0.00    -0.021 A
HETATM    5  C4  UNL     1      26.716   5.551   3.740  1.00  0.00     0.012 A
HETATM    6  C5  UNL     1      27.952   5.040   3.428  1.00  0.00     0.002 A
HETATM    7  C6  UNL     1      28.141   3.672   3.267  1.00  0.00     0.013 A
HETATM    8  C7  UNL     1      27.074   2.820   3.422  1.00  0.00    -0.009 A
HETATM    9  C8  UNL     1      27.183   1.446   3.278  1.00  0.00     0.015 A
HETATM   10  C9  UNL     1      26.067   0.638   3.448  1.00  0.00     0.075 A
HETATM   11  N2  UNL     1      24.884   1.169   3.750  1.00  0.00    -0.223 N
HETATM   12  C10 UNL     1      24.748   2.483   3.895  1.00  0.00     0.076 A
HETATM   13  C11 UNL     1      23.491   2.975   4.210  1.00  0.00     0.059 A
HETATM   14  C12 UNL     1      25.816   3.335   3.739  1.00  0.00     0.015 A
HETATM   15  C13 UNL     1      26.464  -0.750   3.239  1.00  0.00     0.045 A
HETATM   16  C14 UNL     1      27.753  -0.681   2.968  1.00  0.00    -0.023 A
HETATM   17  C15 UNL     1      28.591  -1.752   2.692  1.00  0.00     0.012 A
HETATM   18  C16 UNL     1      29.905  -1.518   2.429  1.00  0.00     0.001 A
HETATM   19  C17 UNL     1      30.341  -0.229   2.449  1.00  0.00     0.001 A
HETATM   20  C18 UNL     1      29.519   0.873   2.723  1.00  0.00     0.013 A
HETATM   21  C19 UNL     1      28.196   0.649   2.989  1.00  0.00    -0.012 A
ENDROOT
BRANCH  11  22
HETATM   22  O1  UNL     1      23.811   0.295   3.904  1.00  0.00    -0.282 OA
ATOM     23  H1  UNL     1      22.950   0.678   4.025  1.00  0.00     0.245 HD
ENDBRANCH  11  22
TORSDOF 1
ENDMDL