MODEL 2
REMARK VINA RESULT: -2.498883312      1.024      1.058
REMARK  3 active torsions:
REMARK  status: ('A' for Active; 'I' for Inactive)
REMARK    1  A    between atoms: C5_7  and  C6_8
REMARK    2  A    between atoms: C6_8  and  C7_9
REMARK    3  A    between atoms: C7_9  and  C8_10
ROOT
HETATM    1  C6  UNL     1      25.920   1.131   4.155  1.00  0.00    -0.061 C
ENDROOT
BRANCH   1   2
HETATM    2  C5  UNL     1      26.833   0.007   4.085  1.00  0.00     0.020 A
HETATM    3  C4  UNL     1      28.173   0.185   3.841  1.00  0.00     0.052 A
HETATM    4  C3  UNL     1      29.015  -0.901   3.780  1.00  0.00     0.061 A
HETATM    5  N1  UNL     1      30.321  -1.022   3.566  1.00  0.00    -0.344 N
HETATM    6  C19 UNL     1      28.530  -2.193   3.964  1.00  0.00     0.060 A
HETATM    7  C2  UNL     1      30.661  -2.302   3.607  1.00  0.00     0.078 A
ATOM      8  H1  UNL     1      30.964  -0.249   3.396  1.00  0.00     0.167 HD
HETATM    9  C1  UNL     1      32.042  -2.867   3.413  1.00  0.00     0.089 C
HETATM   10  N3  UNL     1      29.576  -3.030   3.850  1.00  0.00    -0.344 N
ATOM     11  H3  UNL     1      29.542  -4.047   3.936  1.00  0.00     0.167 HD
HETATM   12  C18 UNL     1      27.194  -2.382   4.208  1.00  0.00     0.033 A
HETATM   13  C17 UNL     1      26.367  -1.287   4.265  1.00  0.00     0.023 A
ENDBRANCH   1   2
BRANCH   1  14
HETATM   14  C7  UNL     1      25.159   2.074   4.192  1.00  0.00    -0.060 C
BRANCH  14  15
HETATM   15  C8  UNL     1      24.279   3.201   4.228  1.00  0.00     0.032 A
HETATM   16  C9  UNL     1      22.917   3.110   4.461  1.00  0.00     0.038 A
HETATM   17  C10 UNL     1      22.121   4.228   4.484  1.00  0.00     0.090 A
HETATM   18  N2  UNL     1      22.657   5.428   4.279  1.00  0.00    -0.365 N
HETATM   19  C11 UNL     1      23.975   5.549   4.050  1.00  0.00     0.043 A
ATOM     20  H2  UNL     1      22.066   6.259   4.296  1.00  0.00     0.165 HD
HETATM   21  C12 UNL     1      24.556   6.793   3.833  1.00  0.00     0.030 A
HETATM   22  C16 UNL     1      24.820   4.449   4.017  1.00  0.00     0.009 A
HETATM   23  C13 UNL     1      25.901   6.933   3.598  1.00  0.00     0.002 A
HETATM   24  C14 UNL     1      26.704   5.805   3.574  1.00  0.00     0.001 A
HETATM   25  C15 UNL     1      26.167   4.552   3.785  1.00  0.00     0.015 A
ENDBRANCH  14  15
ENDBRANCH   1  14
TORSDOF 3
ENDMDL