MODEL 5
REMARK VINA RESULT: 7.412816454      1.017      1.017
REMARK  2 active torsions:
REMARK  status: ('A' for Active; 'I' for Inactive)
REMARK    1  A    between atoms: C8_9  and  C9_10
REMARK    2  A    between atoms: C10_11  and  C11_12
ROOT
HETATM    1  N1  UNL     1      23.504  -0.226   2.932  1.00  0.00    -0.191 NA
HETATM    2  C1  UNL     1      24.092   0.759   2.977  1.00  0.00     0.099 C
HETATM    3  C2  UNL     1      24.839   1.985   3.025  1.00  0.00     0.045 A
HETATM    4  C3  UNL     1      26.014   2.113   2.312  1.00  0.00     0.023 A
HETATM    5  C4  UNL     1      26.766   3.262   2.322  1.00  0.00     0.014 A
HETATM    6  C5  UNL     1      26.341   4.354   3.081  1.00  0.00    -0.026 A
HETATM    7  C6  UNL     1      27.086   5.511   3.100  1.00  0.00     0.014 A
HETATM    8  C7  UNL     1      26.635   6.563   3.859  1.00  0.00     0.021 A
HETATM    9  C8  UNL     1      25.460   6.493   4.598  1.00  0.00     0.019 A
HETATM   10  C18 UNL     1      24.717   5.333   4.575  1.00  0.00     0.032 A
HETATM   11  C19 UNL     1      25.172   4.258   3.805  1.00  0.00    -0.023 A
HETATM   12  C20 UNL     1      24.438   3.072   3.764  1.00  0.00     0.035 A
ENDROOT
BRANCH   9  13
HETATM   13  C9  UNL     1      24.973   7.582   5.396  1.00  0.00    -0.059 C
HETATM   14  C10 UNL     1      24.571   8.502   6.090  1.00  0.00    -0.025 C
BRANCH  14  15
HETATM   15  C11 UNL     1      24.112   9.567   6.924  1.00  0.00     0.163 A
HETATM   16  N2  UNL     1      23.856  10.852   6.591  1.00  0.00    -0.333 N
HETATM   17  C12 UNL     1      23.445  11.538   7.644  1.00  0.00     0.061 A
ATOM     18  H2  UNL     1      23.965  11.240   5.654  1.00  0.00     0.168 HD
HETATM   19  C13 UNL     1      23.072  12.852   7.804  1.00  0.00     0.032 A
HETATM   20  C17 UNL     1      23.432  10.665   8.711  1.00  0.00     0.061 A
HETATM   21  C14 UNL     1      22.675  13.307   9.069  1.00  0.00     0.002 A
HETATM   22  C15 UNL     1      22.656  12.448  10.144  1.00  0.00     0.002 A
HETATM   23  C16 UNL     1      23.038  11.123   9.957  1.00  0.00     0.032 A
HETATM   24  N3  UNL     1      23.848   9.460   8.237  1.00  0.00    -0.333 N
ATOM     25  H3  UNL     1      23.943   8.609   8.791  1.00  0.00     0.168 HD
ENDBRANCH  14  15
ENDBRANCH   9  13
TORSDOF 2
ENDMDL