MODEL 4
REMARK VINA RESULT: -6.977518847      2.489      4.866
REMARK  4 active torsions:
REMARK  status: ('A' for Active; 'I' for Inactive)
REMARK    1  A    between atoms: O1_1  and  C1_3
REMARK    2  A    between atoms: C6_8  and  C7_9
REMARK    3  A    between atoms: C12_14  and  N1_15
REMARK    4  A    between atoms: C17_20  and  N2_21
ROOT
HETATM    1  C1  UNL     1      29.822  -0.101   5.068  1.00  0.00     0.078 A
HETATM    2  C2  UNL     1      29.742  -0.078   6.443  1.00  0.00     0.037 A
HETATM    3  C3  UNL     1      29.108   0.953   7.082  1.00  0.00     0.004 A
HETATM    4  C4  UNL     1      28.555   1.963   6.292  1.00  0.00     0.015 A
HETATM    5  C5  UNL     1      28.611   1.979   4.920  1.00  0.00     0.006 A
HETATM    6  C6  UNL     1      28.183   2.796   3.898  1.00  0.00     0.064 A
HETATM    7  N2  UNL     1      28.580   2.220   2.661  1.00  0.00    -0.305 N
HETATM    8  C18 UNL     1      29.236   1.075   2.942  1.00  0.00     0.114 A
HETATM    9  C19 UNL     1      29.258   0.924   4.312  1.00  0.00     0.026 A
ENDROOT
BRANCH   1  10
HETATM   10  O1  UNL     1      30.472  -1.161   4.449  1.00  0.00    -0.360 OA
ATOM     11  H1  UNL     1      30.655  -1.109   3.519  1.00  0.00     0.217 HD
ENDBRANCH   1  10
BRANCH   6  12
HETATM   12  C7  UNL     1      27.485   3.986   3.923  1.00  0.00     0.019 A
HETATM   13  C8  UNL     1      28.080   5.192   4.055  1.00  0.00     0.016 A
HETATM   14  C9  UNL     1      27.321   6.368   4.074  1.00  0.00     0.001 A
HETATM   15  C10 UNL     1      25.980   6.313   3.961  1.00  0.00     0.002 A
HETATM   16  C11 UNL     1      25.335   5.086   3.825  1.00  0.00     0.031 A
HETATM   17  C12 UNL     1      26.084   3.927   3.806  1.00  0.00     0.053 A
BRANCH  17  18
HETATM   18  N1  UNL     1      25.457   2.725   3.673  1.00  0.00    -0.307 N
HETATM   19  C13 UNL     1      24.827   2.219   4.727  1.00  0.00     0.099 A
HETATM   20  C14 UNL     1      24.181   0.983   4.593  1.00  0.00     0.018 A
HETATM   21  C15 UNL     1      24.191   0.311   3.426  1.00  0.00     0.005 A
HETATM   22  C16 UNL     1      24.840   0.830   2.332  1.00  0.00     0.050 A
HETATM   23  C17 UNL     1      25.475   2.061   2.492  1.00  0.00     0.118 A
ENDBRANCH  17  18
ENDBRANCH   6  12
TORSDOF 4
ENDMDL