MODEL 1
REMARK VINA RESULT: -6.882530313      0.000      0.000
REMARK  11 active torsions:
REMARK  status: ('A' for Active; 'I' for Inactive)
REMARK    1  A    between atoms: C2_2  and  O1_3
REMARK    2  A    between atoms: O1_3  and  C3_4
REMARK       I    between atoms: C3_4  and  N1_6
REMARK    3  A    between atoms: N1_6  and  C4_8
REMARK    4  A    between atoms: C5_11  and  C6_12
REMARK    5  A    between atoms: C6_12  and  O4_14
REMARK    6  A    between atoms: O4_14  and  C7_15
REMARK    7  A    between atoms: C7_15  and  C8_16
REMARK    8  A    between atoms: C8_16  and  C9_18
REMARK    9  A    between atoms: C12_21  and  C13_22
REMARK   10  A    between atoms: C13_22  and  C14_23
REMARK   11  A    between atoms: C14_23  and  O7_25
ROOT
HETATM    1  C4  UNL     1      22.016  29.201  17.484  1.00  0.00     0.154 A
HETATM    2  N2  UNL     1      22.881  29.791  18.307  1.00  0.00    -0.331 N
ATOM      3  H2  UNL     1      23.533  29.238  18.862  1.00  0.00     0.168 HD
HETATM    4  C5  UNL     1      22.872  31.106  18.385  1.00  0.00     0.124 A
HETATM    5  C12 UNL     1      21.967  31.776  17.608  1.00  0.00     0.028 A
HETATM    6  S1  UNL     1      21.170  30.500  16.801  1.00  0.00    -0.055 SA
ENDROOT
BRANCH   4   7
HETATM    7  C6  UNL     1      23.816  31.818  19.288  1.00  0.00     0.315 C
HETATM    8  O3  UNL     1      24.984  31.999  18.885  1.00  0.00    -0.257 OA
BRANCH   7   9
HETATM    9  O4  UNL     1      23.495  32.281  20.510  1.00  0.00    -0.282 OA
BRANCH   9  10
HETATM   10  C7  UNL     1      22.373  32.693  21.141  1.00  0.00     0.196 C
BRANCH  10  11
HETATM   11  C8  UNL     1      21.372  31.789  21.674  1.00  0.00     0.174 C
HETATM   12  O5  UNL     1      21.627  31.365  22.846  1.00  0.00    -0.291 OA
BRANCH  11  13
HETATM   13  C9  UNL     1      20.125  31.269  21.130  1.00  0.00     0.053 C
HETATM   14  C10 UNL     1      19.402  32.202  20.183  1.00  0.00     0.018 C
HETATM   15  C11 UNL     1      20.239  29.855  20.670  1.00  0.00     0.018 C
ENDBRANCH  11  13
ENDBRANCH  10  11
ENDBRANCH   9  10
ENDBRANCH   7   9
ENDBRANCH   4   7
BRANCH   5  16
HETATM   16  C13 UNL     1      21.755  33.257  17.515  1.00  0.00     0.160 C
BRANCH  16  17
HETATM   17  C14 UNL     1      22.353  33.733  16.267  1.00  0.00     0.263 C
HETATM   18  O6  UNL     1      23.586  33.738  16.098  1.00  0.00    -0.265 OA
BRANCH  17  19
HETATM   19  O7  UNL     1      21.591  34.204  15.200  1.00  0.00    -0.326 OA
HETATM   20  C15 UNL     1      20.758  35.348  15.333  1.00  0.00     0.213 C
ENDBRANCH  17  19
ENDBRANCH  16  17
ENDBRANCH   5  16
BRANCH   1  21
HETATM   21  N1  UNL     1      21.842  27.922  17.241  1.00  0.00    -0.282 N
HETATM   22  C3  UNL     1      21.780  26.962  18.253  1.00  0.00     0.366 C
HETATM   23  O2  UNL     1      22.731  26.858  19.068  1.00  0.00    -0.238 OA
ATOM     24  H1  UNL     1      21.748  27.618  16.272  1.00  0.00     0.173 HD
BRANCH  22  25
HETATM   25  O1  UNL     1      20.675  26.124  18.360  1.00  0.00    -0.304 OA
BRANCH  25  26
HETATM   26  C2  UNL     1      20.157  25.896  19.664  1.00  0.00     0.176 C
HETATM   27  C1  UNL     1      18.789  26.479  19.838  1.00  0.00     0.034 C
ENDBRANCH  25  26
ENDBRANCH  22  25
ENDBRANCH   1  21
TORSDOF 11
ENDMDL