MODEL 3
REMARK VINA RESULT: -7.264427972      1.441      2.350
REMARK  11 active torsions:
REMARK  status: ('A' for Active; 'I' for Inactive)
REMARK    1  A    between atoms: C2_2  and  O2_4
REMARK    2  A    between atoms: O2_4  and  C3_5
REMARK    3  A    between atoms: C3_5  and  C4_6
REMARK    4  A    between atoms: C4_6  and  O4_8
REMARK    5  A    between atoms: O4_8  and  C5_9
REMARK    6  A    between atoms: C5_9  and  C6_11
REMARK    7  A    between atoms: C6_11  and  O6_13
REMARK    8  A    between atoms: O6_13  and  C8_14
REMARK    9  A    between atoms: C12_19  and  O8_20
REMARK   10  A    between atoms: O8_20  and  C13_21
REMARK       I    between atoms: C13_21  and  N1_23
REMARK   11  A    between atoms: N1_23  and  C14_25
ROOT
HETATM    1  C3  UNL     1      22.767  30.770  17.840  1.00  0.00     0.184 C
HETATM    2  C9  UNL     1      23.816  31.609  18.570  1.00  0.00     0.052 C
HETATM    3  C10 UNL     1      23.446  31.431  20.022  1.00  0.00     0.006 C
HETATM    4  C11 UNL     1      23.145  29.944  20.091  1.00  0.00     0.036 C
HETATM    5  C12 UNL     1      22.271  29.766  18.866  1.00  0.00     0.179 C
ENDROOT
BRANCH   1   6
HETATM    6  O2  UNL     1      23.314  30.054  16.781  1.00  0.00    -0.297 OA
BRANCH   6   7
HETATM    7  C2  UNL     1      22.912  30.093  15.472  1.00  0.00     0.256 C
HETATM    8  C1  UNL     1      22.060  29.046  14.835  1.00  0.00     0.126 C
HETATM    9  O1  UNL     1      23.273  31.050  14.766  1.00  0.00    -0.266 OA
ENDBRANCH   6   7
ENDBRANCH   1   6
BRANCH   1  10
HETATM   10  C4  UNL     1      21.683  31.700  17.444  1.00  0.00     0.304 C
HETATM   11  O3  UNL     1      20.527  31.251  17.241  1.00  0.00    -0.261 OA
BRANCH  10  12
HETATM   12  O4  UNL     1      21.844  33.066  17.272  1.00  0.00    -0.240 OA
BRANCH  12  13
HETATM   13  C5  UNL     1      21.069  34.005  17.931  1.00  0.00     0.295 C
HETATM   14  O5  UNL     1      20.567  34.954  17.281  1.00  0.00    -0.262 OA
BRANCH  13  15
HETATM   15  C6  UNL     1      20.799  33.945  19.388  1.00  0.00     0.227 C
HETATM   16  C7  UNL     1      21.263  35.262  19.978  1.00  0.00     0.051 C
BRANCH  15  17
HETATM   17  O6  UNL     1      19.463  33.664  19.673  1.00  0.00    -0.313 OA
BRANCH  17  18
HETATM   18  C8  UNL     1      19.023  32.468  20.176  1.00  0.00     0.399 C
HETATM   19  O7  UNL     1      19.846  31.664  20.657  1.00  0.00    -0.276 OA
ENDBRANCH  17  18
ENDBRANCH  15  17
ENDBRANCH  13  15
ENDBRANCH  12  13
ENDBRANCH  10  12
ENDBRANCH   1  10
BRANCH   5  20
HETATM   20  O8  UNL     1      22.439  28.434  18.430  1.00  0.00    -0.295 OA
BRANCH  20  21
HETATM   21  C13 UNL     1      21.574  27.410  18.731  1.00  0.00     0.361 C
HETATM   22  O9  UNL     1      21.384  26.542  17.824  1.00  0.00    -0.238 OA
HETATM   23  N1  UNL     1      20.901  27.281  19.976  1.00  0.00    -0.333 N
ATOM     24  H1  UNL     1      21.051  27.976  20.708  1.00  0.00     0.165 HD
BRANCH  23  25
HETATM   25  C14 UNL     1      20.009  26.174  20.210  1.00  0.00     0.078 C
HETATM   26  C15 UNL     1      20.003  25.765  21.666  1.00  0.00     0.032 C
HETATM   27  C16 UNL     1      18.596  26.478  19.740  1.00  0.00     0.032 C
ENDBRANCH  23  25
ENDBRANCH  20  21
ENDBRANCH   5  20
TORSDOF 11
ENDMDL