MODEL 1
REMARK VINA RESULT: -7.192964182      0.000      0.000
REMARK  10 active torsions:
REMARK  status: ('A' for Active; 'I' for Inactive)
REMARK    1  A    between atoms: C3_3  and  C5_5
REMARK    2  A    between atoms: C5_5  and  O2_7
REMARK    3  A    between atoms: O2_7  and  C6_8
REMARK    4  A    between atoms: C6_8  and  C8_10
REMARK    5  A    between atoms: C8_10  and  O4_12
REMARK    6  A    between atoms: O4_12  and  C9_13
REMARK    7  A    between atoms: C9_13  and  C10_14
REMARK    8  A    between atoms: C16_20  and  O5_21
REMARK    9  A    between atoms: O5_21  and  C17_22
REMARK   10  A    between atoms: C19_25  and  O7_26
ROOT
HETATM    1  C10 UNL     1      22.254  32.101  19.999  1.00  0.00     0.010 C
HETATM    2  C11 UNL     1      21.864  31.388  21.274  1.00  0.00     0.020 C
HETATM    3  C12 UNL     1      22.318  33.562  20.290  1.00  0.00    -0.006 C
HETATM    4  C13 UNL     1      22.191  34.416  19.036  1.00  0.00     0.011 C
HETATM    5  C14 UNL     1      23.525  34.011  21.033  1.00  0.00     0.008 C
HETATM    6  C15 UNL     1      24.485  32.901  21.360  1.00  0.00     0.035 C
HETATM    7  C16 UNL     1      24.776  32.022  20.151  1.00  0.00     0.161 C
HETATM    8  C19 UNL     1      23.536  31.496  19.505  1.00  0.00     0.158 C
ENDROOT
BRANCH   1   9
HETATM    9  C9  UNL     1      21.194  31.811  18.956  1.00  0.00     0.191 C
BRANCH   9  10
HETATM   10  O4  UNL     1      21.784  31.489  17.704  1.00  0.00    -0.319 OA
BRANCH  10  11
HETATM   11  C8  UNL     1      21.231  30.580  16.858  1.00  0.00     0.288 C
HETATM   12  O3  UNL     1      20.089  30.819  16.378  1.00  0.00    -0.262 OA
BRANCH  11  13
HETATM   13  C6  UNL     1      21.972  29.318  16.506  1.00  0.00     0.227 C
HETATM   14  C7  UNL     1      23.278  29.689  15.836  1.00  0.00     0.051 C
BRANCH  13  15
HETATM   15  O2  UNL     1      22.252  28.549  17.641  1.00  0.00    -0.302 OA
BRANCH  15  16
HETATM   16  C5  UNL     1      21.518  27.429  18.022  1.00  0.00     0.289 C
HETATM   17  O1  UNL     1      21.526  26.470  17.210  1.00  0.00    -0.260 OA
BRANCH  16  18
HETATM   18  C3  UNL     1      20.782  27.353  19.270  1.00  0.00     0.009 C
HETATM   19  C2  UNL     1      20.694  26.240  19.960  1.00  0.00    -0.018 C
HETATM   20  C1  UNL     1      19.940  26.172  21.230  1.00  0.00     0.036 C
HETATM   21  C4  UNL     1      20.111  28.568  19.776  1.00  0.00     0.054 C
ENDBRANCH  16  18
ENDBRANCH  15  16
ENDBRANCH  13  15
ENDBRANCH  11  13
ENDBRANCH  10  11
ENDBRANCH   9  10
ENDBRANCH   1   9
BRANCH   8  22
HETATM   22  O7  UNL     1      23.399  30.112  19.671  1.00  0.00    -0.392 OA
ATOM     23  H7  UNL     1      24.276  29.778  19.819  1.00  0.00     0.210 HD
ENDBRANCH   8  22
BRANCH   7  24
HETATM   24  O5  UNL     1      25.697  32.608  19.289  1.00  0.00    -0.314 OA
BRANCH  24  25
HETATM   25  C17 UNL     1      25.641  32.477  17.942  1.00  0.00     0.255 C
HETATM   26  C18 UNL     1      25.170  33.509  16.985  1.00  0.00     0.126 C
HETATM   27  O6  UNL     1      26.020  31.390  17.483  1.00  0.00    -0.266 OA
ENDBRANCH  24  25
ENDBRANCH   7  24
TORSDOF 10
ENDMDL