MODEL 1
REMARK VINA RESULT: -7.030096972      0.000      0.000
REMARK  6 active torsions:
REMARK  status: ('A' for Active; 'I' for Inactive)
REMARK    1  A    between atoms: O1_2  and  C2_3
REMARK    2  A    between atoms: C4_5  and  C5_6
REMARK    3  A    between atoms: C9_14  and  O3_15
REMARK    4  A    between atoms: O3_15  and  C10_16
REMARK    5  A    between atoms: C16_23  and  O4_24
REMARK    6  A    between atoms: C18_26  and  O5_27
ROOT
HETATM    1  C2  UNL     1      25.198  32.385  17.614  1.00  0.00     0.105 A
HETATM    2  C3  UNL     1      24.302  31.738  16.797  1.00  0.00     0.052 A
HETATM    3  C4  UNL     1      23.206  31.059  17.345  1.00  0.00     0.011 A
HETATM    4  C9  UNL     1      22.963  30.998  18.697  1.00  0.00     0.114 A
HETATM    5  C16 UNL     1      23.886  31.659  19.506  1.00  0.00     0.138 A
HETATM    6  C18 UNL     1      24.989  32.343  18.967  1.00  0.00     0.138 A
ENDROOT
BRANCH   3   7
HETATM    7  C5  UNL     1      22.296  30.362  16.405  1.00  0.00     0.183 C
HETATM    8  C6  UNL     1      22.309  30.990  15.011  1.00  0.00     0.269 C
HETATM    9  N1  UNL     1      21.278  30.258  14.271  1.00  0.00    -0.070 N
HETATM   10  C7  UNL     1      21.875  28.937  14.050  1.00  0.00     0.258 C
ATOM     11  H12 UNL     1      20.367  30.235  14.730  1.00  0.00     0.277 HD
ATOM     12  H11 UNL     1      20.960  30.723  13.421  1.00  0.00     0.277 HD
HETATM   13  C8  UNL     1      22.075  28.298  15.382  1.00  0.00     0.196 C
HETATM   14  O2  UNL     1      22.805  29.045  16.295  1.00  0.00    -0.378 OA
ENDBRANCH   3   7
BRANCH   4  15
HETATM   15  O3  UNL     1      21.913  30.355  19.185  1.00  0.00    -0.342 OA
BRANCH  15  16
HETATM   16  C10 UNL     1      21.454  29.472  20.062  1.00  0.00     0.132 C
HETATM   17  C11 UNL     1      22.046  28.082  19.781  1.00  0.00     0.062 C
HETATM   18  C12 UNL     1      21.000  27.147  19.174  1.00  0.00     0.274 C
HETATM   19  N2  UNL     1      20.028  26.824  20.204  1.00  0.00     0.084 N
HETATM   20  C13 UNL     1      18.801  26.384  19.578  1.00  0.00     0.309 C
HETATM   21  C14 UNL     1      19.798  27.994  21.059  1.00  0.00     0.274 C
HETATM   22  C15 UNL     1      19.957  29.224  20.148  1.00  0.00     0.062 C
ENDBRANCH  15  16
ENDBRANCH   4  15
BRANCH   1  23
HETATM   23  O1  UNL     1      26.290  33.064  17.089  1.00  0.00    -0.353 OA
HETATM   24  C1  UNL     1      26.199  34.246  16.355  1.00  0.00     0.210 C
ENDBRANCH   1  23
BRANCH   5  25
HETATM   25  O4  UNL     1      23.782  31.685  20.863  1.00  0.00    -0.351 OA
HETATM   26  C17 UNL     1      22.984  32.500  21.662  1.00  0.00     0.210 C
ENDBRANCH   5  25
BRANCH   6  27
HETATM   27  O5  UNL     1      25.915  33.007  19.753  1.00  0.00    -0.351 OA
HETATM   28  C19 UNL     1      25.808  34.362  20.133  1.00  0.00     0.210 C
ENDBRANCH   6  27
TORSDOF 6
ENDMDL