MODEL 4
REMARK VINA RESULT: -6.711574009      0.667      2.193
REMARK  7 active torsions:
REMARK  status: ('A' for Active; 'I' for Inactive)
REMARK    1  A    between atoms: S1_2  and  C2_3
REMARK    2  A    between atoms: C6_7  and  O1_8
REMARK    3  A    between atoms: C6_7  and  C7_10
REMARK    4  A    between atoms: C7_10  and  C8_11
REMARK    5  A    between atoms: C8_11  and  C9_12
REMARK    6  A    between atoms: C9_12  and  C11_14
REMARK    7  A    between atoms: C11_14  and  N1_15
ROOT
HETATM    1  C9  UNL     1      21.853  28.534  19.455  1.00  0.00     0.000 C
HETATM    2  C10 UNL     1      21.583  27.209  20.069  1.00  0.00     0.011 C
ENDROOT
BRANCH   1   3
HETATM    3  C8  UNL     1      22.213  29.604  20.492  1.00  0.00     0.009 C
BRANCH   3   4
HETATM    4  C7  UNL     1      23.426  30.368  20.104  1.00  0.00     0.038 C
BRANCH   4   5
HETATM    5  C6  UNL     1      23.341  31.764  20.659  1.00  0.00     0.059 C
HETATM    6  C5  UNL     1      22.245  31.971  21.638  1.00  0.00     0.038 C
HETATM    7  C4  UNL     1      22.707  32.180  23.062  1.00  0.00     0.004 C
HETATM    8  C3  UNL     1      23.772  33.206  23.235  1.00  0.00     0.015 C
HETATM    9  C2  UNL     1      24.390  33.535  21.918  1.00  0.00     0.049 C
HETATM   10  C17 UNL     1      24.697  32.221  21.216  1.00  0.00     0.053 C
BRANCH   9  11
HETATM   11  S1  UNL     1      25.854  34.582  22.049  1.00  0.00    -0.169 SA
HETATM   12  C1  UNL     1      26.399  34.786  23.751  1.00  0.00     0.090 C
ENDBRANCH   9  11
BRANCH   5  13
HETATM   13  O1  UNL     1      23.148  32.600  19.530  1.00  0.00    -0.390 OA
ATOM     14  H1  UNL     1      23.431  32.152  18.741  1.00  0.00     0.210 HD
ENDBRANCH   5  13
ENDBRANCH   4   5
ENDBRANCH   3   4
ENDBRANCH   1   3
BRANCH   1  15
HETATM   15  C11 UNL     1      20.780  29.088  18.592  1.00  0.00     0.143 C
BRANCH  15  16
HETATM   16  N1  UNL     1      21.242  29.651  17.347  1.00  0.00    -0.250 N
HETATM   17  C12 UNL     1      21.272  30.969  17.109  1.00  0.00     0.336 A
HETATM   18  O2  UNL     1      20.891  31.740  18.000  1.00  0.00    -0.246 OA
HETATM   19  N2  UNL     1      21.704  31.487  15.933  1.00  0.00    -0.255 N
HETATM   20  C13 UNL     1      21.734  32.914  15.686  1.00  0.00     0.166 C
HETATM   21  C14 UNL     1      22.123  30.665  14.955  1.00  0.00     0.336 A
HETATM   22  O3  UNL     1      22.531  31.143  13.844  1.00  0.00    -0.246 OA
HETATM   23  N3  UNL     1      22.099  29.341  15.174  1.00  0.00    -0.255 N
HETATM   24  C15 UNL     1      22.550  28.471  14.112  1.00  0.00     0.166 C
HETATM   25  C16 UNL     1      21.664  28.848  16.354  1.00  0.00     0.336 A
HETATM   26  O4  UNL     1      21.681  27.573  16.465  1.00  0.00    -0.246 OA
ENDBRANCH  15  16
ENDBRANCH   1  15
TORSDOF 7
ENDMDL