MODEL 2
REMARK VINA RESULT: -7.545988122      1.382      1.657
REMARK  9 active torsions:
REMARK  status: ('A' for Active; 'I' for Inactive)
REMARK    1  A    between atoms: O1_2  and  C2_3
REMARK    2  A    between atoms: C2_3  and  C3_5
REMARK    3  A    between atoms: C3_5  and  C4_6
REMARK    4  A    between atoms: C7_9  and  O3_10
REMARK    5  A    between atoms: O3_10  and  C8_11
REMARK    6  A    between atoms: C9_13  and  C10_14
REMARK    7  A    between atoms: C12_17  and  O6_18
REMARK    8  A    between atoms: C14_21  and  O7_22
REMARK    9  A    between atoms: O7_22  and  C15_23
ROOT
HETATM    1  C8  UNL     1      22.200  30.300  18.439  1.00  0.00     0.290 C
HETATM    2  O4  UNL     1      23.485  30.696  18.120  1.00  0.00    -0.343 OA
HETATM    3  C9  UNL     1      23.671  30.927  16.769  1.00  0.00     0.222 C
HETATM    4  C12 UNL     1      23.164  29.841  15.884  1.00  0.00     0.157 C
HETATM    5  C13 UNL     1      21.944  29.127  16.355  1.00  0.00     0.072 C
HETATM    6  C14 UNL     1      22.032  28.904  17.838  1.00  0.00     0.189 C
ENDROOT
BRANCH   1   7
HETATM    7  O3  UNL     1      21.973  30.342  19.786  1.00  0.00    -0.353 OA
BRANCH   7   8
HETATM    8  C7  UNL     1      21.278  31.484  20.162  1.00  0.00     0.124 C
HETATM    9  C6  UNL     1      19.887  31.378  19.555  1.00  0.00     0.032 C
HETATM   10  C5  UNL     1      19.012  32.502  20.121  1.00  0.00     0.007 C
HETATM   11  C4  UNL     1      19.595  33.796  19.608  1.00  0.00    -0.005 C
HETATM   12  C18 UNL     1      21.015  33.899  20.121  1.00  0.00     0.007 C
HETATM   13  C17 UNL     1      21.884  32.757  19.641  1.00  0.00     0.032 C
BRANCH  11  14
HETATM   14  C3  UNL     1      18.836  35.000  20.122  1.00  0.00     0.115 C
BRANCH  14  15
HETATM   15  C2  UNL     1      18.793  36.113  19.155  1.00  0.00     0.258 C
HETATM   16  O2  UNL     1      18.954  37.283  19.554  1.00  0.00    -0.265 OA
BRANCH  15  17
HETATM   17  O1  UNL     1      18.579  35.876  17.817  1.00  0.00    -0.326 OA
HETATM   18  C1  UNL     1      19.203  36.630  16.795  1.00  0.00     0.213 C
ENDBRANCH  15  17
ENDBRANCH  14  15
ENDBRANCH  11  14
ENDBRANCH   7   8
ENDBRANCH   1   7
BRANCH   6  19
HETATM   19  O7  UNL     1      20.944  28.214  18.375  1.00  0.00    -0.311 OA
BRANCH  19  20
HETATM   20  C15 UNL     1      21.156  26.996  18.997  1.00  0.00     0.255 C
HETATM   21  C16 UNL     1      20.036  26.253  19.657  1.00  0.00     0.126 C
HETATM   22  O8  UNL     1      22.329  26.519  18.995  1.00  0.00    -0.266 OA
ENDBRANCH  19  20
ENDBRANCH   6  19
BRANCH   3  23
HETATM   23  C10 UNL     1      23.222  32.290  16.371  1.00  0.00     0.154 C
HETATM   24  C11 UNL     1      24.021  33.518  16.594  1.00  0.00     0.094 C
HETATM   25  O5  UNL     1      22.140  32.424  15.831  1.00  0.00    -0.295 OA
ENDBRANCH   3  23
BRANCH   4  26
HETATM   26  O6  UNL     1      22.907  30.301  14.591  1.00  0.00    -0.392 OA
ATOM     27  H6  UNL     1      23.630  30.120  14.002  1.00  0.00     0.210 HD
ENDBRANCH   4  26
TORSDOF 9
ENDMDL