MODEL 5
REMARK VINA RESULT: -7.008077246      2.742      4.886
REMARK  6 active torsions:
REMARK  status: ('A' for Active; 'I' for Inactive)
REMARK    1  A    between atoms: C2_2  and  N1_3
REMARK    2  A    between atoms: C3_4  and  S1_5
REMARK    3  A    between atoms: S1_5  and  C4_6
REMARK    4  A    between atoms: C4_6  and  C5_7
REMARK       I    between atoms: C5_7  and  N2_9
REMARK    5  A    between atoms: N2_9  and  C6_11
REMARK    6  A    between atoms: C13_22  and  N5_23
ROOT
HETATM    1  N1  UNL     1      23.147  31.099  18.373  1.00  0.00    -0.160 N
HETATM    2  C3  UNL     1      24.299  31.673  18.091  1.00  0.00     0.177 A
HETATM    3  N3  UNL     1      25.129  31.350  19.138  1.00  0.00    -0.265 N
ATOM      4  H3  UNL     1      26.103  31.639  19.235  1.00  0.00     0.189 HD
HETATM    5  N4  UNL     1      24.463  30.609  19.993  1.00  0.00    -0.130 N
ATOM      6  H4  UNL     1      24.845  30.233  20.860  1.00  0.00     0.205 HD
HETATM    7  C13 UNL     1      23.207  30.418  19.563  1.00  0.00     0.699 A
ENDROOT
BRANCH   2   8
HETATM    8  S1  UNL     1      24.877  32.662  16.778  1.00  0.00    -0.083 SA
BRANCH   8   9
HETATM    9  C4  UNL     1      24.016  34.155  16.415  1.00  0.00     0.185 C
BRANCH   9  10
HETATM   10  C5  UNL     1      23.422  34.684  17.699  1.00  0.00     0.227 C
HETATM   11  O1  UNL     1      24.132  35.120  18.638  1.00  0.00    -0.273 OA
HETATM   12  N2  UNL     1      22.012  34.697  17.863  1.00  0.00    -0.356 N
ATOM     13  H2  UNL     1      21.425  34.348  17.106  1.00  0.00     0.162 HD
BRANCH  12  14
HETATM   14  C6  UNL     1      21.379  35.191  19.072  1.00  0.00     0.084 C
HETATM   15  C7  UNL     1      20.907  34.008  19.894  1.00  0.00     0.025 C
HETATM   16  C8  UNL     1      19.393  33.836  19.727  1.00  0.00     0.002 C
HETATM   17  C9  UNL     1      18.758  35.020  20.418  1.00  0.00     0.004 C
HETATM   18  C10 UNL     1      19.218  36.277  19.731  1.00  0.00    -0.017 C
HETATM   19  C11 UNL     1      19.664  37.316  20.739  1.00  0.00     0.010 C
HETATM   20  C12 UNL     1      20.213  36.059  18.646  1.00  0.00     0.029 C
ENDBRANCH  12  14
ENDBRANCH   9  10
ENDBRANCH   8   9
ENDBRANCH   2   8
BRANCH   1  21
HETATM   21  C2  UNL     1      21.957  31.138  17.572  1.00  0.00     0.145 C
HETATM   22  C1  UNL     1      21.946  29.992  16.552  1.00  0.00     0.027 C
ENDBRANCH   1  21
BRANCH   7  23
HETATM   23  N5  UNL     1      22.148  29.695  20.158  1.00  0.00    -0.212 N
HETATM   24  C14 UNL     1      22.058  28.270  19.954  1.00  0.00     0.167 C
HETATM   25  C15 UNL     1      20.684  27.954  19.418  1.00  0.00     0.188 C
HETATM   26  O2  UNL     1      19.841  29.058  19.467  1.00  0.00    -0.388 OA
HETATM   27  C16 UNL     1      19.806  29.650  20.711  1.00  0.00     0.188 C
HETATM   28  C17 UNL     1      21.148  30.345  20.970  1.00  0.00     0.167 C
ENDBRANCH   7  23
TORSDOF 6
ENDMDL