MODEL 2
REMARK VINA RESULT: -7.359831311      0.957      1.044
REMARK  9 active torsions:
REMARK  status: ('A' for Active; 'I' for Inactive)
REMARK    1  A    between atoms: O1_2  and  C2_3
REMARK    2  A    between atoms: C3_4  and  C4_5
REMARK    3  A    between atoms: C8_11  and  C9_12
REMARK    4  A    between atoms: C9_12  and  O3_13
REMARK    5  A    between atoms: O3_13  and  C10_14
REMARK    6  A    between atoms: C12_17  and  O5_18
REMARK    7  A    between atoms: O5_18  and  C13_19
REMARK    8  A    between atoms: C13_19  and  C14_21
REMARK    9  A    between atoms: C17_24  and  O7_25
ROOT
HETATM    1  C2  UNL     1      22.805  30.509  16.018  1.00  0.00     0.184 C
HETATM    2  C3  UNL     1      23.190  31.502  17.078  1.00  0.00     0.177 C
HETATM    3  O2  UNL     1      23.348  30.926  18.301  1.00  0.00    -0.369 OA
HETATM    4  C8  UNL     1      22.473  30.004  18.737  1.00  0.00     0.179 C
HETATM    5  C12 UNL     1      21.960  29.022  17.675  1.00  0.00     0.194 C
HETATM    6  C17 UNL     1      21.541  29.735  16.443  1.00  0.00     0.182 C
ENDROOT
BRANCH   5   7
HETATM    7  O5  UNL     1      21.058  28.179  18.276  1.00  0.00    -0.310 OA
BRANCH   7   8
HETATM    8  C13 UNL     1      21.312  27.077  19.037  1.00  0.00     0.263 C
HETATM    9  O6  UNL     1      22.375  26.470  18.715  1.00  0.00    -0.265 OA
BRANCH   8  10
HETATM   10  C14 UNL     1      20.456  26.591  20.147  1.00  0.00     0.085 A
HETATM   11  C15 UNL     1      19.349  27.423  20.667  1.00  0.00     0.015 A
HETATM   12  C16 UNL     1      19.007  26.329  19.725  1.00  0.00     0.015 A
ENDBRANCH   8  10
ENDBRANCH   7   8
ENDBRANCH   5   7
BRANCH   4  13
HETATM   13  C9  UNL     1      21.374  30.435  19.651  1.00  0.00     0.213 C
BRANCH  13  14
HETATM   14  O3  UNL     1      20.550  31.464  19.239  1.00  0.00    -0.319 OA
BRANCH  14  15
HETATM   15  C10 UNL     1      20.397  32.734  19.713  1.00  0.00     0.254 C
HETATM   16  C11 UNL     1      21.623  33.475  20.188  1.00  0.00     0.126 C
HETATM   17  O4  UNL     1      19.267  33.262  19.749  1.00  0.00    -0.266 OA
ENDBRANCH  14  15
ENDBRANCH  13  14
ENDBRANCH   4  13
BRANCH   6  18
HETATM   18  O7  UNL     1      20.510  30.627  16.603  1.00  0.00    -0.390 OA
ATOM     19  H7  UNL     1      19.753  30.307  16.128  1.00  0.00     0.210 HD
ENDBRANCH   6  18
BRANCH   1  20
HETATM   20  O1  UNL     1      22.740  31.000  14.765  1.00  0.00    -0.385 OA
HETATM   21  C1  UNL     1      22.179  30.197  13.800  1.00  0.00     0.202 C
ENDBRANCH   1  20
BRANCH   2  22
HETATM   22  C4  UNL     1      24.547  32.026  16.672  1.00  0.00     0.021 C
HETATM   23  C5  UNL     1      24.798  33.327  16.600  1.00  0.00    -0.022 C
HETATM   24  C6  UNL     1      25.913  34.234  16.267  1.00  0.00     0.056 C
HETATM   25  S1  UNL     1      23.786  34.769  16.907  1.00  0.00    -0.134 SA
HETATM   26  C7  UNL     1      25.165  35.505  16.021  1.00  0.00     0.084 C
ENDBRANCH   2  22
TORSDOF 9
ENDMDL