MODEL 4
REMARK VINA RESULT: -7.577511703      0.983      1.040
REMARK  8 active torsions:
REMARK  status: ('A' for Active; 'I' for Inactive)
REMARK    1  A    between atoms: C2_2  and  C3_3
REMARK    2  A    between atoms: C3_3  and  O1_4
REMARK    3  A    between atoms: O1_4  and  C4_5
REMARK    4  A    between atoms: C5_7  and  O3_8
REMARK    5  A    between atoms: O3_8  and  C6_9
REMARK    6  A    between atoms: C6_9  and  C7_11
REMARK    7  A    between atoms: C7_11  and  C8_12
REMARK    8  A    between atoms: C17_23  and  O7_24
ROOT
HETATM    1  C4  UNL     1      22.596  30.467  17.370  1.00  0.00     0.238 C
HETATM    2  O2  UNL     1      22.191  29.347  18.078  1.00  0.00    -0.286 OA
HETATM    3  C5  UNL     1      22.610  28.666  19.204  1.00  0.00     0.188 C
HETATM    4  C10 UNL     1      23.055  29.234  20.291  1.00  0.00     0.049 C
HETATM    5  C11 UNL     1      23.248  30.665  20.664  1.00  0.00     0.082 C
HETATM    6  C12 UNL     1      21.945  31.309  21.079  1.00  0.00     0.022 C
HETATM    7  C13 UNL     1      23.706  31.332  19.434  1.00  0.00     0.174 C
HETATM    8  O5  UNL     1      24.873  31.661  19.433  1.00  0.00    -0.294 OA
HETATM    9  C14 UNL     1      22.949  31.646  18.230  1.00  0.00     0.186 C
HETATM   10  O6  UNL     1      21.559  31.827  18.407  1.00  0.00    -0.355 OA
HETATM   11  C15 UNL     1      21.420  31.367  17.075  1.00  0.00     0.192 C
HETATM   12  C16 UNL     1      21.649  32.472  16.086  1.00  0.00     0.070 C
HETATM   13  C17 UNL     1      22.378  33.577  16.848  1.00  0.00     0.128 C
HETATM   14  C18 UNL     1      23.521  32.837  17.549  1.00  0.00     0.058 C
HETATM   15  C19 UNL     1      24.635  32.569  16.603  1.00  0.00     0.016 C
ENDROOT
BRANCH   3  16
HETATM   16  O3  UNL     1      22.546  27.281  19.156  1.00  0.00    -0.255 OA
BRANCH  16  17
HETATM   17  C6  UNL     1      21.411  26.579  18.778  1.00  0.00     0.265 C
HETATM   18  O4  UNL     1      21.228  26.429  17.540  1.00  0.00    -0.265 OA
BRANCH  17  19
HETATM   19  C7  UNL     1      20.449  26.028  19.777  1.00  0.00     0.111 C
BRANCH  19  20
HETATM   20  C8  UNL     1      19.227  26.917  19.793  1.00  0.00     0.005 C
HETATM   21  C9  UNL     1      19.419  27.984  20.851  1.00  0.00     0.005 C
ENDBRANCH  19  20
ENDBRANCH  17  19
ENDBRANCH  16  17
ENDBRANCH   3  16
BRANCH   1  22
HETATM   22  O1  UNL     1      23.469  30.219  16.336  1.00  0.00    -0.346 OA
BRANCH  22  23
HETATM   23  C3  UNL     1      23.124  29.126  15.581  1.00  0.00     0.198 C
BRANCH  23  24
HETATM   24  C2  UNL     1      22.778  29.628  14.211  1.00  0.00    -0.011 C
HETATM   25  C1  UNL     1      21.524  29.606  13.799  1.00  0.00     0.009 C
ENDBRANCH  23  24
ENDBRANCH  22  23
ENDBRANCH   1  22
BRANCH  13  26
HETATM   26  O7  UNL     1      22.827  34.577  16.032  1.00  0.00    -0.395 OA
ATOM     27  H7  UNL     1      22.837  34.330  15.115  1.00  0.00     0.210 HD
ENDBRANCH  13  26
TORSDOF 8
ENDMDL