MODEL 3
REMARK VINA RESULT: -6.684407186      3.222      5.189
REMARK  8 active torsions:
REMARK  status: ('A' for Active; 'I' for Inactive)
REMARK    1  A    between atoms: S1_2  and  C2_3
REMARK       I    between atoms: N3_9  and  C4_11
REMARK    2  A    between atoms: C4_11  and  C5_13
REMARK    3  A    between atoms: C5_13  and  O2_14
REMARK    4  A    between atoms: O2_14  and  C6_15
REMARK    5  A    between atoms: C6_15  and  C7_17
REMARK    6  A    between atoms: C7_17  and  S2_18
REMARK    7  A    between atoms: S2_18  and  C8_19
REMARK    8  A    between atoms: C8_19  and  C9_21
ROOT
HETATM    1  C2  UNL     1      22.795  30.025  15.048  1.00  0.00     0.129 A
HETATM    2  N1  UNL     1      23.964  29.833  15.641  1.00  0.00    -0.286 N
ATOM      3  H1  UNL     1      24.505  28.993  15.433  1.00  0.00     0.188 HD
HETATM    4  N2  UNL     1      24.416  30.684  16.463  1.00  0.00    -0.278 N
ATOM      5  H2  UNL     1      25.316  30.535  16.919  1.00  0.00     0.189 HD
HETATM    6  C3  UNL     1      23.695  31.776  16.723  1.00  0.00     0.168 A
HETATM    7  N3  UNL     1      23.970  32.773  17.531  1.00  0.00    -0.304 N
ATOM      8  H3  UNL     1      23.325  33.557  17.639  1.00  0.00     0.171 HD
HETATM    9  C4  UNL     1      25.174  32.726  18.238  1.00  0.00     0.247 C
HETATM   10  O1  UNL     1      26.288  32.799  17.620  1.00  0.00    -0.271 OA
HETATM   11  S3  UNL     1      22.323  31.532  15.726  1.00  0.00    -0.026 SA
ENDROOT
BRANCH   9  12
HETATM   12  C5  UNL     1      25.172  32.587  19.708  1.00  0.00     0.281 C
BRANCH  12  13
HETATM   13  O2  UNL     1      23.951  32.084  20.174  1.00  0.00    -0.311 OA
BRANCH  13  14
HETATM   14  C6  UNL     1      23.682  30.754  20.324  1.00  0.00     0.269 C
HETATM   15  O3  UNL     1      24.588  29.882  20.377  1.00  0.00    -0.264 OA
BRANCH  14  16
HETATM   16  C7  UNL     1      22.293  30.233  20.439  1.00  0.00     0.193 C
BRANCH  16  17
HETATM   17  S2  UNL     1      21.775  29.356  18.948  1.00  0.00    -0.082 SA
BRANCH  17  18
HETATM   18  C8  UNL     1      21.935  27.593  19.290  1.00  0.00     0.191 C
HETATM   19  O4  UNL     1      23.066  27.191  19.543  1.00  0.00    -0.285 OA
BRANCH  18  20
HETATM   20  C9  UNL     1      20.782  26.670  19.273  1.00  0.00     0.075 A
HETATM   21  C10 UNL     1      20.526  25.699  20.346  1.00  0.00     0.023 A
HETATM   22  C11 UNL     1      19.609  26.883  20.159  1.00  0.00    -0.036 A
HETATM   23  C12 UNL     1      19.662  27.877  21.296  1.00  0.00     0.015 C
HETATM   24  C13 UNL     1      18.228  26.653  19.560  1.00  0.00     0.015 C
ENDBRANCH  18  20
ENDBRANCH  17  18
ENDBRANCH  16  17
ENDBRANCH  14  16
ENDBRANCH  13  14
ENDBRANCH  12  13
ENDBRANCH   9  12
BRANCH   1  25
HETATM   25  S1  UNL     1      21.941  28.980  13.855  1.00  0.00    -0.108 SA
HETATM   26  C1  UNL     1      23.027  27.593  13.425  1.00  0.00     0.097 C
ENDBRANCH   1  25
TORSDOF 8
ENDMDL