MODEL 1
REMARK VINA RESULT: -7.117826212      0.000      0.000
REMARK  7 active torsions:
REMARK  status: ('A' for Active; 'I' for Inactive)
REMARK    1  A    between atoms: C2_2  and  C3_3
REMARK    2  A    between atoms: C3_3  and  N1_4
REMARK    3  A    between atoms: C7_10  and  N2_11
REMARK       I    between atoms: N2_11  and  C8_13
REMARK    4  A    between atoms: C8_13  and  C9_15
REMARK    5  A    between atoms: C9_15  and  N3_16
REMARK    6  A    between atoms: N5_25  and  C16_26
REMARK    7  A    between atoms: C16_26  and  C17_27
ROOT
HETATM    1  N1  UNL     1      21.657  28.186  18.692  1.00  0.00    -0.265 N
HETATM    2  C4  UNL     1      21.695  29.317  19.397  1.00  0.00     0.266 A
HETATM    3  O1  UNL     1      21.728  29.239  20.648  1.00  0.00    -0.267 OA
HETATM    4  C5  UNL     1      21.699  30.563  18.720  1.00  0.00     0.091 A
HETATM    5  C6  UNL     1      21.734  31.814  19.258  1.00  0.00     0.086 A
HETATM    6 CL1  UNL     1      21.783  32.045  21.048  1.00  0.00    -0.080 Cl
HETATM    7  C7  UNL     1      21.729  32.884  18.427  1.00  0.00     0.101 A
HETATM    8  S1  UNL     1      21.675  32.081  16.859  1.00  0.00    -0.051 SA
HETATM    9  C15 UNL     1      21.661  30.469  17.364  1.00  0.00     0.100 A
HETATM   10  N5  UNL     1      21.622  29.279  16.674  1.00  0.00    -0.292 N
HETATM   11  C19 UNL     1      21.619  28.117  17.353  1.00  0.00     0.332 A
HETATM   12  O3  UNL     1      21.584  27.033  16.764  1.00  0.00    -0.246 OA
ENDROOT
BRANCH   7  13
HETATM   13  N2  UNL     1      21.758  34.294  18.577  1.00  0.00    -0.318 N
HETATM   14  C8  UNL     1      20.897  35.310  18.187  1.00  0.00     0.251 C
HETATM   15  O2  UNL     1      19.847  35.137  17.583  1.00  0.00    -0.271 OA
ATOM     16  H2  UNL     1      22.583  34.631  19.075  1.00  0.00     0.169 HD
BRANCH  14  17
HETATM   17  C9  UNL     1      21.318  36.732  18.554  1.00  0.00     0.375 C
BRANCH  17  18
HETATM   18  N3  UNL     1      21.371  36.900  19.960  1.00  0.00     0.100 N
HETATM   19  C10 UNL     1      22.078  38.070  20.316  1.00  0.00     0.303 C
HETATM   20  C11 UNL     1      21.387  39.112  21.096  1.00  0.00     0.302 C
HETATM   21  N4  UNL     1      19.964  39.155  21.069  1.00  0.00     0.087 N
HETATM   22  C12 UNL     1      19.379  39.454  22.364  1.00  0.00     0.310 C
HETATM   23  C13 UNL     1      19.331  38.041  20.425  1.00  0.00     0.302 C
HETATM   24  C14 UNL     1      20.157  36.793  20.663  1.00  0.00     0.303 C
ENDBRANCH  17  18
ENDBRANCH  14  17
ENDBRANCH   7  13
BRANCH  10  25
HETATM   25  C16 UNL     1      21.578  29.362  15.246  1.00  0.00     0.134 C
BRANCH  25  26
HETATM   26  C17 UNL     1      22.902  29.111  14.600  1.00  0.00     0.016 C
HETATM   27  C18 UNL     1      22.906  27.980  13.620  1.00  0.00     0.006 C
ENDBRANCH  25  26
ENDBRANCH  10  25
BRANCH   1  28
HETATM   28  C3  UNL     1      21.652  26.917  19.398  1.00  0.00     0.137 C
BRANCH  28  29
HETATM   29  C2  UNL     1      20.248  26.401  19.609  1.00  0.00     0.016 C
HETATM   30  C1  UNL     1      19.982  26.236  21.085  1.00  0.00     0.006 C
ENDBRANCH  28  29
ENDBRANCH   1  28
TORSDOF 7
ENDMDL