MODEL 1
REMARK VINA RESULT: -7.798794441      0.000      0.000
REMARK  7 active torsions:
REMARK  status: ('A' for Active; 'I' for Inactive)
REMARK    1  A    between atoms: O1_2  and  C2_3
REMARK    2  A    between atoms: C3_6  and  N2_7
REMARK    3  A    between atoms: C5_9  and  C6_10
REMARK    4  A    between atoms: C6_10  and  C7_11
REMARK    5  A    between atoms: C7_11  and  N3_13
REMARK    6  A    between atoms: N3_13  and  C8_15
REMARK    7  A    between atoms: C20_30  and  N5_31
ROOT
HETATM    1  N2  UNL     1      21.587  31.694  20.399  1.00  0.00    -0.212 N
HETATM    2  C4  UNL     1      22.953  32.027  20.691  1.00  0.00     0.146 C
HETATM    3  C5  UNL     1      23.400  33.307  19.965  1.00  0.00     0.011 C
HETATM    4  C13 UNL     1      22.473  34.367  20.518  1.00  0.00     0.013 C
HETATM    5  C14 UNL     1      21.038  34.101  20.159  1.00  0.00     0.009 C
HETATM    6  C15 UNL     1      20.708  34.046  18.719  1.00  0.00     0.009 C
HETATM    7  C16 UNL     1      19.978  32.752  18.951  1.00  0.00     0.027 C
HETATM    8  C17 UNL     1      20.565  32.712  20.345  1.00  0.00     0.106 C
ENDROOT
BRANCH   1   9
HETATM    9  C3  UNL     1      21.205  30.347  20.161  1.00  0.00     0.683 A
HETATM   10  N1  UNL     1      21.576  29.697  19.025  1.00  0.00    -0.168 N
HETATM   11  C2  UNL     1      21.257  28.442  18.734  1.00  0.00     0.192 A
ATOM     12  H1  UNL     1      22.140  30.210  18.348  1.00  0.00     0.186 HD
HETATM   13  C20 UNL     1      20.488  27.724  19.643  1.00  0.00     0.176 A
HETATM   14  C18 UNL     1      20.099  28.359  20.801  1.00  0.00     0.060 A
HETATM   15  N4  UNL     1      20.461  29.617  21.018  1.00  0.00    -0.193 N
HETATM   16  C19 UNL     1      19.277  27.592  21.772  1.00  0.00     0.071 C
ATOM     17  H4  UNL     1      20.158  30.060  21.886  1.00  0.00     0.184 HD
BRANCH  11  18
HETATM   18  O1  UNL     1      21.638  27.787  17.576  1.00  0.00    -0.339 OA
HETATM   19  C1  UNL     1      21.889  28.453  16.363  1.00  0.00     0.211 C
ENDBRANCH  11  18
BRANCH  13  20
HETATM   20  N5  UNL     1      20.102  26.380  19.411  1.00  0.00    -0.109 N
HETATM   21  O3  UNL     1      19.010  26.093  18.902  1.00  0.00    -0.532 OA
HETATM   22  O4  UNL     1      20.956  25.374  19.758  1.00  0.00    -0.532 OA
ENDBRANCH  13  20
ENDBRANCH   1   9
BRANCH   3  23
HETATM   23  C6  UNL     1      24.794  33.579  20.487  1.00  0.00     0.075 C
BRANCH  23  24
HETATM   24  C7  UNL     1      25.875  33.168  19.584  1.00  0.00     0.074 C
HETATM   25  S1  UNL     1      27.385  33.854  19.661  1.00  0.00    -0.066 SA
BRANCH  24  26
HETATM   26  N3  UNL     1      25.687  32.193  18.580  1.00  0.00    -0.380 N
ATOM     27  H3  UNL     1      25.227  31.328  18.862  1.00  0.00     0.160 HD
BRANCH  26  28
HETATM   28  C8  UNL     1      26.079  32.299  17.201  1.00  0.00     0.086 C
HETATM   29  C9  UNL     1      25.416  31.174  16.397  1.00  0.00     0.051 C
HETATM   30  C10 UNL     1      23.931  31.407  16.292  1.00  0.00     0.169 C
HETATM   31  O2  UNL     1      23.611  32.637  15.768  1.00  0.00    -0.391 OA
HETATM   32  C11 UNL     1      24.087  33.619  16.669  1.00  0.00     0.169 C
HETATM   33  C12 UNL     1      25.602  33.566  16.524  1.00  0.00     0.051 C
ENDBRANCH  26  28
ENDBRANCH  24  26
ENDBRANCH  23  24
ENDBRANCH   3  23
TORSDOF 7
ENDMDL