MODEL 3
REMARK VINA RESULT: -6.646258642      3.455      8.357
REMARK  8 active torsions:
REMARK  status: ('A' for Active; 'I' for Inactive)
REMARK    1  A    between atoms: C2_2  and  C3_3
REMARK    2  A    between atoms: C3_3  and  C4_4
REMARK    3  A    between atoms: C4_4  and  N1_5
REMARK    4  A    between atoms: C5_6  and  N2_7
REMARK    5  A    between atoms: N2_7  and  C6_8
REMARK    6  A    between atoms: C11_17  and  N4_18
REMARK    7  A    between atoms: N7_28  and  C18_29
REMARK    8  A    between atoms: C18_29  and  C19_30
ROOT
HETATM    1  N1  UNL     1      22.554  35.704  20.596  1.00  0.00    -0.272 N
HETATM    2  C5  UNL     1      21.464  35.154  19.909  1.00  0.00     0.212 A
HETATM    3  C9  UNL     1      21.307  33.761  20.031  1.00  0.00     0.139 A
HETATM    4  N3  UNL     1      20.284  33.133  19.424  1.00  0.00    -0.313 N
ATOM      5  H3  UNL     1      19.623  33.673  18.865  1.00  0.00     0.169 HD
HETATM    6  C10 UNL     1      20.118  31.785  19.547  1.00  0.00     0.290 A
HETATM    7  O1  UNL     1      19.135  31.300  18.942  1.00  0.00    -0.264 OA
HETATM    8  C11 UNL     1      20.970  31.008  20.285  1.00  0.00     0.174 A
HETATM    9  N6  UNL     1      21.980  31.653  20.881  1.00  0.00    -0.322 N
ATOM     10  H6  UNL     1      22.640  31.115  21.443  1.00  0.00     0.169 HD
HETATM   11  C17 UNL     1      22.162  33.003  20.769  1.00  0.00     0.145 A
HETATM   12  N7  UNL     1      23.187  33.584  21.400  1.00  0.00    -0.283 N
HETATM   13  C21 UNL     1      23.342  34.926  21.285  1.00  0.00     0.332 A
HETATM   14  O2  UNL     1      24.348  35.429  21.909  1.00  0.00    -0.246 OA
ENDROOT
BRANCH   8  15
HETATM   15  N4  UNL     1      20.779  29.607  20.399  1.00  0.00    -0.359 N
HETATM   16  C12 UNL     1      21.735  28.705  19.789  1.00  0.00     0.154 C
HETATM   17  C13 UNL     1      20.978  27.735  18.907  1.00  0.00     0.291 C
HETATM   18  N5  UNL     1      19.987  27.029  19.661  1.00  0.00     0.087 N
HETATM   19  C14 UNL     1      20.330  25.602  19.711  1.00  0.00     0.310 C
HETATM   20  C15 UNL     1      19.915  27.483  21.013  1.00  0.00     0.291 C
HETATM   21  C16 UNL     1      19.673  28.994  21.097  1.00  0.00     0.154 C
ENDBRANCH   8  15
BRANCH  12  22
HETATM   22  C18 UNL     1      24.126  32.826  22.175  1.00  0.00     0.135 C
BRANCH  22  23
HETATM   23  C19 UNL     1      23.865  32.788  23.632  1.00  0.00     0.016 C
HETATM   24  C20 UNL     1      24.965  33.222  24.530  1.00  0.00     0.006 C
ENDBRANCH  22  23
ENDBRANCH  12  22
BRANCH   2  25
HETATM   25  N2  UNL     1      20.728  35.826  19.238  1.00  0.00    -0.401 NA
BRANCH  25  26
HETATM   26  C6  UNL     1      19.927  36.387  18.340  1.00  0.00     0.163 C
HETATM   27  C7  UNL     1      19.973  35.774  16.886  1.00  0.00     0.072 C
HETATM   28  C8  UNL     1      18.407  36.311  18.607  1.00  0.00     0.072 C
HETATM   29 CL1  UNL     1      20.232  38.144  17.951  1.00  0.00    -0.081 Cl
ENDBRANCH  25  26
ENDBRANCH   2  25
BRANCH   1  30
HETATM   30  C4  UNL     1      22.708  37.140  20.455  1.00  0.00     0.136 C
BRANCH  30  31
HETATM   31  C3  UNL     1      22.180  37.961  21.575  1.00  0.00     0.020 C
BRANCH  31  32
HETATM   32  C2  UNL     1      21.055  38.889  21.355  1.00  0.00    -0.003 C
HETATM   33  C1  UNL     1      19.693  38.303  21.632  1.00  0.00     0.005 C
ENDBRANCH  31  32
ENDBRANCH  30  31
ENDBRANCH   1  30
TORSDOF 8
ENDMDL