MODEL 2
REMARK VINA RESULT: -8.816704206      1.582      2.360
REMARK  7 active torsions:
REMARK  status: ('A' for Active; 'I' for Inactive)
REMARK    1  A    between atoms: C2_2  and  O1_3
REMARK    2  A    between atoms: O1_3  and  C3_4
REMARK    3  A    between atoms: C3_4  and  C4_5
REMARK    4  A    between atoms: C4_5  and  C5_7
REMARK    5  A    between atoms: C5_7  and  O2_8
REMARK    6  A    between atoms: O2_8  and  N1_9
REMARK    7  A    between atoms: N1_9  and  O3_11
ROOT
HETATM    1  C1  UNL     1      22.018  29.780  20.686  1.00  0.00     0.046 C
HETATM    2  C2  UNL     1      20.501  29.896  20.495  1.00  0.00     0.062 C
HETATM    3  C6  UNL     1      20.227  29.867  19.031  1.00  0.00     0.043 C
HETATM    4  C7  UNL     1      19.451  31.148  18.738  1.00  0.00     0.077 C
HETATM    5  C8  UNL     1      19.940  32.091  19.786  1.00  0.00     0.232 C
HETATM    6  C9  UNL     1      20.021  31.251  21.019  1.00  0.00     0.112 C
HETATM    7  O4  UNL     1      19.065  33.154  20.009  1.00  0.00    -0.194 OA
HETATM    8  O5  UNL     1      19.054  34.019  19.023  1.00  0.00    -0.192 OA
HETATM    9  C10 UNL     1      20.327  34.603  18.898  1.00  0.00     0.254 C
HETATM   10  O6  UNL     1      21.211  33.562  18.646  1.00  0.00    -0.192 OA
HETATM   11  O7  UNL     1      21.193  32.623  19.532  1.00  0.00    -0.194 OA
HETATM   12  C11 UNL     1      20.671  35.190  20.230  1.00  0.00     0.060 C
HETATM   13  C12 UNL     1      19.626  36.163  20.727  1.00  0.00     0.015 C
HETATM   14  C13 UNL     1      20.286  37.492  20.444  1.00  0.00    -0.013 C
HETATM   15  C14 UNL     1      21.691  37.215  21.001  1.00  0.00     0.010 C
HETATM   16  C15 UNL     1      21.991  35.904  20.260  1.00  0.00    -0.004 C
HETATM   17  C16 UNL     1      22.380  36.347  18.843  1.00  0.00     0.011 C
HETATM   18  C17 UNL     1      21.122  36.800  18.174  1.00  0.00     0.014 C
HETATM   19  C18 UNL     1      20.358  37.787  18.969  1.00  0.00     0.011 C
HETATM   20  C19 UNL     1      20.341  35.577  17.768  1.00  0.00     0.111 C
HETATM   21  C20 UNL     1      18.978  35.899  17.218  1.00  0.00     0.038 C
HETATM   22  C21 UNL     1      21.092  34.982  16.631  1.00  0.00     0.075 C
HETATM   23  N2  UNL     1      21.688  34.508  15.760  1.00  0.00    -0.196 NA
ENDROOT
BRANCH   2  24
HETATM   24  O1  UNL     1      19.879  28.932  21.246  1.00  0.00    -0.378 OA
BRANCH  24  25
HETATM   25  C3  UNL     1      19.423  27.839  20.554  1.00  0.00     0.208 C
BRANCH  25  26
HETATM   26  C4  UNL     1      20.140  26.563  20.958  1.00  0.00     0.220 C
HETATM   27  F1  UNL     1      19.578  26.044  22.108  1.00  0.00    -0.245 F
BRANCH  26  28
HETATM   28  C5  UNL     1      20.088  25.540  19.828  1.00  0.00     0.242 C
BRANCH  28  29
HETATM   29  O2  UNL     1      20.457  26.121  18.601  1.00  0.00    -0.257 OA
BRANCH  29  30
HETATM   30  N1  UNL     1      21.743  26.332  18.227  1.00  0.00    -0.174 N
ATOM     31  H1  UNL     1      21.992  26.224  17.243  1.00  0.00     0.223 HD
BRANCH  30  32
HETATM   32  O3  UNL     1      22.643  26.656  19.049  1.00  0.00    -0.269 OA
ATOM     33  H3  UNL     1      22.638  27.488  19.509  1.00  0.00     0.246 HD
ENDBRANCH  30  32
ENDBRANCH  29  30
ENDBRANCH  28  29
ENDBRANCH  26  28
ENDBRANCH  25  26
ENDBRANCH  24  25
ENDBRANCH   2  24
TORSDOF 7
ENDMDL