MODEL 5
REMARK VINA RESULT: -7.128858735      2.208      5.974
REMARK  10 active torsions:
REMARK  status: ('A' for Active; 'I' for Inactive)
REMARK    1  A    between atoms: C2_2  and  O1_3
REMARK    2  A    between atoms: O1_3  and  C3_4
REMARK    3  A    between atoms: C3_4  and  C4_6
REMARK    4  A    between atoms: C4_6  and  C5_7
REMARK    5  A    between atoms: C5_7  and  N1_8
REMARK       I    between atoms: N1_8  and  C6_10
REMARK    6  A    between atoms: C6_10  and  O4_12
REMARK    7  A    between atoms: O4_12  and  C7_13
REMARK    8  A    between atoms: C9_15  and  C10_16
REMARK    9  A    between atoms: C10_16  and  O5_17
REMARK   10  A    between atoms: C10_16  and  C11_19
ROOT
HETATM    1  C7  UNL     1      22.081  31.573  17.166  1.00  0.00     0.074 C
HETATM    2  C8  UNL     1      22.557  31.055  18.340  1.00  0.00    -0.001 C
HETATM    3  C9  UNL     1      23.575  31.757  19.062  1.00  0.00     0.029 C
HETATM    4  C15 UNL     1      23.430  31.797  20.431  1.00  0.00     0.093 C
HETATM    5 CL1  UNL     1      24.569  32.636  21.426  1.00  0.00    -0.079 Cl
HETATM    6  C16 UNL     1      22.349  30.951  20.944  1.00  0.00     0.172 C
HETATM    7  O6  UNL     1      21.661  31.376  21.871  1.00  0.00    -0.291 OA
HETATM    8  C17 UNL     1      22.178  29.606  20.273  1.00  0.00     0.102 C
HETATM    9  C18 UNL     1      21.850  29.861  18.884  1.00  0.00     0.107 C
HETATM   10  C19 UNL     1      21.843  28.815  17.866  1.00  0.00     0.204 C
HETATM   11  O7  UNL     1      22.047  27.642  18.055  1.00  0.00    -0.288 OA
HETATM   12  C20 UNL     1      21.549  29.317  16.490  1.00  0.00     0.201 C
HETATM   13  O8  UNL     1      21.690  28.630  15.473  1.00  0.00    -0.289 OA
HETATM   14  C21 UNL     1      21.062  30.753  16.496  1.00  0.00     0.152 C
ENDROOT
BRANCH   1  15
HETATM   15  O4  UNL     1      22.618  32.760  16.782  1.00  0.00    -0.265 OA
BRANCH  15  16
HETATM   16  C6  UNL     1      21.825  33.791  16.305  1.00  0.00     0.365 C
HETATM   17  N1  UNL     1      21.491  34.936  17.061  1.00  0.00    -0.336 N
ATOM     18  H1  UNL     1      21.846  35.023  18.014  1.00  0.00     0.164 HD
HETATM   19  O3  UNL     1      21.401  33.655  15.130  1.00  0.00    -0.238 OA
BRANCH  17  20
HETATM   20  C5  UNL     1      20.660  35.988  16.520  1.00  0.00     0.134 C
BRANCH  20  21
HETATM   21  C4  UNL     1      19.476  36.308  17.387  1.00  0.00     0.131 C
BRANCH  21  22
HETATM   22  C3  UNL     1      19.560  35.608  18.710  1.00  0.00     0.260 C
HETATM   23  O2  UNL     1      20.077  36.227  19.675  1.00  0.00    -0.265 OA
BRANCH  22  24
HETATM   24  O1  UNL     1      19.104  34.331  18.923  1.00  0.00    -0.322 OA
BRANCH  24  25
HETATM   25  C2  UNL     1      19.804  33.391  19.715  1.00  0.00     0.174 C
HETATM   26  C1  UNL     1      18.985  32.130  19.766  1.00  0.00     0.034 C
ENDBRANCH  24  25
ENDBRANCH  22  24
ENDBRANCH  21  22
ENDBRANCH  20  21
ENDBRANCH  17  20
ENDBRANCH  15  16
ENDBRANCH   1  15
BRANCH   3  27
HETATM   27  C10 UNL     1      24.815  32.175  18.495  1.00  0.00     0.063 C
BRANCH  27  28
HETATM   28  O5  UNL     1      25.481  31.144  17.975  1.00  0.00    -0.363 OA
ATOM     29  H5  UNL     1      25.222  30.985  17.075  1.00  0.00     0.217 HD
ENDBRANCH  27  28
BRANCH  27  30
HETATM   30  C11 UNL     1      25.530  33.394  18.303  1.00  0.00    -0.002 C
HETATM   31  C12 UNL     1      26.937  33.387  18.904  1.00  0.00     0.021 C
HETATM   32  C13 UNL     1      25.948  33.366  16.719  1.00  0.00     0.021 C
HETATM   33  C14 UNL     1      24.936  34.730  18.386  1.00  0.00     0.021 C
ENDBRANCH  27  30
ENDBRANCH   3  27
TORSDOF 10
ENDMDL