MODEL 5
REMARK VINA RESULT: -7.201763557      3.602     10.092
REMARK  8 active torsions:
REMARK  status: ('A' for Active; 'I' for Inactive)
REMARK    1  A    between atoms: C8_9  and  C9_11
REMARK    2  A    between atoms: C9_11  and  C11_14
REMARK       I    between atoms: C11_14  and  N2_16
REMARK    3  A    between atoms: C13_18  and  C14_19
REMARK    4  A    between atoms: C14_19  and  N3_20
REMARK    5  A    between atoms: N4_23  and  C17_24
REMARK    6  A    between atoms: C17_24  and  C18_25
REMARK    7  A    between atoms: C18_25  and  C19_26
REMARK    8  A    between atoms: C19_26  and  O3_27
ROOT
HETATM    1  C9  UNL     1      22.303  31.002  17.270  1.00  0.00     0.229 C
HETATM    2  C10 UNL     1      21.521  30.403  16.148  1.00  0.00     0.077 C
HETATM    3  N1  UNL     1      20.907  29.946  15.283  1.00  0.00    -0.196 NA
ENDROOT
BRANCH   1   4
HETATM    4  C8  UNL     1      21.390  31.873  18.008  1.00  0.00     0.158 C
HETATM    5  C5  UNL     1      21.584  32.160  19.462  1.00  0.00     0.035 C
HETATM    6  C4  UNL     1      21.894  30.989  20.325  1.00  0.00     0.045 C
HETATM    7  C6  UNL     1      20.059  32.365  19.450  1.00  0.00     0.043 C
HETATM    8  C2  UNL     1      20.843  29.906  20.236  1.00  0.00     0.055 C
HETATM    9  C1  UNL     1      19.899  29.886  21.414  1.00  0.00     0.045 C
HETATM   10  C3  UNL     1      21.567  28.553  20.309  1.00  0.00     0.045 C
HETATM   11  O1  UNL     1      20.227  29.978  19.008  1.00  0.00    -0.372 OA
HETATM   12  C7  UNL     1      20.074  31.213  18.479  1.00  0.00     0.165 C
HETATM   13  F1  UNL     1      20.985  33.044  17.352  1.00  0.00    -0.238 F
ENDBRANCH   1   4
BRANCH   1  14
HETATM   14  C11 UNL     1      23.474  31.636  16.664  1.00  0.00     0.264 C
HETATM   15  O2  UNL     1      23.405  31.931  15.416  1.00  0.00    -0.270 OA
HETATM   16  N2  UNL     1      24.673  31.955  17.321  1.00  0.00    -0.218 N
HETATM   17  C12 UNL     1      25.744  32.534  16.759  1.00  0.00     0.149 A
HETATM   18  N6  UNL     1      24.998  31.771  18.576  1.00  0.00    -0.234 N
HETATM   19  C13 UNL     1      26.731  32.700  17.708  1.00  0.00     0.073 A
HETATM   20  N5  UNL     1      26.219  32.203  18.845  1.00  0.00    -0.287 N
ATOM     21  H5  UNL     1      26.686  32.166  19.751  1.00  0.00     0.188 HD
ATOM     22  H6  UNL     1      24.381  31.344  19.268  1.00  0.00     0.209 HD
BRANCH  19  23
HETATM   23  C14 UNL     1      28.072  33.297  17.541  1.00  0.00     0.332 C
BRANCH  23  24
HETATM   24  N3  UNL     1      28.106  34.697  17.801  1.00  0.00     0.100 N
HETATM   25  C15 UNL     1      29.423  35.232  17.570  1.00  0.00     0.317 C
HETATM   26  C16 UNL     1      29.731  35.190  16.087  1.00  0.00     0.093 C
HETATM   27  N4  UNL     1      28.776  35.839  15.283  1.00  0.00    -0.370 N
HETATM   28  C22 UNL     1      27.416  35.688  15.644  1.00  0.00     0.157 C
HETATM   29  C23 UNL     1      27.154  35.495  17.095  1.00  0.00     0.293 C
BRANCH  27  30
HETATM   30  C17 UNL     1      29.146  36.980  14.548  1.00  0.00     0.075 C
BRANCH  30  31
HETATM   31  C18 UNL     1      28.774  36.987  13.092  1.00  0.00     0.013 A
HETATM   32  C20 UNL     1      29.035  38.241  12.295  1.00  0.00     0.018 A
HETATM   33  C21 UNL     1      27.637  37.665  12.496  1.00  0.00     0.018 A
BRANCH  31  34
HETATM   34  C19 UNL     1      29.260  35.718  12.363  1.00  0.00     0.178 C
BRANCH  34  35
HETATM   35  O3  UNL     1      28.176  34.976  11.936  1.00  0.00    -0.400 OA
ATOM     36  H3  UNL     1      27.930  35.238  11.057  1.00  0.00     0.209 HD
ENDBRANCH  34  35
ENDBRANCH  31  34
ENDBRANCH  30  31
ENDBRANCH  27  30
ENDBRANCH  23  24
ENDBRANCH  19  23
ENDBRANCH   1  14
TORSDOF 8
ENDMDL