MODEL 3
REMARK VINA RESULT: -7.662826791      2.447      3.387
REMARK  6 active torsions:
REMARK  status: ('A' for Active; 'I' for Inactive)
REMARK    1  A    between atoms: C2_2  and  O1_3
REMARK    2  A    between atoms: O1_3  and  C3_4
REMARK       I    between atoms: C3_4  and  N1_6
REMARK    3  A    between atoms: N2_10  and  C7_11
REMARK    4  A    between atoms: C8_14  and  C9_15
REMARK    5  A    between atoms: C15_23  and  S1_24
REMARK    6  A    between atoms: S1_24  and  N4_27
REMARK       I    between atoms: N4_27  and  C17_29
ROOT
HETATM    1  C3  UNL     1      23.623  33.588  22.089  1.00  0.00     0.364 C
HETATM    2  O2  UNL     1      23.706  32.914  23.146  1.00  0.00    -0.238 OA
HETATM    3  N1  UNL     1      23.240  32.909  20.899  1.00  0.00    -0.300 N
HETATM    4  C4  UNL     1      23.077  33.495  19.559  1.00  0.00     0.110 C
HETATM    5  C5  UNL     1      21.655  33.468  19.115  1.00  0.00     0.047 C
HETATM    6  C6  UNL     1      20.789  32.524  19.905  1.00  0.00     0.131 C
HETATM    7  N2  UNL     1      21.494  31.435  20.481  1.00  0.00    -0.325 N
HETATM    8  C13 UNL     1      22.920  31.512  20.684  1.00  0.00     0.196 C
HETATM    9  C14 UNL     1      23.554  31.218  19.345  1.00  0.00     0.068 C
HETATM   10  C15 UNL     1      23.978  32.545  18.756  1.00  0.00     0.113 C
ENDROOT
BRANCH   7  11
HETATM   11  C7  UNL     1      20.811  30.259  20.860  1.00  0.00     0.229 A
HETATM   12  N3  UNL     1      20.916  29.019  20.325  1.00  0.00    -0.322 N
HETATM   13  C8  UNL     1      20.100  28.166  20.964  1.00  0.00     0.062 A
ATOM     14  H3  UNL     1      21.527  28.769  19.547  1.00  0.00     0.169 HD
HETATM   15  C12 UNL     1      19.473  28.917  21.927  1.00  0.00     0.171 A
HETATM   16 CL1  UNL     1      18.279  28.409  23.111  1.00  0.00    -0.054 Cl
HETATM   17  O3  UNL     1      19.916  30.124  21.831  1.00  0.00    -0.265 OA
BRANCH  13  18
HETATM   18  C9  UNL     1      19.855  26.719  20.755  1.00  0.00     0.039 A
HETATM   19  C10 UNL     1      18.809  26.318  19.808  1.00  0.00     0.011 A
HETATM   20  C11 UNL     1      20.295  26.087  19.484  1.00  0.00     0.011 A
ENDBRANCH  13  18
ENDBRANCH   7  11
BRANCH   1  21
HETATM   21  O1  UNL     1      23.900  34.929  22.127  1.00  0.00    -0.304 OA
BRANCH  21  22
HETATM   22  C2  UNL     1      24.735  35.531  23.094  1.00  0.00     0.176 C
HETATM   23  C1  UNL     1      23.960  36.225  24.189  1.00  0.00     0.034 C
ENDBRANCH  21  22
ENDBRANCH   1  21
BRANCH  10  24
HETATM   24  S1  UNL     1      24.081  32.787  16.911  1.00  0.00     0.029 S
HETATM   25  C16 UNL     1      25.893  32.281  16.815  1.00  0.00     0.137 C
HETATM   26  O4  UNL     1      24.347  34.184  15.995  1.00  0.00    -0.249 OA
BRANCH  24  27
HETATM   27  N4  UNL     1      23.694  31.063  15.875  1.00  0.00    -0.287 N
HETATM   28  C17 UNL     1      22.564  31.055  15.078  1.00  0.00     0.224 C
HETATM   29  C18 UNL     1      22.152  29.872  14.267  1.00  0.00     0.118 C
HETATM   30  O5  UNL     1      21.844  32.082  15.028  1.00  0.00    -0.273 OA
ATOM     31  H4  UNL     1      24.306  30.250  15.944  1.00  0.00     0.178 HD
ENDBRANCH  24  27
ENDBRANCH  10  24
TORSDOF 6
ENDMDL