MODEL 4
REMARK VINA RESULT: -7.173311595      1.679      2.501
REMARK  7 active torsions:
REMARK  status: ('A' for Active; 'I' for Inactive)
REMARK    1  A    between atoms: C5_7  and  C6_8
REMARK    2  A    between atoms: C6_8  and  N2_9
REMARK    3  A    between atoms: C8_14  and  N4_15
REMARK    4  A    between atoms: C14_22  and  N5_23
REMARK    5  A    between atoms: N5_23  and  C15_24
REMARK    6  A    between atoms: C15_24  and  C16_25
REMARK    7  A    between atoms: C16_25  and  N6_26
ROOT
HETATM    1  N2  UNL     1      21.339  32.912  17.392  1.00  0.00    -0.268 N
HETATM    2  C7  UNL     1      21.197  33.804  16.417  1.00  0.00     0.330 A
HETATM    3  O1  UNL     1      21.695  33.533  15.268  1.00  0.00    -0.246 OA
HETATM    4  N3  UNL     1      20.541  34.980  16.575  1.00  0.00    -0.293 N
ATOM      5  H3  UNL     1      20.470  35.625  15.788  1.00  0.00     0.172 HD
HETATM    6  C8  UNL     1      19.980  35.313  17.760  1.00  0.00     0.134 A
HETATM    7  C13 UNL     1      20.119  34.390  18.773  1.00  0.00     0.136 A
HETATM    8 CL1  UNL     1      19.378  34.872  20.321  1.00  0.00    -0.075 Cl
HETATM    9  C14 UNL     1      20.785  33.175  18.643  1.00  0.00     0.210 A
ENDROOT
BRANCH   1  10
HETATM   10  C6  UNL     1      22.257  31.822  17.407  1.00  0.00     0.184 C
BRANCH  10  11
HETATM   11  C5  UNL     1      23.708  32.030  17.388  1.00  0.00     0.025 A
HETATM   12  C3  UNL     1      24.667  31.338  16.632  1.00  0.00     0.020 A
HETATM   13  N1  UNL     1      25.894  31.640  16.814  1.00  0.00    -0.357 N
HETATM   14  C4  UNL     1      24.252  30.335  15.562  1.00  0.00     0.069 C
HETATM   15  C2  UNL     1      26.250  32.569  17.682  1.00  0.00     0.047 A
ATOM     16  H1  UNL     1      26.614  31.155  16.278  1.00  0.00     0.166 HD
HETATM   17  C1  UNL     1      27.645  33.042  18.008  1.00  0.00     0.076 C
HETATM   18  S1  UNL     1      24.708  33.053  18.292  1.00  0.00    -0.078 SA
ENDBRANCH  10  11
ENDBRANCH   1  10
BRANCH   9  19
HETATM   19  N5  UNL     1      20.799  32.433  19.618  1.00  0.00    -0.400 NA
BRANCH  19  20
HETATM   20  C15 UNL     1      20.771  31.612  20.633  1.00  0.00     0.187 C
BRANCH  20  21
HETATM   21  C16 UNL     1      19.772  30.444  20.653  1.00  0.00     0.331 C
BRANCH  21  22
HETATM   22  N6  UNL     1      20.322  29.237  20.201  1.00  0.00     0.098 N
HETATM   23  C17 UNL     1      21.723  28.997  20.350  1.00  0.00     0.299 C
HETATM   24  C18 UNL     1      21.950  27.662  19.586  1.00  0.00     0.198 C
HETATM   25  O2  UNL     1      21.292  26.618  20.143  1.00  0.00    -0.388 OA
HETATM   26  C19 UNL     1      19.921  26.834  20.106  1.00  0.00     0.198 C
HETATM   27  C20 UNL     1      19.651  28.124  20.864  1.00  0.00     0.299 C
ENDBRANCH  21  22
ENDBRANCH  20  21
ENDBRANCH  19  20
ENDBRANCH   9  19
BRANCH   6  28
HETATM   28  N4  UNL     1      19.305  36.544  17.887  1.00  0.00    -0.366 N
HETATM   29  C9  UNL     1      19.992  37.790  18.259  1.00  0.00     0.124 C
HETATM   30  C10 UNL     1      18.963  38.670  18.884  1.00  0.00     0.021 C
HETATM   31  C11 UNL     1      17.633  37.963  18.737  1.00  0.00     0.021 C
HETATM   32  C12 UNL     1      17.896  36.825  17.766  1.00  0.00     0.124 C
ENDBRANCH   6  28
TORSDOF 7
ENDMDL