MODEL 2
REMARK VINA RESULT: -8.326948532      1.669      2.374
REMARK  10 active torsions:
REMARK  status: ('A' for Active; 'I' for Inactive)
REMARK    1  A    between atoms: C2_2  and  O1_3
REMARK    2  A    between atoms: O1_3  and  C3_4
REMARK    3  A    between atoms: C3_4  and  C4_6
REMARK    4  A    between atoms: C5_7  and  C6_8
REMARK    5  A    between atoms: C6_8  and  O3_9
REMARK    6  A    between atoms: O3_9  and  C7_10
REMARK    7  A    between atoms: C7_10  and  O4_12
REMARK    8  A    between atoms: O4_12  and  C8_13
REMARK    9  A    between atoms: C8_13  and  C9_14
REMARK   10  A    between atoms: C18_25  and  O6_26
ROOT
HETATM    1  C4  UNL     1      21.998  28.752  18.134  1.00  0.00     0.147 C
HETATM    2  C5  UNL     1      22.271  29.828  18.849  1.00  0.00     0.106 C
HETATM    3  O5  UNL     1      22.348  30.893  17.938  1.00  0.00    -0.322 OA
HETATM    4  C17 UNL     1      21.650  30.535  16.757  1.00  0.00     0.275 C
HETATM    5  C18 UNL     1      22.466  30.523  15.486  1.00  0.00     0.260 C
HETATM    6  C19 UNL     1      21.847  29.149  15.362  1.00  0.00     0.260 C
HETATM    7  O7  UNL     1      21.454  28.377  14.454  1.00  0.00    -0.270 OA
HETATM    8  N1  UNL     1      21.897  29.093  16.761  1.00  0.00    -0.277 N
ENDROOT
BRANCH   2   9
HETATM    9  C6  UNL     1      22.481  30.046  20.291  1.00  0.00     0.246 C
BRANCH   9  10
HETATM   10  O3  UNL     1      21.424  30.786  20.881  1.00  0.00    -0.315 OA
BRANCH  10  11
HETATM   11  C7  UNL     1      20.092  30.523  20.697  1.00  0.00     0.254 C
HETATM   12  S1  UNL     1      19.418  29.245  21.422  1.00  0.00    -0.025 SA
BRANCH  11  13
HETATM   13  O4  UNL     1      19.324  31.335  19.904  1.00  0.00    -0.321 OA
BRANCH  13  14
HETATM   14  C8  UNL     1      18.685  32.512  20.346  1.00  0.00     0.183 C
BRANCH  14  15
HETATM   15  C9  UNL     1      19.173  33.744  19.640  1.00  0.00     0.012 C
HETATM   16  C10 UNL     1      18.486  34.934  20.324  1.00  0.00     0.027 C
HETATM   17  C11 UNL     1      19.002  36.237  19.789  1.00  0.00     0.083 C
HETATM   18 CL1  UNL     1      19.565  37.325  21.094  1.00  0.00    -0.125 Cl
HETATM   19  C12 UNL     1      20.013  36.099  18.701  1.00  0.00     0.029 C
HETATM   20  C13 UNL     1      21.100  35.111  18.957  1.00  0.00    -0.046 C
HETATM   21  C14 UNL     1      21.624  34.490  17.664  1.00  0.00     0.015 C
HETATM   22  C15 UNL     1      22.314  35.773  19.608  1.00  0.00     0.015 C
HETATM   23  C16 UNL     1      20.657  33.972  19.833  1.00  0.00     0.015 C
ENDBRANCH  14  15
ENDBRANCH  13  14
ENDBRANCH  11  13
ENDBRANCH  10  11
ENDBRANCH   9  10
ENDBRANCH   2   9
BRANCH   1  24
HETATM   24  C3  UNL     1      21.823  27.401  18.651  1.00  0.00     0.312 C
HETATM   25  O2  UNL     1      22.694  26.701  19.193  1.00  0.00    -0.258 OA
BRANCH  24  26
HETATM   26  O1  UNL     1      20.563  26.776  18.555  1.00  0.00    -0.317 OA
BRANCH  26  27
HETATM   27  C2  UNL     1      20.158  25.828  19.522  1.00  0.00     0.175 C
HETATM   28  C1  UNL     1      18.680  26.110  19.811  1.00  0.00     0.034 C
ENDBRANCH  26  27
ENDBRANCH  24  26
ENDBRANCH   1  24
BRANCH   5  29
HETATM   29  O6  UNL     1      22.034  31.405  14.507  1.00  0.00    -0.382 OA
ATOM     30  H6  UNL     1      21.099  31.392  14.341  1.00  0.00     0.210 HD
ENDBRANCH   5  29
TORSDOF 10
ENDMDL