MODEL 3
REMARK VINA RESULT: -7.154468827      1.189      1.347
REMARK  7 active torsions:
REMARK  status: ('A' for Active; 'I' for Inactive)
REMARK    1  A    between atoms: N2_5  and  C4_6
REMARK    2  A    between atoms: C4_6  and  C5_7
REMARK    3  A    between atoms: C6_12  and  S1_13
REMARK    4  A    between atoms: S1_13  and  C7_14
REMARK    5  A    between atoms: C7_14  and  C8_15
REMARK       I    between atoms: C8_15  and  N5_17
REMARK    6  A    between atoms: N5_17  and  C9_19
REMARK    7  A    between atoms: N7_25  and  C12_26
ROOT
HETATM    1  C5  UNL     1      23.688  32.367  20.130  1.00  0.00     0.118 A
HETATM    2  N3  UNL     1      24.738  31.512  19.937  1.00  0.00    -0.285 N
ATOM      3  H3  UNL     1      25.350  31.161  20.674  1.00  0.00     0.188 HD
HETATM    4  N4  UNL     1      24.840  31.207  18.658  1.00  0.00    -0.278 N
ATOM      5  H4  UNL     1      25.535  30.590  18.238  1.00  0.00     0.189 HD
HETATM    6  C6  UNL     1      23.862  31.859  18.010  1.00  0.00     0.163 A
HETATM    7  N7  UNL     1      23.146  32.580  18.933  1.00  0.00    -0.309 N
ENDROOT
BRANCH   6   8
HETATM    8  S1  UNL     1      23.620  31.738  16.247  1.00  0.00    -0.083 SA
BRANCH   8   9
HETATM    9  C7  UNL     1      23.419  30.030  15.687  1.00  0.00     0.185 C
BRANCH   9  10
HETATM   10  C8  UNL     1      22.130  29.550  16.229  1.00  0.00     0.233 C
HETATM   11  O1  UNL     1      21.121  30.281  16.182  1.00  0.00    -0.272 OA
HETATM   12  N5  UNL     1      22.042  28.270  16.801  1.00  0.00    -0.306 N
ATOM     13  H5  UNL     1      22.179  27.428  16.242  1.00  0.00     0.171 HD
BRANCH  12  14
HETATM   14  C9  UNL     1      21.774  28.204  18.088  1.00  0.00     0.150 A
HETATM   15  N6  UNL     1      22.021  29.106  19.037  1.00  0.00    -0.346 N
HETATM   16  C10 UNL     1      21.669  28.842  20.261  1.00  0.00     0.097 A
ATOM     17  H6  UNL     1      22.477  29.990  18.807  1.00  0.00     0.167 HD
HETATM   18  C11 UNL     1      21.062  27.643  20.513  1.00  0.00     0.070 A
HETATM   19  S2  UNL     1      21.019  26.935  18.961  1.00  0.00    -0.064 SA
ENDBRANCH  12  14
ENDBRANCH   9  10
ENDBRANCH   8   9
ENDBRANCH   6   8
BRANCH   7  20
HETATM   20  C12 UNL     1      22.039  33.369  18.517  1.00  0.00     0.093 C
HETATM   21  C13 UNL     1      20.777  32.562  18.729  1.00  0.00     0.026 C
HETATM   22  C14 UNL     1      19.961  33.241  19.799  1.00  0.00     0.002 C
HETATM   23  C15 UNL     1      20.554  34.590  20.020  1.00  0.00     0.002 C
HETATM   24  C16 UNL     1      21.748  34.651  19.101  1.00  0.00     0.026 C
ENDBRANCH   7  20
BRANCH   1  25
HETATM   25  C4  UNL     1      23.248  32.930  21.407  1.00  0.00     0.203 C
BRANCH  25  26
HETATM   26  N2  UNL     1      24.337  33.743  21.944  1.00  0.00    -0.348 N
HETATM   27  C3  UNL     1      24.781  34.779  21.103  1.00  0.00     0.092 C
HETATM   28  C2  UNL     1      24.659  36.170  21.662  1.00  0.00     0.316 C
HETATM   29  N1  UNL     1      23.643  36.268  22.688  1.00  0.00     0.093 N
HETATM   30  C1  UNL     1      23.686  37.623  23.208  1.00  0.00     0.310 C
HETATM   31  C19 UNL     1      24.014  35.379  23.772  1.00  0.00     0.338 C
HETATM   32  C17 UNL     1      24.271  33.969  23.333  1.00  0.00     0.200 C
HETATM   33  C18 UNL     1      25.635  33.576  23.923  1.00  0.00     0.078 C
HETATM   34  F1  UNL     1      23.352  33.175  23.995  1.00  0.00    -0.218 F
ENDBRANCH  25  26
ENDBRANCH   1  25
TORSDOF 7
ENDMDL