MODEL 5
REMARK VINA RESULT: -9.223015568      2.644      6.775
REMARK  15 active torsions:
REMARK  status: ('A' for Active; 'I' for Inactive)
REMARK    1  A    between atoms: N1_1  and  C1_4
REMARK       I    between atoms: N4_13  and  C5_14
REMARK    2  A    between atoms: C5_14  and  C6_16
REMARK    3  A    between atoms: C6_16  and  C7_17
REMARK    4  A    between atoms: C7_17  and  C8_18
REMARK    5  A    between atoms: C8_18  and  C9_19
REMARK    6  A    between atoms: C9_19  and  C10_20
REMARK    7  A    between atoms: C10_20  and  C11_21
REMARK    8  A    between atoms: C11_21  and  C12_22
REMARK    9  A    between atoms: C12_22  and  N5_23
REMARK   10  A    between atoms: N6_25  and  C13_26
REMARK   11  A    between atoms: C16_29  and  C17_30
REMARK   12  A    between atoms: C18_31  and  O4_32
REMARK   13  A    between atoms: C21_40  and  N8_41
REMARK   14  A    between atoms: C23_45  and  C24_46
REMARK   15  A    between atoms: N9_53  and  N10_54
ROOT
HETATM    1  C10 UNL     1      11.508  34.572  23.582  1.00  0.00     0.005 C
ENDROOT
BRANCH   1   2
HETATM    2  C9  UNL     1      11.481  34.445  22.099  1.00  0.00     0.000 C
BRANCH   2   3
HETATM    3  C8  UNL     1      10.074  34.251  21.534  1.00  0.00     0.000 C
BRANCH   3   4
HETATM    4  C7  UNL     1       9.328  33.281  22.463  1.00  0.00     0.009 C
BRANCH   4   5
HETATM    5  C6  UNL     1       9.421  31.906  21.909  1.00  0.00     0.104 C
BRANCH   5   6
HETATM    6  C5  UNL     1       9.851  30.885  22.923  1.00  0.00     0.232 C
HETATM    7  N4  UNL     1      10.831  29.909  22.677  1.00  0.00    -0.226 N
HETATM    8  C4  UNL     1      11.192  29.025  23.649  1.00  0.00     0.168 A
HETATM    9  C25 UNL     1      11.443  29.804  21.472  1.00  0.00     0.326 A
HETATM   10  C3  UNL     1      12.163  28.048  23.396  1.00  0.00     0.173 A
HETATM   11  N3  UNL     1      10.681  29.013  24.879  1.00  0.00    -0.174 N
HETATM   12  C2  UNL     1      12.525  27.159  24.388  1.00  0.00     0.292 A
HETATM   13  N9  UNL     1      12.735  27.986  22.193  1.00  0.00    -0.213 N
HETATM   14  N2  UNL     1      11.968  27.203  25.605  1.00  0.00    -0.154 N
HETATM   15  O1  UNL     1      13.400  26.299  24.113  1.00  0.00    -0.265 OA
HETATM   16  C1  UNL     1      11.045  28.128  25.859  1.00  0.00     0.680 A
ATOM     17  H2  UNL     1      12.247  26.538  26.327  1.00  0.00     0.187 HD
HETATM   18  C26 UNL     1      12.412  28.828  21.220  1.00  0.00     0.335 A
HETATM   19  O12 UNL     1      12.952  28.778  20.067  1.00  0.00    -0.260 OA
ATOM     20  H3  UNL     1       9.971  29.708  25.106  1.00  0.00     0.186 HD
HETATM   21  O11 UNL     1      11.188  30.565  20.508  1.00  0.00    -0.261 OA
HETATM   22  O2  UNL     1       9.270  30.950  24.046  1.00  0.00    -0.273 OA
BRANCH  16  23
HETATM   23  N1  UNL     1      10.485  28.204  27.014  1.00  0.00    -0.234 N
ATOM     24  H12 UNL     1       9.509  27.926  27.115  1.00  0.00     0.174 HD
ATOM     25  H11 UNL     1      11.003  28.536  27.827  1.00  0.00     0.174 HD
ENDBRANCH  16  23
BRANCH  13  26
HETATM   26  N10 UNL     1      13.708  27.009  21.936  1.00  0.00    -0.335 N
ATOM     27 2H10 UNL     1      13.959  26.816  20.967  1.00  0.00     0.177 HD
ATOM     28 1H10 UNL     1      14.145  26.514  22.714  1.00  0.00     0.177 HD
ENDBRANCH  13  26
ENDBRANCH   5   6
ENDBRANCH   4   5
ENDBRANCH   3   4
ENDBRANCH   2   3
ENDBRANCH   1   2
BRANCH   1  29
HETATM   29  C11 UNL     1      12.565  33.703  24.233  1.00  0.00     0.047 C
BRANCH  29  30
HETATM   30  C12 UNL     1      13.083  32.699  23.208  1.00  0.00     0.093 C
BRANCH  30  31
HETATM   31  N5  UNL     1      13.585  31.546  23.809  1.00  0.00    -0.232 N
HETATM   32  O3  UNL     1      13.259  31.257  25.058  1.00  0.00    -0.152 OA
HETATM   33  N6  UNL     1      14.456  30.895  25.683  1.00  0.00    -0.229 N
HETATM   34  C22 UNL     1      15.058  30.048  24.690  1.00  0.00     0.197 C
HETATM   35  C23 UNL     1      14.808  30.978  23.449  1.00  0.00     0.236 C
BRANCH  33  36
HETATM   36  C13 UNL     1      14.809  31.370  26.949  1.00  0.00     0.092 A
HETATM   37  C14 UNL     1      15.896  32.266  27.017  1.00  0.00     0.035 A
HETATM   38  C15 UNL     1      16.338  32.791  28.204  1.00  0.00     0.015 A
HETATM   39  C16 UNL     1      15.723  32.452  29.389  1.00  0.00    -0.013 A
HETATM   40  C20 UNL     1      14.670  31.585  29.325  1.00  0.00     0.051 A
HETATM   41  C21 UNL     1      14.214  31.044  28.102  1.00  0.00     0.132 A
BRANCH  39  42
HETATM   42  C17 UNL     1      16.196  33.009  30.670  1.00  0.00     0.104 A
HETATM   43  C18 UNL     1      16.079  34.305  31.106  1.00  0.00     0.221 A
HETATM   44  O5  UNL     1      16.623  34.415  32.305  1.00  0.00    -0.209 OA
HETATM   45  N7  UNL     1      17.078  33.250  32.645  1.00  0.00    -0.222 N
HETATM   46  C19 UNL     1      16.844  32.330  31.674  1.00  0.00     0.281 A
ATOM     47  H7  UNL     1      17.549  33.051  33.528  1.00  0.00     0.198 HD
HETATM   48  O6  UNL     1      17.173  31.138  31.739  1.00  0.00    -0.265 OA
BRANCH  43  49
HETATM   49  O4  UNL     1      15.477  35.324  30.380  1.00  0.00    -0.339 OA
ATOM     50  H4  UNL     1      15.403  36.223  30.678  1.00  0.00     0.220 HD
ENDBRANCH  43  49
ENDBRANCH  39  42
BRANCH  41  51
HETATM   51  N8  UNL     1      13.110  30.202  28.218  1.00  0.00    -0.113 N
HETATM   52  O7  UNL     1      13.277  28.960  28.080  1.00  0.00    -0.532 OA
HETATM   53  O8  UNL     1      11.861  30.608  28.475  1.00  0.00    -0.532 OA
ENDBRANCH  41  51
ENDBRANCH  33  36
BRANCH  35  54
HETATM   54  C24 UNL     1      15.980  31.827  23.277  1.00  0.00     0.201 C
HETATM   55  O9  UNL     1      15.907  32.968  22.799  1.00  0.00    -0.646 OA
HETATM   56  O10 UNL     1      17.220  31.340  23.660  1.00  0.00    -0.646 OA
ENDBRANCH  35  54
ENDBRANCH  30  31
ENDBRANCH  29  30
ENDBRANCH   1  29
TORSDOF 15
ENDMDL