MODEL 2
REMARK VINA RESULT: -9.621955873      1.881      2.205
REMARK  15 active torsions:
REMARK  status: ('A' for Active; 'I' for Inactive)
REMARK    1  A    between atoms: O1_2  and  C2_3
REMARK    2  A    between atoms: C2_3  and  N1_4
REMARK    3  A    between atoms: C3_9  and  S1_10
REMARK    4  A    between atoms: S1_10  and  C4_11
REMARK    5  A    between atoms: C5_12  and  C6_13
REMARK    6  A    between atoms: C6_13  and  C7_14
REMARK    7  A    between atoms: C7_14  and  C8_15
REMARK    8  A    between atoms: C8_15  and  N5_16
REMARK    9  A    between atoms: C12_25  and  N8_26
REMARK   10  A    between atoms: C13_31  and  N10_32
REMARK   11  A    between atoms: N11_36  and  C15_37
REMARK   12  A    between atoms: C15_37  and  C16_38
REMARK   13  A    between atoms: C17_42  and  N14_43
REMARK       I    between atoms: N14_43  and  C18_45
REMARK   14  A    between atoms: C18_45  and  C19_47
REMARK       I    between atoms: C19_47  and  N15_49
REMARK   15  A    between atoms: C22_54  and  N17_55
ROOT
HETATM    1  N5  UNL     1      16.677  31.563  25.400  1.00  0.00    -0.283 N
HETATM    2  C9  UNL     1      17.386  32.671  25.239  1.00  0.00     0.328 A
HETATM    3  O2  UNL     1      17.905  33.111  24.204  1.00  0.00    -0.246 OA
HETATM    4  N6  UNL     1      17.503  33.343  26.408  1.00  0.00    -0.303 N
ATOM      5  H6  UNL     1      17.997  34.222  26.559  1.00  0.00     0.171 HD
HETATM    6  C10 UNL     1      16.837  32.624  27.332  1.00  0.00     0.111 A
HETATM    7  C11 UNL     1      16.469  32.593  28.641  1.00  0.00     0.111 A
HETATM    8  N7  UNL     1      16.720  33.455  29.652  1.00  0.00    -0.187 N
ATOM      9  H7  UNL     1      17.283  34.288  29.477  1.00  0.00     0.184 HD
HETATM   10  C12 UNL     1      16.236  33.226  30.878  1.00  0.00     0.678 A
HETATM   11  N9  UNL     1      15.508  32.133  31.064  1.00  0.00    -0.175 N
ATOM     12  H9  UNL     1      15.132  31.949  31.994  1.00  0.00     0.186 HD
HETATM   13  C13 UNL     1      15.239  31.247  30.065  1.00  0.00     0.144 A
HETATM   14  C14 UNL     1      15.713  31.445  28.810  1.00  0.00     0.115 A
HETATM   15  N11 UNL     1      15.615  30.777  27.642  1.00  0.00    -0.297 N
HETATM   16  C24 UNL     1      16.294  31.481  26.726  1.00  0.00     0.148 A
ENDROOT
BRANCH  15  17
HETATM   17  C15 UNL     1      14.901  29.576  27.462  1.00  0.00     0.149 C
BRANCH  17  18
HETATM   18  C16 UNL     1      13.545  29.660  26.864  1.00  0.00     0.153 A
HETATM   19  N12 UNL     1      12.923  30.675  26.231  1.00  0.00    -0.248 N
HETATM   20  N13 UNL     1      11.728  30.341  25.794  1.00  0.00     0.093 N
ATOM     21  H12 UNL     1      13.333  31.600  26.104  1.00  0.00     0.190 HD
HETATM   22  C17 UNL     1      10.769  31.013  25.121  1.00  0.00     0.736 A
HETATM   23  C23 UNL     1      11.526  29.058  26.139  1.00  0.00     0.735 A
HETATM   24  N16 UNL     1       9.634  30.382  24.809  1.00  0.00    -0.020 N
HETATM   25  C22 UNL     1       9.422  29.081  25.155  1.00  0.00     0.705 A
ATOM     26  H16 UNL     1       8.908  30.886  24.300  1.00  0.00     0.203 HD
HETATM   27  N18 UNL     1      10.369  28.410  25.824  1.00  0.00    -0.020 N
ATOM     28  H18 UNL     1      10.228  27.437  26.090  1.00  0.00     0.203 HD
HETATM   29  N19 UNL     1      12.612  28.658  26.777  1.00  0.00    -0.171 N
ATOM     30  H19 UNL     1      12.742  27.720  27.157  1.00  0.00     0.186 HD
BRANCH  22  31
HETATM   31  N14 UNL     1      10.961  32.237  24.797  1.00  0.00    -0.148 N
HETATM   32  C18 UNL     1      11.112  33.286  25.730  1.00  0.00     0.327 C
HETATM   33  O3  UNL     1      12.268  33.744  25.911  1.00  0.00    -0.261 OA
ATOM     34  H14 UNL     1      11.008  32.468  23.804  1.00  0.00     0.188 HD
BRANCH  32  35
HETATM   35  C19 UNL     1       9.979  33.835  26.470  1.00  0.00     0.312 C
HETATM   36  O4  UNL     1       9.625  33.242  27.514  1.00  0.00    -0.262 OA
HETATM   37  N15 UNL     1       9.325  34.996  26.000  1.00  0.00    -0.341 N
HETATM   38  C20 UNL     1       8.261  35.962  26.218  1.00  0.00     0.146 A
HETATM   39  C21 UNL     1       9.167  36.063  25.041  1.00  0.00     0.146 A
ENDBRANCH  32  35
ENDBRANCH  22  31
BRANCH  25  40
HETATM   40  N17 UNL     1       8.306  28.506  24.834  1.00  0.00    -0.234 N
ATOM     41 2H17 UNL     1       7.645  28.965  24.207  1.00  0.00     0.174 HD
ATOM     42 1H17 UNL     1       8.085  27.584  25.213  1.00  0.00     0.174 HD
ENDBRANCH  25  40
ENDBRANCH  17  18
ENDBRANCH  15  17
BRANCH  13  43
HETATM   43  N10 UNL     1      14.514  30.267  30.379  1.00  0.00    -0.383 N
ATOM     44 2H10 UNL     1      13.534  30.363  30.647  1.00  0.00     0.157 HD
ATOM     45 1H10 UNL     1      14.969  29.354  30.373  1.00  0.00     0.157 HD
ENDBRANCH  13  43
BRANCH   1  46
HETATM   46  C8  UNL     1      16.331  30.599  24.430  1.00  0.00     0.135 C
BRANCH  46  47
HETATM   47  C7  UNL     1      17.031  29.287  24.455  1.00  0.00     0.024 C
BRANCH  47  48
HETATM   48  C6  UNL     1      16.211  28.033  24.361  1.00  0.00     0.029 C
BRANCH  48  49
HETATM   49  C5  UNL     1      14.933  28.197  23.640  1.00  0.00    -0.019 C
HETATM   50  C4  UNL     1      14.516  27.635  22.539  1.00  0.00     0.049 C
BRANCH  50  51
HETATM   51  S1  UNL     1      12.926  27.959  21.812  1.00  0.00    -0.064 SA
BRANCH  51  52
HETATM   52  C3  UNL     1      11.695  27.018  22.691  1.00  0.00     0.178 A
HETATM   53  N1  UNL     1      10.365  27.022  22.481  1.00  0.00    -0.232 N
HETATM   54  N2  UNL     1       9.826  26.188  23.351  1.00  0.00    -0.002 NA
HETATM   55  N3  UNL     1      10.762  25.642  24.122  1.00  0.00    -0.007 NA
HETATM   56  N4  UNL     1      11.910  26.163  23.703  1.00  0.00    -0.264 N
ATOM     57  H4  UNL     1      12.826  25.945  24.095  1.00  0.00     0.186 HD
BRANCH  53  58
HETATM   58  C2  UNL     1       9.605  27.771  21.501  1.00  0.00     0.316 C
BRANCH  58  59
HETATM   59  O1  UNL     1       9.420  29.090  21.849  1.00  0.00    -0.375 OA
HETATM   60  C1  UNL     1       8.274  29.662  21.343  1.00  0.00     0.203 C
ENDBRANCH  58  59
ENDBRANCH  53  58
ENDBRANCH  51  52
ENDBRANCH  50  51
ENDBRANCH  48  49
ENDBRANCH  47  48
ENDBRANCH  46  47
ENDBRANCH   1  46
BRANCH  10  61
HETATM   61  N8  UNL     1      16.480  34.062  31.856  1.00  0.00    -0.234 N
ATOM     62  H82 UNL     1      17.301  33.961  32.453  1.00  0.00     0.174 HD
ATOM     63  H81 UNL     1      15.848  34.840  32.041  1.00  0.00     0.174 HD
ENDBRANCH  10  61
TORSDOF 15
ENDMDL