MODEL 3
REMARK VINA RESULT: -9.059435066      4.429      8.957
REMARK  13 active torsions:
REMARK  status: ('A' for Active; 'I' for Inactive)
REMARK    1  A    between atoms: N1_2  and  S1_4
REMARK    2  A    between atoms: S1_4  and  C2_7
REMARK    3  A    between atoms: N2_9  and  C4_10
REMARK    4  A    between atoms: C4_10  and  C5_11
REMARK    5  A    between atoms: C6_12  and  C7_13
REMARK    6  A    between atoms: C10_22  and  C11_23
REMARK    7  A    between atoms: C13_29  and  O7_30
REMARK    8  A    between atoms: C14_32  and  C15_33
REMARK    9  A    between atoms: C15_33  and  C16_34
REMARK   10  A    between atoms: C16_34  and  S3_35
REMARK   11  A    between atoms: S3_35  and  C17_36
REMARK   12  A    between atoms: C18_37  and  O8_38
REMARK   13  A    between atoms: N7_44  and  N8_45
ROOT
HETATM    1  C5  UNL     1      13.181  32.488  23.899  1.00  0.00     0.044 C
HETATM    2  C6  UNL     1      13.078  31.601  24.941  1.00  0.00     0.126 C
HETATM    3  N3  UNL     1      12.606  30.309  24.574  1.00  0.00    -0.302 N
HETATM    4  C8  UNL     1      12.227  30.032  23.252  1.00  0.00     0.255 C
HETATM    5  O5  UNL     1      11.268  29.683  22.580  1.00  0.00    -0.270 OA
HETATM    6  C9  UNL     1      13.592  30.318  22.517  1.00  0.00     0.246 C
HETATM    7  N4  UNL     1      14.545  29.920  23.465  1.00  0.00    -0.392 N
ATOM      8  H4  UNL     1      15.445  30.399  23.503  1.00  0.00     0.155 HD
HETATM    9  C10 UNL     1      14.268  28.828  24.403  1.00  0.00     0.146 C
HETATM   10  C14 UNL     1      13.070  29.154  25.315  1.00  0.00     0.121 C
HETATM   11  C20 UNL     1      13.421  31.826  22.577  1.00  0.00     0.191 C
HETATM   12  O9  UNL     1      13.490  32.434  21.509  1.00  0.00    -0.290 OA
ENDROOT
BRANCH  10  13
HETATM   13  C15 UNL     1      12.104  28.063  25.572  1.00  0.00     0.038 C
BRANCH  13  14
HETATM   14  C16 UNL     1      11.126  28.453  26.709  1.00  0.00     0.083 C
BRANCH  14  15
HETATM   15  S3  UNL     1       9.483  27.802  26.389  1.00  0.00    -0.106 SA
BRANCH  15  16
HETATM   16  C17 UNL     1       9.297  27.090  24.768  1.00  0.00     0.146 A
HETATM   17  C18 UNL     1       9.526  25.763  24.494  1.00  0.00     0.178 A
HETATM   18  N6  UNL     1       9.279  25.562  23.193  1.00  0.00    -0.310 N
HETATM   19  C19 UNL     1       8.907  26.738  22.675  1.00  0.00     0.200 A
ATOM     20  H6  UNL     1       9.359  24.678  22.691  1.00  0.00     0.170 HD
HETATM   21  S4  UNL     1       8.501  26.989  21.096  1.00  0.00    -0.039 SA
HETATM   22  N7  UNL     1       8.916  27.680  23.641  1.00  0.00    -0.226 N
BRANCH  17  23
HETATM   23  O8  UNL     1       9.942  24.770  25.384  1.00  0.00    -0.344 OA
ATOM     24  H8  UNL     1       9.574  23.900  25.493  1.00  0.00     0.219 HD
ENDBRANCH  17  23
BRANCH  22  25
HETATM   25  N8  UNL     1       8.560  29.029  23.424  1.00  0.00    -0.335 N
ATOM     26  H82 UNL     1       9.235  29.767  23.221  1.00  0.00     0.177 HD
ATOM     27  H81 UNL     1       7.633  29.454  23.424  1.00  0.00     0.177 HD
ENDBRANCH  22  25
ENDBRANCH  15  16
ENDBRANCH  14  15
ENDBRANCH  13  14
ENDBRANCH  10  13
BRANCH   9  28
HETATM   28  C11 UNL     1      14.286  27.495  23.793  1.00  0.00     0.063 A
HETATM   29  S2  UNL     1      13.305  26.646  22.687  1.00  0.00    -0.027 SA
HETATM   30  C12 UNL     1      14.149  25.181  22.590  1.00  0.00     0.290 A
HETATM   31  O6  UNL     1      13.900  24.121  21.907  1.00  0.00    -0.260 OA
HETATM   32  N5  UNL     1      15.161  25.398  23.416  1.00  0.00    -0.297 N
HETATM   33  C13 UNL     1      15.277  26.524  24.036  1.00  0.00     0.159 A
ATOM     34  H5  UNL     1      15.857  24.667  23.565  1.00  0.00     0.171 HD
BRANCH  33  35
HETATM   35  O7  UNL     1      16.345  26.815  24.939  1.00  0.00    -0.345 OA
ATOM     36  H7  UNL     1      17.155  26.324  24.881  1.00  0.00     0.219 HD
ENDBRANCH  33  35
ENDBRANCH   9  28
BRANCH   2  37
HETATM   37  C7  UNL     1      13.161  32.041  26.316  1.00  0.00     0.227 C
HETATM   38  O3  UNL     1      12.150  32.145  27.069  1.00  0.00    -0.643 OA
HETATM   39  O4  UNL     1      14.343  32.388  26.948  1.00  0.00    -0.643 OA
ENDBRANCH   2  37
BRANCH   1  40
HETATM   40  C4  UNL     1      13.349  33.907  24.009  1.00  0.00     0.191 C
BRANCH  40  41
HETATM   41  N2  UNL     1      12.075  34.657  23.979  1.00  0.00    -0.280 N
HETATM   42  C3  UNL     1      11.703  35.577  23.084  1.00  0.00     0.153 A
HETATM   43  C2  UNL     1      10.417  36.029  23.396  1.00  0.00     0.178 A
HETATM   44  N10 UNL     1      10.077  35.335  24.495  1.00  0.00    -0.271 N
HETATM   45  N9  UNL     1      11.074  34.521  24.832  1.00  0.00    -0.019 NA
ATOM     46  H10 UNL     1       9.191  35.419  24.993  1.00  0.00     0.185 HD
BRANCH  43  47
HETATM   47  S1  UNL     1       9.519  37.229  22.502  1.00  0.00     0.276 S
HETATM   48  O1  UNL     1      10.365  38.424  22.281  1.00  0.00    -0.199 OA
HETATM   49  O2  UNL     1       8.321  37.681  23.325  1.00  0.00    -0.199 OA
BRANCH  47  50
HETATM   50  N1  UNL     1       8.878  36.580  21.046  1.00  0.00    -0.319 N
HETATM   51  C1  UNL     1       8.495  35.208  21.130  1.00  0.00     0.159 C
ATOM     52  H1  UNL     1       8.779  37.128  20.192  1.00  0.00     0.171 HD
ENDBRANCH  47  50
ENDBRANCH  43  47
ENDBRANCH  40  41
ENDBRANCH   1  40
TORSDOF 13
ENDMDL