MODEL 4
REMARK VINA RESULT: -9.356953338      3.562      8.361
REMARK  16 active torsions:
REMARK  status: ('A' for Active; 'I' for Inactive)
REMARK    1  A    between atoms: C4_7  and  O1_8
REMARK    2  A    between atoms: C5_10  and  N3_11
REMARK    3  A    between atoms: C8_17  and  N5_18
REMARK    4  A    between atoms: N5_18  and  N6_20
REMARK    5  A    between atoms: N6_20  and  N7_22
REMARK    6  A    between atoms: C9_27  and  N9_28
REMARK    7  A    between atoms: C10_31  and  N11_32
REMARK       I    between atoms: N11_32  and  C11_34
REMARK    8  A    between atoms: C11_34  and  C12_36
REMARK    9  A    between atoms: C12_36  and  N12_37
REMARK   10  A    between atoms: C12_36  and  C17_47
REMARK   11  A    between atoms: N12_37  and  O3_39
REMARK   12  A    between atoms: O3_39  and  C13_40
REMARK   13  A    between atoms: C13_40  and  C14_41
REMARK   14  A    between atoms: C13_40  and  C16_44
REMARK   15  A    between atoms: C14_41  and  C15_42
REMARK   16  A    between atoms: C19_51  and  N14_52
ROOT
HETATM    1  N9  UNL     1      11.291  30.914  24.905  1.00  0.00    -0.173 N
HETATM    2  N10 UNL     1      12.101  31.636  25.673  1.00  0.00    -0.119 N
ATOM      3  H10 UNL     1      13.087  31.807  25.472  1.00  0.00     0.206 HD
HETATM    4  C10 UNL     1      11.453  32.109  26.744  1.00  0.00     0.704 A
HETATM    5  N15 UNL     1      10.190  31.642  26.607  1.00  0.00    -0.138 N
ATOM      6  H15 UNL     1       9.430  31.822  27.262  1.00  0.00     0.189 HD
HETATM    7  C20 UNL     1      10.078  30.907  25.483  1.00  0.00     0.362 A
HETATM    8  O6  UNL     1       9.074  30.310  25.013  1.00  0.00    -0.244 OA
ENDROOT
BRANCH   1   9
HETATM    9  C9  UNL     1      11.730  30.343  23.666  1.00  0.00     0.152 A
HETATM   10  N8  UNL     1      12.435  29.174  23.707  1.00  0.00    -0.324 N
HETATM   11  C5  UNL     1      12.881  28.567  22.606  1.00  0.00     0.144 A
ATOM     12  H8  UNL     1      12.627  28.749  24.614  1.00  0.00     0.169 HD
HETATM   13  C4  UNL     1      12.588  29.191  21.408  1.00  0.00     0.138 A
HETATM   14  C3  UNL     1      11.883  30.363  21.326  1.00  0.00     0.090 A
HETATM   15  N2  UNL     1      11.599  30.975  20.165  1.00  0.00    -0.349 N
HETATM   16  C21 UNL     1      11.423  30.986  22.496  1.00  0.00     0.108 A
HETATM   17  C2  UNL     1      10.909  32.128  20.098  1.00  0.00     0.186 A
ATOM     18  H2  UNL     1      11.921  30.547  19.297  1.00  0.00     0.166 HD
HETATM   19  N1  UNL     1      10.452  32.754  21.195  1.00  0.00    -0.314 N
HETATM   20  C1  UNL     1       9.698  34.010  21.126  1.00  0.00     0.160 C
HETATM   21  C22 UNL     1      10.720  32.166  22.390  1.00  0.00     0.264 A
HETATM   22  O7  UNL     1      10.299  32.738  23.423  1.00  0.00    -0.267 OA
BRANCH  11  23
HETATM   23  N3  UNL     1      13.623  27.336  22.640  1.00  0.00    -0.318 N
HETATM   24  C6  UNL     1      13.037  26.030  22.471  1.00  0.00     0.156 C
HETATM   25  C7  UNL     1      14.175  25.139  22.092  1.00  0.00     0.257 C
HETATM   26  N4  UNL     1      15.386  25.906  22.149  1.00  0.00    -0.034 N
HETATM   27  C8  UNL     1      15.041  27.154  22.837  1.00  0.00     0.408 C
ATOM     28  H42 UNL     1      16.165  25.406  22.579  1.00  0.00     0.281 HD
ATOM     29  H41 UNL     1      15.820  26.050  21.237  1.00  0.00     0.281 HD
BRANCH  27  30
HETATM   30  N5  UNL     1      15.445  27.051  24.203  1.00  0.00    -0.275 N
ATOM     31  H5  UNL     1      14.806  26.646  24.887  1.00  0.00     0.185 HD
BRANCH  30  32
HETATM   32  N6  UNL     1      16.570  27.448  24.571  1.00  0.00    -0.251 N
ATOM     33  H6  UNL     1      17.137  27.157  23.775  1.00  0.00     0.207 HD
BRANCH  32  34
HETATM   34  N7  UNL     1      17.437  27.969  25.282  1.00  0.00    -0.331 N
ATOM     35  H72 UNL     1      17.276  28.934  24.995  1.00  0.00     0.178 HD
ATOM     36  H71 UNL     1      18.197  28.046  25.959  1.00  0.00     0.178 HD
ENDBRANCH  32  34
ENDBRANCH  30  32
ENDBRANCH  27  30
ENDBRANCH  11  23
BRANCH  13  37
HETATM   37  O1  UNL     1      13.046  28.566  20.256  1.00  0.00    -0.355 OA
ATOM     38  H1  UNL     1      13.314  29.082  19.505  1.00  0.00     0.218 HD
ENDBRANCH  13  37
ENDBRANCH   1   9
BRANCH   4  39
HETATM   39  N11 UNL     1      11.927  32.852  27.713  1.00  0.00    -0.152 N
HETATM   40  C11 UNL     1      12.800  32.241  28.648  1.00  0.00     0.289 C
HETATM   41  O2  UNL     1      12.204  31.556  29.544  1.00  0.00    -0.265 OA
ATOM     42  H11 UNL     1      11.675  33.838  27.792  1.00  0.00     0.187 HD
BRANCH  40  43
HETATM   43  C12 UNL     1      14.221  32.298  28.704  1.00  0.00     0.141 C
BRANCH  43  44
HETATM   44  N12 UNL     1      14.938  32.018  27.669  1.00  0.00    -0.259 N
ATOM     45  H12 UNL     1      15.713  31.368  27.806  1.00  0.00     0.194 HD
BRANCH  44  46
HETATM   46  O3  UNL     1      14.759  32.503  26.424  1.00  0.00    -0.263 OA
BRANCH  46  47
HETATM   47  C13 UNL     1      15.692  32.148  25.430  1.00  0.00     0.253 C
BRANCH  47  48
HETATM   48  C14 UNL     1      15.664  32.991  24.200  1.00  0.00     0.056 C
BRANCH  48  49
HETATM   49  C15 UNL     1      16.129  34.401  24.383  1.00  0.00     0.089 C
HETATM   50  S1  UNL     1      17.755  34.529  25.155  1.00  0.00    -0.098 SA
ENDBRANCH  48  49
ENDBRANCH  47  48
BRANCH  47  51
HETATM   51  C16 UNL     1      15.466  30.736  24.987  1.00  0.00     0.205 C
HETATM   52  O4  UNL     1      14.790  29.939  25.660  1.00  0.00    -0.646 OA
HETATM   53  O5  UNL     1      16.037  30.321  23.790  1.00  0.00    -0.646 OA
ENDBRANCH  47  51
ENDBRANCH  46  47
ENDBRANCH  44  46
ENDBRANCH  43  44
BRANCH  43  54
HETATM   54  C17 UNL     1      15.022  32.663  29.893  1.00  0.00     0.058 A
HETATM   55  C18 UNL     1      15.833  33.725  30.155  1.00  0.00     0.111 A
HETATM   56  N13 UNL     1      16.437  33.782  31.312  1.00  0.00    -0.345 N
HETATM   57  C19 UNL     1      16.239  32.809  32.192  1.00  0.00     0.142 A
ATOM     58  H13 UNL     1      17.052  34.564  31.537  1.00  0.00     0.167 HD
HETATM   59  S2  UNL     1      15.170  31.769  31.373  1.00  0.00    -0.051 SA
BRANCH  57  60
HETATM   60  N14 UNL     1      16.762  32.705  33.398  1.00  0.00    -0.380 N
ATOM     61 2H14 UNL     1      17.316  31.953  33.808  1.00  0.00     0.158 HD
ATOM     62 1H14 UNL     1      16.702  33.383  34.158  1.00  0.00     0.158 HD
ENDBRANCH  57  60
ENDBRANCH  43  54
ENDBRANCH  40  43
ENDBRANCH   4  39
TORSDOF 16
ENDMDL