MODEL 4
REMARK VINA RESULT: -9.012467722      2.097      4.806
REMARK  14 active torsions:
REMARK  status: ('A' for Active; 'I' for Inactive)
REMARK    1  A    between atoms: C3_3  and  N1_4
REMARK       I    between atoms: N1_4  and  C4_6
REMARK    2  A    between atoms: C4_6  and  C5_8
REMARK    3  A    between atoms: C7_14  and  C8_15
REMARK    4  A    between atoms: C9_19  and  N5_20
REMARK    5  A    between atoms: C10_23  and  N7_24
REMARK    6  A    between atoms: C16_32  and  C17_33
REMARK    7  A    between atoms: C17_33  and  C18_34
REMARK    8  A    between atoms: C18_34  and  C19_35
REMARK    9  A    between atoms: C19_35  and  S1_36
REMARK   10  A    between atoms: S1_36  and  C20_37
REMARK   11  A    between atoms: N12_44  and  C21_45
REMARK   12  A    between atoms: C22_48  and  N14_49
REMARK   13  A    between atoms: C23_54  and  N16_55
REMARK   14  A    between atoms: C25_61  and  O4_62
ROOT
HETATM    1  C1  UNL     1      17.450  31.432  23.718  1.00  0.00     0.017 C
HETATM    2  C2  UNL     1      16.277  31.211  23.860  1.00  0.00    -0.054 C
HETATM    3  C3  UNL     1      14.825  30.961  24.027  1.00  0.00     0.231 C
HETATM    4  O3  UNL     1      14.634  30.751  25.387  1.00  0.00    -0.321 OA
HETATM    5  C9  UNL     1      14.470  32.007  25.883  1.00  0.00     0.253 C
HETATM    6  C24 UNL     1      13.471  32.633  24.955  1.00  0.00     0.093 C
HETATM    7  C25 UNL     1      13.988  32.120  23.608  1.00  0.00     0.191 C
ENDROOT
BRANCH   3   8
HETATM    8  N1  UNL     1      14.427  29.794  23.248  1.00  0.00    -0.311 N
HETATM    9  C4  UNL     1      14.778  28.521  23.691  1.00  0.00     0.273 C
HETATM   10  O1  UNL     1      15.434  28.491  24.809  1.00  0.00    -0.266 OA
ATOM     11  H1  UNL     1      13.895  29.910  22.386  1.00  0.00     0.167 HD
BRANCH   9  12
HETATM   12  C5  UNL     1      14.501  27.245  23.074  1.00  0.00     0.132 A
HETATM   13  N2  UNL     1      15.454  26.593  22.321  1.00  0.00    -0.295 N
HETATM   14  N3  UNL     1      14.975  25.469  21.851  1.00  0.00    -0.310 N
ATOM     15  H2  UNL     1      16.400  26.938  22.155  1.00  0.00     0.187 HD
HETATM   16  C6  UNL     1      13.713  25.332  22.262  1.00  0.00     0.126 A
ATOM     17  H3  UNL     1      15.483  24.806  21.266  1.00  0.00     0.186 HD
HETATM   18  C7  UNL     1      13.408  26.457  23.034  1.00  0.00     0.079 A
BRANCH  18  19
HETATM   19  C8  UNL     1      12.090  26.678  23.548  1.00  0.00     0.268 C
HETATM   20  N4  UNL     1      11.119  27.504  22.952  1.00  0.00    -0.057 NA
HETATM   21  O2  UNL     1      11.721  26.099  24.623  1.00  0.00    -0.271 OA
ENDBRANCH  18  19
ENDBRANCH   9  12
ENDBRANCH   3   8
BRANCH   7  22
HETATM   22  O4  UNL     1      14.846  33.110  23.121  1.00  0.00    -0.389 OA
ATOM     23  H4  UNL     1      14.315  33.757  22.670  1.00  0.00     0.210 HD
ENDBRANCH   7  22
BRANCH   5  24
HETATM   24  N5  UNL     1      14.129  32.111  27.277  1.00  0.00    -0.236 N
HETATM   25  N6  UNL     1      15.060  32.052  28.216  1.00  0.00    -0.126 N
HETATM   26  C10 UNL     1      14.518  32.173  29.435  1.00  0.00     0.696 A
ATOM     27  H6  UNL     1      16.057  31.930  28.035  1.00  0.00     0.206 HD
HETATM   28  N8  UNL     1      13.208  32.309  29.216  1.00  0.00    -0.178 N
HETATM   29  C16 UNL     1      12.974  32.271  27.899  1.00  0.00     0.117 A
ATOM     30  H8  UNL     1      12.498  32.424  29.939  1.00  0.00     0.185 HD
BRANCH  26  31
HETATM   31  N7  UNL     1      15.235  32.151  30.662  1.00  0.00    -0.216 N
HETATM   32  C11 UNL     1      15.956  33.337  31.037  1.00  0.00     0.141 C
HETATM   33  C12 UNL     1      16.697  33.243  32.313  1.00  0.00     0.020 C
HETATM   34  C13 UNL     1      16.332  32.117  33.209  1.00  0.00     0.003 C
HETATM   35  C14 UNL     1      16.341  30.832  32.407  1.00  0.00     0.020 C
HETATM   36  C15 UNL     1      15.177  30.928  31.436  1.00  0.00     0.141 C
ENDBRANCH  26  31
BRANCH  29  37
HETATM   37  C17 UNL     1      11.652  32.390  27.273  1.00  0.00     0.080 C
BRANCH  37  38
HETATM   38  C18 UNL     1      11.088  33.804  27.322  1.00  0.00     0.018 C
BRANCH  38  39
HETATM   39  C19 UNL     1      10.315  34.139  26.073  1.00  0.00     0.083 C
BRANCH  39  40
HETATM   40  S1  UNL     1       9.304  32.697  25.638  1.00  0.00    -0.090 SA
BRANCH  40  41
HETATM   41  C20 UNL     1       9.885  31.996  24.094  1.00  0.00     0.201 A
HETATM   42  N9  UNL     1       9.893  32.562  22.882  1.00  0.00    -0.262 N
HETATM   43  N10 UNL     1      10.397  31.724  22.009  1.00  0.00    -0.225 N
ATOM     44  H9  UNL     1       9.557  33.502  22.670  1.00  0.00     0.190 HD
HETATM   45  N11 UNL     1      10.717  30.621  22.652  1.00  0.00    -0.205 N
ATOM     46  H10 UNL     1      10.520  31.896  21.011  1.00  0.00     0.210 HD
HETATM   47  N12 UNL     1      10.411  30.771  23.921  1.00  0.00    -0.045 N
ATOM     48  H11 UNL     1      11.133  29.788  22.236  1.00  0.00     0.211 HD
BRANCH  47  49
HETATM   49  C21 UNL     1      10.584  29.831  24.973  1.00  0.00     0.736 A
HETATM   50  N13 UNL     1       9.572  29.084  25.447  1.00  0.00    -0.020 N
HETATM   51  C22 UNL     1       9.744  28.193  26.448  1.00  0.00     0.705 A
ATOM     52  H13 UNL     1       8.645  29.194  25.039  1.00  0.00     0.203 HD
HETATM   53  N15 UNL     1      10.978  28.060  26.978  1.00  0.00    -0.022 N
HETATM   54  C23 UNL     1      12.003  28.794  26.521  1.00  0.00     0.705 A
ATOM     55  H15 UNL     1      11.133  27.393  27.735  1.00  0.00     0.203 HD
HETATM   56  N17 UNL     1      11.803  29.685  25.512  1.00  0.00    -0.020 N
ATOM     57  H17 UNL     1      12.582  30.243  25.164  1.00  0.00     0.203 HD
BRANCH  51  58
HETATM   58  N14 UNL     1       8.763  27.484  26.891  1.00  0.00    -0.234 N
ATOM     59 2H14 UNL     1       8.368  27.669  27.813  1.00  0.00     0.174 HD
ATOM     60 1H14 UNL     1       8.362  26.727  26.338  1.00  0.00     0.174 HD
ENDBRANCH  51  58
BRANCH  54  61
HETATM   61  N16 UNL     1      13.169  28.663  27.027  1.00  0.00    -0.234 N
ATOM     62 2H16 UNL     1      13.813  27.971  26.642  1.00  0.00     0.174 HD
ATOM     63 1H16 UNL     1      13.458  29.245  27.814  1.00  0.00     0.174 HD
ENDBRANCH  54  61
ENDBRANCH  47  49
ENDBRANCH  40  41
ENDBRANCH  39  40
ENDBRANCH  38  39
ENDBRANCH  37  38
ENDBRANCH  29  37
ENDBRANCH   5  24
TORSDOF 14
ENDMDL