MODEL 1
REMARK VINA RESULT: -8.349759636      0.000      0.000
REMARK  17 active torsions:
REMARK  status: ('A' for Active; 'I' for Inactive)
REMARK    1  A    between atoms: C2_2  and  O1_3
REMARK    2  A    between atoms: O1_3  and  C3_4
REMARK    3  A    between atoms: C3_4  and  O2_5
REMARK    4  A    between atoms: C3_4  and  C4_7
REMARK    5  A    between atoms: C6_9  and  O3_10
REMARK       I    between atoms: N1_12  and  C7_13
REMARK    6  A    between atoms: C7_13  and  O5_15
REMARK    7  A    between atoms: O5_15  and  C8_16
REMARK    8  A    between atoms: C8_16  and  C9_17
REMARK    9  A    between atoms: C10_18  and  C11_19
REMARK   10  A    between atoms: C13_25  and  N3_26
REMARK       I    between atoms: N3_26  and  C14_28
REMARK   11  A    between atoms: C14_28  and  C15_30
REMARK   12  A    between atoms: C15_30  and  C16_31
REMARK   13  A    between atoms: C15_30  and  N4_35
REMARK   14  A    between atoms: C16_31  and  O10_33
REMARK   15  A    between atoms: C19_41  and  N6_42
REMARK       I    between atoms: N6_42  and  C20_44
REMARK   16  A    between atoms: C20_44  and  O14_46
REMARK   17  A    between atoms: C24_51  and  O15_52
ROOT
HETATM    1  C9  UNL     1      13.325  32.658  24.510  1.00  0.00     0.008 C
HETATM    2  C10 UNL     1      12.235  32.334  25.150  1.00  0.00     0.124 C
HETATM    3  N2  UNL     1      11.926  30.933  25.406  1.00  0.00    -0.293 N
HETATM    4  C12 UNL     1      10.914  29.917  25.259  1.00  0.00     0.251 C
HETATM    5  O8  UNL     1       9.689  29.802  25.055  1.00  0.00    -0.271 OA
HETATM    6  C13 UNL     1      12.009  28.932  25.465  1.00  0.00     0.210 C
HETATM    7  C22 UNL     1      12.864  30.049  26.050  1.00  0.00     0.187 C
HETATM    8  S1  UNL     1      14.466  30.258  25.250  1.00  0.00    -0.136 SA
HETATM    9  C23 UNL     1      14.197  31.483  23.975  1.00  0.00     0.119 C
ENDROOT
BRANCH   6  10
HETATM   10  N3  UNL     1      12.464  28.374  24.231  1.00  0.00    -0.343 N
HETATM   11  C14 UNL     1      12.149  27.021  23.926  1.00  0.00     0.247 C
HETATM   12  O9  UNL     1      11.478  26.318  24.738  1.00  0.00    -0.271 OA
ATOM     13  H3  UNL     1      13.007  28.939  23.578  1.00  0.00     0.163 HD
BRANCH  11  14
HETATM   14  C15 UNL     1      12.632  26.468  22.631  1.00  0.00     0.254 C
BRANCH  14  15
HETATM   15  C16 UNL     1      14.075  26.059  22.820  1.00  0.00     0.149 C
HETATM   16  C17 UNL     1      14.360  24.715  22.214  1.00  0.00     0.042 C
BRANCH  15  17
HETATM   17  O10 UNL     1      14.290  25.949  24.198  1.00  0.00    -0.393 OA
ATOM     18  H10 UNL     1      14.277  25.022  24.408  1.00  0.00     0.210 HD
ENDBRANCH  15  17
ENDBRANCH  14  15
BRANCH  14  19
HETATM   19  N4  UNL     1      12.437  27.380  21.536  1.00  0.00    -0.061 N
HETATM   20  O11 UNL     1      13.088  28.434  21.182  1.00  0.00    -0.162 OA
HETATM   21  C18 UNL     1      12.561  28.974  20.107  1.00  0.00     0.401 A
HETATM   22  O12 UNL     1      12.932  30.014  19.476  1.00  0.00    -0.236 OA
HETATM   23  N5  UNL     1      11.503  28.236  19.729  1.00  0.00    -0.131 N
HETATM   24  C19 UNL     1      11.429  27.240  20.627  1.00  0.00     0.714 A
ATOM     25  H5  UNL     1      10.888  28.398  18.931  1.00  0.00     0.190 HD
BRANCH  24  26
HETATM   26  N6  UNL     1      10.543  26.309  20.617  1.00  0.00    -0.133 N
HETATM   27  C20 UNL     1       9.235  26.550  21.101  1.00  0.00     0.378 C
HETATM   28  O13 UNL     1       8.905  26.157  22.271  1.00  0.00    -0.238 OA
ATOM     29  H6  UNL     1      10.785  25.385  20.257  1.00  0.00     0.190 HD
BRANCH  27  30
HETATM   30  O14 UNL     1       8.248  27.202  20.378  1.00  0.00    -0.308 OA
HETATM   31  C21 UNL     1       7.676  28.426  20.806  1.00  0.00     0.215 C
ENDBRANCH  27  30
ENDBRANCH  24  26
ENDBRANCH  14  19
ENDBRANCH  11  14
ENDBRANCH   6  10
BRANCH   2  32
HETATM   32  C11 UNL     1      11.264  33.255  25.664  1.00  0.00     0.227 C
HETATM   33  O6  UNL     1      10.050  33.277  25.230  1.00  0.00    -0.643 OA
HETATM   34  O7  UNL     1      11.492  34.176  26.628  1.00  0.00    -0.643 OA
ENDBRANCH   2  32
BRANCH   1  35
HETATM   35  C8  UNL     1      13.848  33.905  24.154  1.00  0.00     0.158 C
BRANCH  35  36
HETATM   36  O5  UNL     1      13.602  34.726  23.086  1.00  0.00    -0.272 OA
BRANCH  36  37
HETATM   37  C7  UNL     1      12.248  34.853  22.756  1.00  0.00     0.379 C
HETATM   38  N1  UNL     1      11.559  34.124  21.773  1.00  0.00    -0.216 N
HETATM   39  C6  UNL     1      12.007  33.177  20.937  1.00  0.00     0.153 A
HETATM   40  C24 UNL     1      10.219  34.283  21.508  1.00  0.00     0.164 A
HETATM   41  C5  UNL     1      10.975  32.732  20.146  1.00  0.00     0.073 A
HETATM   42  C4  UNL     1       9.819  33.449  20.516  1.00  0.00     0.052 A
HETATM   43  O4  UNL     1      11.601  35.728  23.433  1.00  0.00    -0.237 OA
BRANCH  39  44
HETATM   44  O3  UNL     1      13.283  32.657  20.811  1.00  0.00    -0.346 OA
ATOM     45  H3  UNL     1      14.049  33.168  21.047  1.00  0.00     0.219 HD
ENDBRANCH  39  44
BRANCH  42  46
HETATM   46  C3  UNL     1       8.497  33.258  19.877  1.00  0.00     0.295 C
BRANCH  46  47
HETATM   47  O1  UNL     1       7.468  33.284  20.781  1.00  0.00    -0.357 OA
BRANCH  47  48
HETATM   48  C2  UNL     1       7.168  32.103  21.403  1.00  0.00     0.167 C
HETATM   49  C1  UNL     1       7.312  32.066  22.886  1.00  0.00     0.033 C
ENDBRANCH  47  48
ENDBRANCH  46  47
BRANCH  46  50
HETATM   50  O2  UNL     1       8.511  31.913  19.309  1.00  0.00    -0.367 OA
ATOM     51  H2  UNL     1       7.606  31.695  19.117  1.00  0.00     0.213 HD
ENDBRANCH  46  50
ENDBRANCH  42  46
BRANCH  40  52
HETATM   52  O15 UNL     1       9.407  35.186  22.181  1.00  0.00    -0.345 OA
ATOM     53  H15 UNL     1       8.852  35.840  21.775  1.00  0.00     0.219 HD
ENDBRANCH  40  52
ENDBRANCH  36  37
ENDBRANCH  35  36
ENDBRANCH   1  35
TORSDOF 17
ENDMDL