MODEL 2
REMARK VINA RESULT: -8.133162233      1.512      1.854
REMARK  17 active torsions:
REMARK  status: ('A' for Active; 'I' for Inactive)
REMARK    1  A    between atoms: O1_2  and  C2_3
REMARK    2  A    between atoms: C2_3  and  C3_5
REMARK    3  A    between atoms: C4_6  and  C5_7
REMARK    4  A    between atoms: C5_7  and  S1_8
REMARK    5  A    between atoms: S1_8  and  C6_9
REMARK    6  A    between atoms: N4_16  and  C7_17
REMARK    7  A    between atoms: C7_17  and  C8_18
REMARK    8  A    between atoms: C8_18  and  C9_19
REMARK    9  A    between atoms: C9_19  and  N5_20
REMARK   10  A    between atoms: C16_28  and  O3_29
REMARK   11  A    between atoms: C17_31  and  N6_32
REMARK   12  A    between atoms: C20_35  and  C21_36
REMARK   13  A    between atoms: C22_42  and  N9_43
REMARK   14  A    between atoms: C23_46  and  O4_47
REMARK   15  A    between atoms: C24_49  and  C25_50
REMARK       I    between atoms: C25_50  and  N10_52
REMARK   16  A    between atoms: N10_52  and  N11_54
REMARK   17  A    between atoms: N11_54  and  N12_55
ROOT
HETATM    1  C3  UNL     1       8.684  28.384  23.111  1.00  0.00     0.043 C
HETATM    2  C4  UNL     1       9.358  29.469  23.242  1.00  0.00    -0.047 C
HETATM    3  C14 UNL     1       9.199  30.743  22.404  1.00  0.00     0.110 C
HETATM    4  S2  UNL     1       8.139  30.538  21.024  1.00  0.00    -0.155 SA
HETATM    5  C15 UNL     1       7.211  29.043  21.123  1.00  0.00     0.103 C
HETATM    6  C16 UNL     1       5.706  29.366  21.423  1.00  0.00     0.159 C
HETATM    7  C17 UNL     1       5.299  27.993  21.770  1.00  0.00     0.152 C
HETATM    8  C23 UNL     1       6.346  27.560  22.751  1.00  0.00     0.168 C
HETATM    9  C24 UNL     1       7.617  28.059  22.110  1.00  0.00     0.118 C
ENDROOT
BRANCH   2  10
HETATM   10  C5  UNL     1      10.440  29.745  24.235  1.00  0.00     0.118 C
BRANCH  10  11
HETATM   11  S1  UNL     1      12.069  29.731  23.389  1.00  0.00    -0.087 SA
BRANCH  11  12
HETATM   12  C6  UNL     1      12.302  28.066  22.764  1.00  0.00     0.178 A
HETATM   13  N1  UNL     1      11.816  27.524  21.612  1.00  0.00    -0.263 N
HETATM   14  N2  UNL     1      12.204  26.281  21.484  1.00  0.00    -0.226 N
ATOM     15  H1  UNL     1      11.229  28.021  20.940  1.00  0.00     0.190 HD
HETATM   16  N3  UNL     1      12.936  26.006  22.538  1.00  0.00    -0.224 N
ATOM     17  H2  UNL     1      11.982  25.648  20.714  1.00  0.00     0.210 HD
HETATM   18  N4  UNL     1      13.012  27.063  23.326  1.00  0.00    -0.254 N
ATOM     19  H3  UNL     1      13.382  25.107  22.722  1.00  0.00     0.210 HD
BRANCH  18  20
HETATM   20  C7  UNL     1      13.741  27.126  24.575  1.00  0.00     0.154 C
BRANCH  20  21
HETATM   21  C8  UNL     1      15.107  27.773  24.422  1.00  0.00     0.052 C
BRANCH  21  22
HETATM   22  C9  UNL     1      15.216  28.966  25.342  1.00  0.00     0.274 C
BRANCH  22  23
HETATM   23  N5  UNL     1      16.598  29.436  25.366  1.00  0.00     0.088 N
HETATM   24  C10 UNL     1      16.615  30.883  25.284  1.00  0.00     0.272 C
HETATM   25  C11 UNL     1      17.043  31.230  23.883  1.00  0.00     0.032 C
HETATM   26  C12 UNL     1      18.036  30.114  23.585  1.00  0.00     0.032 C
HETATM   27  C13 UNL     1      17.376  28.938  24.273  1.00  0.00     0.272 C
ENDBRANCH  22  23
ENDBRANCH  21  22
ENDBRANCH  20  21
ENDBRANCH  18  20
ENDBRANCH  11  12
ENDBRANCH  10  11
ENDBRANCH   2  10
BRANCH   1  28
HETATM   28  C2  UNL     1       8.925  27.232  23.978  1.00  0.00     0.290 C
HETATM   29  O2  UNL     1       8.417  27.105  25.139  1.00  0.00    -0.260 OA
BRANCH  28  30
HETATM   30  O1  UNL     1       9.733  26.181  23.600  1.00  0.00    -0.323 OA
HETATM   31  C1  UNL     1       9.992  25.091  24.483  1.00  0.00     0.213 C
ENDBRANCH  28  30
ENDBRANCH   1  28
BRANCH   9  32
HETATM   32  C25 UNL     1       8.231  26.900  21.330  1.00  0.00     0.252 C
HETATM   33  O5  UNL     1       9.234  27.075  20.624  1.00  0.00    -0.271 OA
HETATM   34  N10 UNL     1       7.650  25.614  21.414  1.00  0.00    -0.253 N
ATOM     35  H10 UNL     1       6.824  25.495  21.999  1.00  0.00     0.187 HD
BRANCH  34  36
HETATM   36  N11 UNL     1       8.138  24.513  20.748  1.00  0.00    -0.027 NA
BRANCH  36  37
HETATM   37  N12 UNL     1       8.246  24.775  19.374  1.00  0.00    -0.329 N
ATOM     38 2H12 UNL     1       7.585  24.433  18.676  1.00  0.00     0.174 HD
ATOM     39 1H12 UNL     1       9.069  25.346  19.182  1.00  0.00     0.174 HD
ENDBRANCH  36  37
ENDBRANCH  34  36
ENDBRANCH   9  32
BRANCH   8  40
HETATM   40  O4  UNL     1       6.251  28.182  23.986  1.00  0.00    -0.392 OA
ATOM     41  H4  UNL     1       6.658  29.039  24.019  1.00  0.00     0.210 HD
ENDBRANCH   8  40
BRANCH   6  42
HETATM   42  O3  UNL     1       5.115  29.905  20.287  1.00  0.00    -0.392 OA
ATOM     43  H3  UNL     1       5.763  30.402  19.800  1.00  0.00     0.210 HD
ENDBRANCH   6  42
BRANCH   7  44
HETATM   44  N6  UNL     1       3.919  27.778  22.161  1.00  0.00    -0.321 N
HETATM   45  C18 UNL     1       3.260  26.673  21.833  1.00  0.00     0.031 A
HETATM   46  C19 UNL     1       3.846  25.491  21.065  1.00  0.00     0.070 C
HETATM   47  C20 UNL     1       1.953  26.562  22.219  1.00  0.00     0.071 A
HETATM   48  S3  UNL     1       1.701  28.059  23.050  1.00  0.00    -0.049 SA
HETATM   49  C22 UNL     1       3.256  28.704  22.847  1.00  0.00     0.146 A
BRANCH  47  50
HETATM   50  C21 UNL     1       0.957  25.514  22.015  1.00  0.00     0.129 C
HETATM   51  N7  UNL     1       0.196  25.581  20.987  1.00  0.00    -0.387 N
ATOM     52  H72 UNL     1       0.284  26.356  20.330  1.00  0.00     0.157 HD
ATOM     53  H71 UNL     1      -0.499  24.849  20.845  1.00  0.00     0.157 HD
HETATM   54  N8  UNL     1       0.838  24.453  22.915  1.00  0.00    -0.082 NA
ENDBRANCH  47  50
BRANCH  49  55
HETATM   55  N9  UNL     1       3.614  29.855  23.305  1.00  0.00    -0.379 N
ATOM     56  H92 UNL     1       3.557  30.719  22.765  1.00  0.00     0.158 HD
ATOM     57  H91 UNL     1       3.990  30.139  24.210  1.00  0.00     0.158 HD
ENDBRANCH  49  55
ENDBRANCH   7  44
TORSDOF 17
ENDMDL