MODEL 1
REMARK VINA RESULT: -8.848746018      0.000      0.000
REMARK  17 active torsions:
REMARK  status: ('A' for Active; 'I' for Inactive)
REMARK    1  A    between atoms: C2_2  and  C3_3
REMARK    2  A    between atoms: C2_2  and  N6_43
REMARK    3  A    between atoms: C3_3  and  N1_4
REMARK    4  A    between atoms: C3_3  and  C20_40
REMARK    5  A    between atoms: N1_4  and  C4_7
REMARK    6  A    between atoms: C6_11  and  C7_12
REMARK    7  A    between atoms: C8_15  and  C9_16
REMARK    8  A    between atoms: C9_16  and  O4_17
REMARK    9  A    between atoms: O4_17  and  C10_18
REMARK   10  A    between atoms: C10_18  and  C11_20
REMARK   11  A    between atoms: C11_20  and  S1_22
REMARK   12  A    between atoms: S1_22  and  C12_23
REMARK   13  A    between atoms: C12_23  and  C13_24
REMARK   14  A    between atoms: C15_27  and  O7_28
REMARK   15  A    between atoms: C16_30  and  O8_31
REMARK   16  A    between atoms: O8_31  and  N4_32
REMARK   17  A    between atoms: C21_46  and  N8_47
ROOT
HETATM    1  C4  UNL     1      15.806  29.882  26.351  1.00  0.00     0.311 C
HETATM    2  C5  UNL     1      16.243  28.502  26.095  1.00  0.00     0.259 C
HETATM    3  O1  UNL     1      17.221  27.819  26.481  1.00  0.00    -0.271 OA
HETATM    4  N2  UNL     1      15.126  28.267  25.248  1.00  0.00    -0.293 N
HETATM    5  C6  UNL     1      14.277  27.297  24.566  1.00  0.00     0.124 C
HETATM    6  C8  UNL     1      12.970  27.344  24.737  1.00  0.00     0.008 C
HETATM    7  C18 UNL     1      12.400  28.387  25.725  1.00  0.00     0.119 C
HETATM    8  S2  UNL     1      13.150  30.003  25.427  1.00  0.00    -0.136 SA
HETATM    9  C19 UNL     1      14.901  29.691  25.135  1.00  0.00     0.195 C
ENDROOT
BRANCH   6  10
HETATM   10  C9  UNL     1      11.960  26.508  24.168  1.00  0.00     0.156 C
BRANCH  10  11
HETATM   11  O4  UNL     1      10.898  25.973  24.825  1.00  0.00    -0.284 OA
BRANCH  11  12
HETATM   12  C10 UNL     1       9.647  25.974  24.193  1.00  0.00     0.345 C
HETATM   13  O5  UNL     1       9.288  24.948  23.586  1.00  0.00    -0.255 OA
BRANCH  12  14
HETATM   14  C11 UNL     1       8.827  27.172  24.275  1.00  0.00     0.284 C
HETATM   15  O6  UNL     1       8.918  27.997  25.217  1.00  0.00    -0.274 OA
BRANCH  14  16
HETATM   16  S1  UNL     1       7.631  27.497  22.977  1.00  0.00    -0.076 SA
BRANCH  16  17
HETATM   17  C12 UNL     1       8.379  27.913  21.444  1.00  0.00     0.142 C
BRANCH  17  18
HETATM   18  C13 UNL     1       9.698  28.564  21.542  1.00  0.00     0.050 A
HETATM   19  C14 UNL     1      10.832  27.803  21.123  1.00  0.00     0.107 A
HETATM   20  N3  UNL     1      10.835  26.465  20.648  1.00  0.00    -0.097 NA
HETATM   21  C15 UNL     1      11.925  28.608  21.268  1.00  0.00     0.146 A
HETATM   22  C16 UNL     1      11.481  29.799  21.750  1.00  0.00     0.207 A
HETATM   23  N5  UNL     1      10.126  29.761  21.912  1.00  0.00    -0.329 N
HETATM   24  C17 UNL     1       9.375  30.908  22.386  1.00  0.00     0.158 C
BRANCH  21  25
HETATM   25  O7  UNL     1      13.248  28.272  20.977  1.00  0.00    -0.355 OA
ATOM     26  H7  UNL     1      13.862  28.785  20.465  1.00  0.00     0.218 HD
ENDBRANCH  21  25
BRANCH  22  27
HETATM   27  O8  UNL     1      12.301  30.908  22.040  1.00  0.00    -0.224 OA
BRANCH  27  28
HETATM   28  N4  UNL     1      12.912  31.552  20.993  1.00  0.00    -0.303 N
ATOM     29  H42 UNL     1      12.756  31.232  20.038  1.00  0.00     0.184 HD
ATOM     30  H41 UNL     1      13.515  32.347  21.204  1.00  0.00     0.184 HD
ENDBRANCH  27  28
ENDBRANCH  22  27
ENDBRANCH  17  18
ENDBRANCH  16  17
ENDBRANCH  14  16
ENDBRANCH  12  14
ENDBRANCH  11  12
ENDBRANCH  10  11
ENDBRANCH   6  10
BRANCH   5  31
HETATM   31  C7  UNL     1      14.988  26.308  23.776  1.00  0.00     0.227 C
HETATM   32  O2  UNL     1      15.247  25.131  24.014  1.00  0.00    -0.643 OA
HETATM   33  O3  UNL     1      15.502  26.700  22.501  1.00  0.00    -0.643 OA
ENDBRANCH   5  31
BRANCH   1  34
HETATM   34  N1  UNL     1      15.086  30.151  27.569  1.00  0.00    -0.043 N
ATOM     35  H12 UNL     1      15.013  29.330  28.170  1.00  0.00     0.279 HD
ATOM     36  H11 UNL     1      14.089  30.297  27.410  1.00  0.00     0.279 HD
BRANCH  34  37
HETATM   37  C3  UNL     1      15.724  31.294  28.248  1.00  0.00     0.311 C
BRANCH  37  38
HETATM   38  C2  UNL     1      14.813  31.795  29.327  1.00  0.00     0.149 C
HETATM   39  C1  UNL     1      13.560  31.008  29.534  1.00  0.00     0.037 C
BRANCH  38  40
HETATM   40  N6  UNL     1      15.501  31.986  30.631  1.00  0.00    -0.242 N
HETATM   41  N7  UNL     1      15.500  31.081  31.552  1.00  0.00    -0.274 N
HETATM   42  C21 UNL     1      16.141  31.321  32.694  1.00  0.00     0.162 A
ATOM     43  H7  UNL     1      15.016  30.196  31.406  1.00  0.00     0.189 HD
HETATM   44  S3  UNL     1      16.764  32.888  32.441  1.00  0.00     0.010 SA
HETATM   45  C22 UNL     1      16.149  33.126  30.866  1.00  0.00     0.308 A
HETATM   46  O11 UNL     1      16.276  34.149  30.096  1.00  0.00    -0.258 OA
BRANCH  42  47
HETATM   47  N8  UNL     1      16.257  30.535  33.746  1.00  0.00    -0.378 N
ATOM     48  H82 UNL     1      15.622  29.814  34.087  1.00  0.00     0.158 HD
ATOM     49  H81 UNL     1      17.014  30.500  34.428  1.00  0.00     0.158 HD
ENDBRANCH  42  47
ENDBRANCH  38  40
ENDBRANCH  37  38
BRANCH  37  50
HETATM   50  C20 UNL     1      16.113  32.266  27.231  1.00  0.00     0.207 C
HETATM   51  O9  UNL     1      17.333  32.559  26.975  1.00  0.00    -0.646 OA
HETATM   52  O10 UNL     1      15.189  32.950  26.469  1.00  0.00    -0.646 OA
ENDBRANCH  37  50
ENDBRANCH  34  37
ENDBRANCH   1  34
TORSDOF 17
ENDMDL