MODEL 1
REMARK VINA RESULT: -8.477812735      0.000      0.000
REMARK  17 active torsions:
REMARK  status: ('A' for Active; 'I' for Inactive)
REMARK    1  A    between atoms: C2_2  and  O2_4
REMARK    2  A    between atoms: O2_4  and  C3_5
REMARK    3  A    between atoms: C7_10  and  C8_11
REMARK       I    between atoms: C8_11  and  N1_13
REMARK    4  A    between atoms: C9_15  and  C10_16
REMARK    5  A    between atoms: C9_15  and  C11_19
REMARK    6  A    between atoms: C11_19  and  O7_20
REMARK    7  A    between atoms: C11_19  and  O8_22
REMARK    8  A    between atoms: C11_19  and  N2_24
REMARK    9  A    between atoms: N2_24  and  N3_26
REMARK   10  A    between atoms: C12_28  and  C13_29
REMARK   11  A    between atoms: C12_28  and  C16_38
REMARK   12  A    between atoms: C15_32  and  N4_33
REMARK   13  A    between atoms: C16_38  and  C17_40
REMARK   14  A    between atoms: C21_46  and  C22_47
REMARK   15  A    between atoms: C22_47  and  O11_49
REMARK   16  A    between atoms: O11_49  and  C23_50
REMARK   17  A    between atoms: C23_50  and  C24_51
ROOT
HETATM    1  N3  UNL     1      11.688  27.737  25.707  1.00  0.00    -0.296 N
ATOM      2  H3  UNL     1      12.140  27.548  26.602  1.00  0.00     0.187 HD
HETATM    3  C12 UNL     1      12.255  28.635  25.105  1.00  0.00     0.097 C
ENDROOT
BRANCH   1   4
HETATM    4  N2  UNL     1      10.632  26.930  25.512  1.00  0.00    -0.272 N
ATOM      5  H2  UNL     1       9.880  27.031  26.194  1.00  0.00     0.186 HD
BRANCH   4   6
HETATM    6  C11 UNL     1      10.397  25.946  24.491  1.00  0.00     0.311 C
BRANCH   6   7
HETATM    7  C9  UNL     1       9.358  26.447  23.538  1.00  0.00     0.176 C
HETATM    8  N1  UNL     1       9.367  26.153  22.302  1.00  0.00    -0.316 N
HETATM    9  C8  UNL     1       8.497  26.526  21.287  1.00  0.00     0.251 C
ATOM     10  H1  UNL     1      10.135  25.549  22.010  1.00  0.00     0.169 HD
HETATM   11  O4  UNL     1       8.673  27.672  20.749  1.00  0.00    -0.270 OA
BRANCH   9  12
HETATM   12  C7  UNL     1       7.363  25.679  20.772  1.00  0.00     0.223 C
HETATM   13  C6  UNL     1       6.625  26.325  19.656  1.00  0.00     0.120 C
HETATM   14  C5  UNL     1       5.479  27.135  20.129  1.00  0.00     0.134 C
HETATM   15  C4  UNL     1       5.282  27.189  21.626  1.00  0.00     0.139 C
HETATM   16  O3  UNL     1       4.742  27.720  19.362  1.00  0.00    -0.298 OA
HETATM   17  C3  UNL     1       5.433  25.751  22.089  1.00  0.00     0.277 C
HETATM   18  O12 UNL     1       6.631  25.176  21.804  1.00  0.00    -0.345 OA
BRANCH  17  19
HETATM   19  O2  UNL     1       4.324  25.034  21.555  1.00  0.00    -0.290 OA
BRANCH  19  20
HETATM   20  C2  UNL     1       3.565  24.180  22.343  1.00  0.00     0.257 C
HETATM   21  C1  UNL     1       2.627  24.699  23.372  1.00  0.00     0.126 C
HETATM   22  O1  UNL     1       3.701  22.961  22.154  1.00  0.00    -0.266 OA
ENDBRANCH  19  20
ENDBRANCH  17  19
ENDBRANCH   9  12
BRANCH   7  23
HETATM   23  C10 UNL     1       8.308  27.302  24.063  1.00  0.00     0.230 C
HETATM   24  O5  UNL     1       7.388  26.770  24.776  1.00  0.00    -0.643 OA
HETATM   25  O6  UNL     1       8.196  28.656  23.870  1.00  0.00    -0.643 OA
ENDBRANCH   7  23
ENDBRANCH   6   7
BRANCH   6  26
HETATM   26  O7  UNL     1      11.537  25.601  23.793  1.00  0.00    -0.343 OA
ATOM     27  H7  UNL     1      11.445  24.721  23.449  1.00  0.00     0.215 HD
ENDBRANCH   6  26
BRANCH   6  28
HETATM   28  O8  UNL     1       9.941  24.776  25.109  1.00  0.00    -0.343 OA
ATOM     29  H8  UNL     1       9.193  24.977  25.659  1.00  0.00     0.215 HD
ENDBRANCH   6  28
ENDBRANCH   4   6
ENDBRANCH   1   4
BRANCH   3  30
HETATM   30  C13 UNL     1      11.866  29.153  23.782  1.00  0.00     0.070 A
HETATM   31  C14 UNL     1      11.248  30.390  23.690  1.00  0.00     0.085 A
HETATM   32  S1  UNL     1      10.942  30.533  22.018  1.00  0.00    -0.064 SA
HETATM   33  C15 UNL     1      11.598  29.048  21.517  1.00  0.00     0.142 A
HETATM   34  N5  UNL     1      12.026  28.503  22.659  1.00  0.00    -0.335 N
ATOM     35  H5  UNL     1      12.473  27.586  22.656  1.00  0.00     0.168 HD
BRANCH  33  36
HETATM   36  N4  UNL     1      11.666  28.550  20.294  1.00  0.00    -0.380 N
ATOM     37  H42 UNL     1      11.538  29.034  19.405  1.00  0.00     0.158 HD
ATOM     38  H41 UNL     1      11.862  27.590  20.010  1.00  0.00     0.158 HD
ENDBRANCH  33  36
ENDBRANCH   3  30
BRANCH   3  39
HETATM   39  C16 UNL     1      13.421  29.378  25.814  1.00  0.00     0.080 C
HETATM   40  S2  UNL     1      13.361  29.025  27.517  1.00  0.00    -0.076 SA
BRANCH  39  41
HETATM   41  C17 UNL     1      14.674  29.118  25.114  1.00  0.00     0.048 A
HETATM   42  S3  UNL     1      14.932  27.477  24.567  1.00  0.00    -0.099 SA
HETATM   43  C18 UNL     1      16.393  27.235  23.749  1.00  0.00     0.054 A
HETATM   44  C19 UNL     1      17.172  28.362  23.628  1.00  0.00     0.063 A
HETATM   45  C20 UNL     1      16.854  29.591  24.102  1.00  0.00     0.190 A
HETATM   46  O9  UNL     1      17.728  30.505  23.878  1.00  0.00    -0.287 OA
HETATM   47  C21 UNL     1      15.687  29.960  24.798  1.00  0.00     0.108 A
BRANCH  47  48
HETATM   48  C22 UNL     1      15.666  31.405  25.140  1.00  0.00     0.299 C
HETATM   49  O10 UNL     1      16.044  31.724  26.280  1.00  0.00    -0.259 OA
BRANCH  48  50
HETATM   50  O11 UNL     1      15.277  32.378  24.281  1.00  0.00    -0.312 OA
BRANCH  50  51
HETATM   51  C23 UNL     1      15.615  33.708  24.184  1.00  0.00     0.223 C
BRANCH  51  52
HETATM   52  C24 UNL     1      16.948  34.104  23.764  1.00  0.00     0.079 C
HETATM   53  N6  UNL     1      17.588  33.456  22.871  1.00  0.00    -0.409 N
ATOM     54  H62 UNL     1      17.140  32.641  22.452  1.00  0.00     0.155 HD
ATOM     55  H61 UNL     1      18.525  33.734  22.576  1.00  0.00     0.155 HD
ENDBRANCH  51  52
ENDBRANCH  50  51
ENDBRANCH  48  50
ENDBRANCH  47  48
ENDBRANCH  39  41
ENDBRANCH   3  39
TORSDOF 17
ENDMDL