MODEL 3
REMARK VINA RESULT: -9.474520463      2.026      2.660
REMARK  15 active torsions:
REMARK  status: ('A' for Active; 'I' for Inactive)
REMARK    1  A    between atoms: N1_2  and  C3_4
REMARK    2  A    between atoms: C3_4  and  C4_5
REMARK    3  A    between atoms: C6_7  and  C7_8
REMARK    4  A    between atoms: C7_8  and  C8_9
REMARK    5  A    between atoms: C8_9  and  N2_10
REMARK    6  A    between atoms: C8_9  and  C9_14
REMARK       I    between atoms: C9_14  and  N3_16
REMARK    7  A    between atoms: N3_16  and  C10_18
REMARK    8  A    between atoms: C13_25  and  S2_26
REMARK    9  A    between atoms: S2_26  and  C14_27
REMARK   10  A    between atoms: C15_32  and  S3_33
REMARK   11  A    between atoms: S3_33  and  C16_34
REMARK   12  A    between atoms: C20_43  and  C21_44
REMARK   13  A    between atoms: C23_50  and  N11_51
REMARK   14  A    between atoms: N11_51  and  N12_53
REMARK   15  A    between atoms: C25_57  and  O5_58
ROOT
HETATM    1  C10 UNL     1      11.582  31.619  19.873  1.00  0.00     0.383 C
HETATM    2  N4  UNL     1      10.249  32.072  19.515  1.00  0.00    -0.015 N
ATOM      3  H41 UNL     1       9.609  31.303  19.320  1.00  0.00     0.283 HD
ATOM      4  H42 UNL     1      10.214  32.512  18.596  1.00  0.00     0.283 HD
HETATM    5  C11 UNL     1       9.791  32.922  20.551  1.00  0.00     0.360 C
HETATM    6  S1  UNL     1       9.210  34.534  19.882  1.00  0.00    -0.110 SA
HETATM    7  C12 UNL     1       9.085  35.619  21.309  1.00  0.00     0.126 C
HETATM    8  C13 UNL     1       9.891  35.177  22.478  1.00  0.00     0.029 C
HETATM    9  C20 UNL     1      10.698  34.143  22.498  1.00  0.00     0.131 C
HETATM   10  N10 UNL     1      10.921  33.262  21.385  1.00  0.00    -0.269 N
HETATM   11  C22 UNL     1      12.040  32.598  20.858  1.00  0.00     0.277 C
HETATM   12  O4  UNL     1      13.226  32.856  21.223  1.00  0.00    -0.269 OA
ENDROOT
BRANCH   1  13
HETATM   13  N3  UNL     1      11.515  30.311  20.532  1.00  0.00    -0.324 N
HETATM   14  C9  UNL     1      12.260  29.211  20.063  1.00  0.00     0.250 C
HETATM   15  O1  UNL     1      12.992  29.354  19.056  1.00  0.00    -0.271 OA
ATOM     16  H3  UNL     1      10.915  30.195  21.348  1.00  0.00     0.165 HD
BRANCH  14  17
HETATM   17  C8  UNL     1      12.189  27.911  20.728  1.00  0.00     0.279 C
BRANCH  17  18
HETATM   18  C7  UNL     1      11.947  28.020  22.216  1.00  0.00     0.083 C
BRANCH  18  19
HETATM   19  C6  UNL     1      13.218  27.843  22.927  1.00  0.00    -0.027 A
HETATM   20  C5  UNL     1      13.881  28.982  23.395  1.00  0.00     0.021 A
HETATM   21  C4  UNL     1      15.070  28.827  24.061  1.00  0.00     0.004 A
HETATM   22  C25 UNL     1      15.587  27.542  24.260  1.00  0.00     0.075 A
HETATM   23  C24 UNL     1      14.953  26.424  23.811  1.00  0.00     0.068 A
HETATM   24  C23 UNL     1      13.752  26.610  23.137  1.00  0.00     0.056 A
BRANCH  21  25
HETATM   25  C3  UNL     1      15.787  30.005  24.583  1.00  0.00     0.312 C
BRANCH  25  26
HETATM   26  N1  UNL     1      16.453  30.792  23.586  1.00  0.00     0.084 N
HETATM   27  C1  UNL     1      16.324  32.196  24.060  1.00  0.00     0.309 C
HETATM   28  C2  UNL     1      17.894  30.530  23.565  1.00  0.00     0.309 C
ENDBRANCH  25  26
ENDBRANCH  21  25
BRANCH  22  29
HETATM   29  O5  UNL     1      16.809  27.444  24.949  1.00  0.00    -0.360 OA
ATOM     30  H5  UNL     1      17.574  27.206  24.440  1.00  0.00     0.217 HD
ENDBRANCH  22  29
BRANCH  24  31
HETATM   31  N11 UNL     1      13.110  25.448  22.659  1.00  0.00    -0.307 N
ATOM     32  H11 UNL     1      12.131  25.271  22.879  1.00  0.00     0.186 HD
BRANCH  31  33
HETATM   33  N12 UNL     1      13.834  24.543  21.883  1.00  0.00    -0.345 N
ATOM     34 2H12 UNL     1      14.494  24.893  21.189  1.00  0.00     0.176 HD
ATOM     35 1H12 UNL     1      13.691  23.543  22.023  1.00  0.00     0.176 HD
ENDBRANCH  31  33
ENDBRANCH  24  31
ENDBRANCH  18  19
ENDBRANCH  17  18
BRANCH  17  36
HETATM   36  N2  UNL     1      11.236  26.985  20.128  1.00  0.00    -0.066 N
ATOM     37  H23 UNL     1      11.417  26.020  20.403  1.00  0.00     0.275 HD
ATOM     38  H22 UNL     1      10.304  27.084  20.531  1.00  0.00     0.275 HD
ATOM     39  H21 UNL     1      11.226  27.097  19.114  1.00  0.00     0.275 HD
ENDBRANCH  17  36
ENDBRANCH  14  17
ENDBRANCH   1  13
BRANCH   9  40
HETATM   40  C21 UNL     1      11.424  33.845  23.733  1.00  0.00     0.228 C
HETATM   41  O2  UNL     1      12.476  34.452  24.016  1.00  0.00    -0.643 OA
HETATM   42  O3  UNL     1      10.957  32.874  24.630  1.00  0.00    -0.643 OA
ENDBRANCH   9  40
BRANCH   8  43
HETATM   43  S2  UNL     1       9.728  36.125  24.028  1.00  0.00    -0.054 SA
BRANCH  43  44
HETATM   44  C14 UNL     1       8.137  35.786  24.755  1.00  0.00     0.167 A
HETATM   45  N5  UNL     1       7.916  34.828  25.674  1.00  0.00    -0.277 N
HETATM   46  N6  UNL     1       6.629  34.807  25.998  1.00  0.00    -0.277 N
ATOM     47  H5  UNL     1       8.629  34.212  26.063  1.00  0.00     0.189 HD
HETATM   48  C15 UNL     1       6.016  35.771  25.271  1.00  0.00     0.170 A
ATOM     49  H6  UNL     1       6.184  34.181  26.670  1.00  0.00     0.189 HD
HETATM   50  N9  UNL     1       6.949  36.359  24.518  1.00  0.00    -0.310 N
HETATM   51  C19 UNL     1       6.711  37.457  23.601  1.00  0.00     0.160 C
BRANCH  48  52
HETATM   52  S3  UNL     1       4.263  36.077  25.364  1.00  0.00    -0.017 SA
BRANCH  52  53
HETATM   53  C16 UNL     1       3.851  37.436  26.434  1.00  0.00     0.143 A
HETATM   54  N7  UNL     1       4.479  37.825  27.489  1.00  0.00    -0.369 N
HETATM   55  C17 UNL     1       3.813  38.979  28.083  1.00  0.00     0.141 A
ATOM     56  H7  UNL     1       5.323  37.387  27.857  1.00  0.00     0.161 HD
HETATM   57  C18 UNL     1       2.700  39.340  27.154  1.00  0.00     0.141 A
HETATM   58  N8  UNL     1       2.719  38.268  26.199  1.00  0.00    -0.369 N
ATOM     59  H8  UNL     1       2.028  38.124  25.464  1.00  0.00     0.161 HD
ENDBRANCH  52  53
ENDBRANCH  48  52
ENDBRANCH  43  44
ENDBRANCH   8  43
TORSDOF 15
ENDMDL