MODEL 1
REMARK VINA RESULT: -4.436278575      0.000      0.000
REMARK  7 active torsions:
REMARK  status: ('A' for Active; 'I' for Inactive)
REMARK    1  A    between atoms: N1_2  and  C2_4
REMARK    2  A    between atoms: C3_7  and  N3_8
REMARK    3  A    between atoms: N5_13  and  C4_14
REMARK    4  A    between atoms: C4_14  and  C5_15
REMARK    5  A    between atoms: C5_15  and  C6_16
REMARK    6  A    between atoms: C6_16  and  C7_17
REMARK    7  A    between atoms: C7_17  and  N6_18
ROOT
HETATM    1  C2  UNL     1       6.890  28.346  23.535  1.00  0.00     0.709 A
HETATM    2  N2  UNL     1       7.954  29.012  23.054  1.00  0.00    -0.020 N
ATOM      3  H2  UNL     1       8.324  29.889  23.421  1.00  0.00     0.203 HD
HETATM    4  C3  UNL     1       8.449  28.325  22.003  1.00  0.00     0.705 A
HETATM    5  N4  UNL     1       7.690  27.226  21.832  1.00  0.00    -0.115 N
ATOM      6  H4  UNL     1       7.813  26.508  21.118  1.00  0.00     0.206 HD
HETATM    7  N5  UNL     1       6.760  27.255  22.758  1.00  0.00    -0.109 N
ENDROOT
BRANCH   7   8
HETATM    8  C4  UNL     1       5.734  26.242  22.923  1.00  0.00     0.168 C
BRANCH   8   9
HETATM    9  C5  UNL     1       6.265  25.157  23.810  1.00  0.00     0.024 C
BRANCH   9  10
HETATM   10  C6  UNL     1       5.344  24.780  24.925  1.00  0.00     0.029 C
BRANCH  10  11
HETATM   11  C7  UNL     1       3.997  24.354  24.363  1.00  0.00     0.231 C
BRANCH  11  12
HETATM   12  N6  UNL     1       3.536  23.122  24.951  1.00  0.00    -0.079 N
HETATM   13  C8  UNL     1       3.481  23.238  26.379  1.00  0.00     0.266 C
ATOM     14  H62 UNL     1       2.642  22.825  24.560  1.00  0.00     0.276 HD
ATOM     15  H61 UNL     1       4.102  22.326  24.657  1.00  0.00     0.276 HD
ENDBRANCH  11  12
ENDBRANCH  10  11
ENDBRANCH   9  10
ENDBRANCH   8   9
ENDBRANCH   7   8
BRANCH   1  16
HETATM   16  N1  UNL     1       6.127  28.648  24.526  1.00  0.00    -0.228 N
HETATM   17  C1  UNL     1       5.708  29.954  24.903  1.00  0.00     0.165 C
ATOM     18  H1  UNL     1       5.789  27.874  25.098  1.00  0.00     0.177 HD
ENDBRANCH   1  16
BRANCH   4  19
HETATM   19  N3  UNL     1       9.476  28.646  21.273  1.00  0.00    -0.233 N
ATOM     20  H32 UNL     1      10.332  28.097  21.189  1.00  0.00     0.174 HD
ATOM     21  H31 UNL     1       9.578  29.477  20.689  1.00  0.00     0.174 HD
ENDBRANCH   4  19
TORSDOF 7
ENDMDL