MODEL 4
REMARK VINA RESULT: -4.177531649      1.775      5.232
REMARK  8 active torsions:
REMARK  status: ('A' for Active; 'I' for Inactive)
REMARK    1  A    between atoms: C2_2  and  C3_3
REMARK    2  A    between atoms: C3_3  and  N1_4
REMARK    3  A    between atoms: C5_6  and  C6_7
REMARK    4  A    between atoms: C6_7  and  C7_8
REMARK    5  A    between atoms: C7_8  and  N2_9
REMARK    6  A    between atoms: C7_8  and  C8_13
REMARK    7  A    between atoms: C8_13  and  N3_14
REMARK    8  A    between atoms: C9_18  and  N4_19
ROOT
HETATM    1  N1  UNL     1       6.858  26.906  23.277  1.00  0.00    -0.298 N
HETATM    2  C4  UNL     1       5.661  26.603  23.805  1.00  0.00     0.121 A
HETATM    3  C5  UNL     1       5.668  25.256  24.144  1.00  0.00     0.006 A
HETATM    4  C9  UNL     1       6.912  24.794  23.791  1.00  0.00     0.121 A
HETATM    5  N5  UNL     1       7.629  25.831  23.259  1.00  0.00    -0.283 N
ATOM      6  H5  UNL     1       8.587  25.783  22.910  1.00  0.00     0.189 HD
ENDROOT
BRANCH   3   7
HETATM    7  C6  UNL     1       4.599  24.479  24.803  1.00  0.00     0.078 C
BRANCH   7   8
HETATM    8  C7  UNL     1       3.797  25.190  25.816  1.00  0.00     0.213 C
BRANCH   8   9
HETATM    9  N2  UNL     1       2.410  25.248  25.327  1.00  0.00    -0.073 N
ATOM     10  H23 UNL     1       2.239  26.043  24.711  1.00  0.00     0.274 HD
ATOM     11  H22 UNL     1       2.194  24.510  24.657  1.00  0.00     0.274 HD
ATOM     12  H21 UNL     1       1.794  25.237  26.141  1.00  0.00     0.274 HD
ENDBRANCH   8   9
BRANCH   8  13
HETATM   13  C8  UNL     1       3.767  24.525  27.153  1.00  0.00     0.262 C
BRANCH  13  14
HETATM   14  N3  UNL     1       3.810  25.631  28.138  1.00  0.00    -0.077 N
ATOM     15  H33 UNL     1       4.374  25.427  28.963  1.00  0.00     0.274 HD
ATOM     16  H32 UNL     1       4.347  26.441  27.826  1.00  0.00     0.274 HD
ATOM     17  H31 UNL     1       2.834  25.840  28.347  1.00  0.00     0.274 HD
ENDBRANCH  13  14
ENDBRANCH   8  13
ENDBRANCH   7   8
ENDBRANCH   3   7
BRANCH   4  18
HETATM   18  N4  UNL     1       7.427  23.618  23.851  1.00  0.00    -0.384 N
ATOM     19  H42 UNL     1       8.410  23.502  24.096  1.00  0.00     0.157 HD
ATOM     20  H41 UNL     1       7.029  22.699  23.657  1.00  0.00     0.157 HD
ENDBRANCH   4  18
BRANCH   1  21
HETATM   21  C3  UNL     1       7.309  28.179  22.792  1.00  0.00     0.175 C
BRANCH  21  22
HETATM   22  C2  UNL     1       7.661  29.117  23.895  1.00  0.00    -0.015 C
HETATM   23  C1  UNL     1       6.856  30.079  24.323  1.00  0.00     0.008 C
ENDBRANCH  21  22
ENDBRANCH   1  21
TORSDOF 8
ENDMDL