MODEL 3
REMARK VINA RESULT: -4.235334334      2.021      4.868
REMARK  6 active torsions:
REMARK  status: ('A' for Active; 'I' for Inactive)
REMARK    1  A    between atoms: N5_12  and  C3_13
REMARK    2  A    between atoms: C3_13  and  C4_14
REMARK    3  A    between atoms: C4_14  and  C5_15
REMARK    4  A    between atoms: C5_15  and  C6_16
REMARK    5  A    between atoms: C6_16  and  C7_17
REMARK    6  A    between atoms: C7_17  and  N6_18
ROOT
HETATM    1  N1  UNL     1       7.232  23.782  24.082  1.00  0.00    -0.233 N
ATOM      2  H11 UNL     1       8.072  24.148  23.632  1.00  0.00     0.174 HD
ATOM      3  H12 UNL     1       7.226  22.862  24.520  1.00  0.00     0.174 HD
HETATM    4  C1  UNL     1       6.175  24.501  24.080  1.00  0.00     0.694 A
HETATM    5  N2  UNL     1       4.996  23.987  24.711  1.00  0.00    -0.185 N
ATOM      6  H2  UNL     1       4.993  23.065  25.147  1.00  0.00     0.185 HD
HETATM    7  C2  UNL     1       3.949  24.719  24.709  1.00  0.00     0.216 A
HETATM    8  N3  UNL     1       3.937  25.995  24.111  1.00  0.00    -0.281 N
ATOM      9  H3  UNL     1       3.089  26.559  24.164  1.00  0.00     0.189 HD
HETATM   10  N4  UNL     1       5.024  26.497  23.464  1.00  0.00    -0.225 N
ATOM     11  H4  UNL     1       4.974  27.396  22.983  1.00  0.00     0.209 HD
HETATM   12  N5  UNL     1       6.184  25.776  23.474  1.00  0.00    -0.110 N
ENDROOT
BRANCH  12  13
HETATM   13  C3  UNL     1       7.390  26.294  22.885  1.00  0.00     0.169 C
BRANCH  13  14
HETATM   14  C4  UNL     1       7.279  27.664  22.308  1.00  0.00     0.022 C
BRANCH  14  15
HETATM   15  C5  UNL     1       7.918  28.659  23.232  1.00  0.00     0.003 C
BRANCH  15  16
HETATM   16  C6  UNL     1       6.893  29.483  23.929  1.00  0.00     0.027 C
BRANCH  16  17
HETATM   17  C7  UNL     1       7.507  30.141  25.178  1.00  0.00     0.229 C
BRANCH  17  18
HETATM   18  N6  UNL     1       7.177  31.534  25.157  1.00  0.00    -0.079 N
ATOM     19  H63 UNL     1       7.776  32.071  24.528  1.00  0.00     0.274 HD
ATOM     20  H62 UNL     1       6.288  31.721  24.694  1.00  0.00     0.274 HD
ATOM     21  H61 UNL     1       7.202  31.882  26.115  1.00  0.00     0.274 HD
ENDBRANCH  17  18
ENDBRANCH  16  17
ENDBRANCH  15  16
ENDBRANCH  14  15
ENDBRANCH  13  14
ENDBRANCH  12  13
TORSDOF 6
ENDMDL