MODEL 5
REMARK VINA RESULT: -4.393587138      1.952      5.775
REMARK  7 active torsions:
REMARK  status: ('A' for Active; 'I' for Inactive)
REMARK    1  A    between atoms: N1_2  and  C2_5
REMARK    2  A    between atoms: C2_5  and  C3_6
REMARK    3  A    between atoms: C3_6  and  C4_7
REMARK    4  A    between atoms: C4_7  and  C5_8
REMARK    5  A    between atoms: C5_8  and  N2_9
REMARK    6  A    between atoms: N2_9  and  C6_11
REMARK    7  A    between atoms: C8_17  and  N5_18
ROOT
HETATM    1  C6  UNL     1       6.340  29.728  24.513  1.00  0.00     0.693 A
HETATM    2  N3  UNL     1       5.858  28.574  25.000  1.00  0.00    -0.187 N
ATOM      3  H3  UNL     1       6.382  27.704  24.916  1.00  0.00     0.185 HD
HETATM    4  C7  UNL     1       4.644  28.613  25.610  1.00  0.00     0.215 A
HETATM    5  N4  UNL     1       3.929  29.746  25.736  1.00  0.00    -0.187 N
ATOM      6  H4  UNL     1       3.019  29.747  26.198  1.00  0.00     0.185 HD
HETATM    7  C8  UNL     1       4.450  30.872  25.235  1.00  0.00     0.691 A
HETATM    8  N6  UNL     1       5.639  30.892  24.626  1.00  0.00    -0.023 N
ATOM      9  H6  UNL     1       6.016  31.763  24.251  1.00  0.00     0.203 HD
ENDROOT
BRANCH   1  10
HETATM   10  N2  UNL     1       7.468  29.767  23.934  1.00  0.00    -0.226 N
ATOM     11  H2  UNL     1       7.924  30.662  23.756  1.00  0.00     0.177 HD
BRANCH  10  12
HETATM   12  C5  UNL     1       8.101  28.533  23.526  1.00  0.00     0.138 C
BRANCH  12  13
HETATM   13  C4  UNL     1       7.622  28.105  22.150  1.00  0.00     0.022 C
BRANCH  13  14
HETATM   14  C3  UNL     1       7.505  26.607  22.119  1.00  0.00     0.029 C
BRANCH  14  15
HETATM   15  C2  UNL     1       6.112  26.168  22.562  1.00  0.00     0.231 C
BRANCH  15  16
HETATM   16  N1  UNL     1       6.191  25.276  23.701  1.00  0.00    -0.079 N
HETATM   17  C1  UNL     1       7.457  24.590  23.714  1.00  0.00     0.266 C
ATOM     18  H12 UNL     1       5.407  24.625  23.730  1.00  0.00     0.276 HD
ATOM     19  H11 UNL     1       6.015  25.764  24.579  1.00  0.00     0.276 HD
ENDBRANCH  15  16
ENDBRANCH  14  15
ENDBRANCH  13  14
ENDBRANCH  12  13
ENDBRANCH  10  12
ENDBRANCH   1  10
BRANCH   7  20
HETATM   20  N5  UNL     1       3.770  31.971  25.351  1.00  0.00    -0.234 N
ATOM     21  H52 UNL     1       3.005  32.022  26.023  1.00  0.00     0.174 HD
ATOM     22  H51 UNL     1       4.023  32.762  24.759  1.00  0.00     0.174 HD
ENDBRANCH   7  20
TORSDOF 7
ENDMDL