MODEL 4
REMARK VINA RESULT: -4.119144114      5.178      6.422
REMARK  7 active torsions:
REMARK  status: ('A' for Active; 'I' for Inactive)
REMARK    1  A    between atoms: N1_2  and  C2_5
REMARK    2  A    between atoms: C2_5  and  C3_6
REMARK    3  A    between atoms: C3_6  and  C4_7
REMARK    4  A    between atoms: C4_7  and  C5_8
REMARK    5  A    between atoms: C5_8  and  N2_9
REMARK    6  A    between atoms: N2_9  and  N3_10
REMARK    7  A    between atoms: N3_10  and  C6_12
ROOT
HETATM    1  N2  UNL     1       5.391  29.864  24.881  1.00  0.00    -0.139 NA
ENDROOT
BRANCH   1   2
HETATM    2  C5  UNL     1       6.749  29.943  24.261  1.00  0.00     0.135 C
BRANCH   2   3
HETATM    3  C4  UNL     1       6.983  28.550  23.821  1.00  0.00     0.019 C
BRANCH   3   4
HETATM    4  C3  UNL     1       7.614  28.268  22.538  1.00  0.00     0.029 C
BRANCH   4   5
HETATM    5  C2  UNL     1       9.086  28.458  22.439  1.00  0.00     0.231 C
BRANCH   5   6
HETATM    6  N1  UNL     1       9.331  28.719  21.011  1.00  0.00    -0.079 N
HETATM    7  C1  UNL     1      10.731  28.995  20.729  1.00  0.00     0.266 C
ATOM      8  H12 UNL     1       8.732  29.469  20.667  1.00  0.00     0.276 HD
ATOM      9  H11 UNL     1       8.985  27.953  20.433  1.00  0.00     0.276 HD
ENDBRANCH   5   6
ENDBRANCH   4   5
ENDBRANCH   3   4
ENDBRANCH   2   3
ENDBRANCH   1   2
BRANCH   1  10
HETATM   10  N3  UNL     1       4.908  31.086  25.115  1.00  0.00    -0.275 N
ATOM     11  H3  UNL     1       5.610  31.816  24.997  1.00  0.00     0.185 HD
BRANCH  10  12
HETATM   12  C6  UNL     1       3.649  31.596  25.488  1.00  0.00     0.187 C
HETATM   13  N4  UNL     1       2.892  31.249  26.471  1.00  0.00    -0.360 N
HETATM   14  C7  UNL     1       1.679  32.092  26.467  1.00  0.00     0.142 C
ATOM     15  H4  UNL     1       3.097  30.511  27.144  1.00  0.00     0.162 HD
HETATM   16  C8  UNL     1       1.611  32.481  24.998  1.00  0.00     0.142 C
HETATM   17  N5  UNL     1       3.012  32.642  24.713  1.00  0.00    -0.360 N
ATOM     18  H5  UNL     1       3.454  33.331  24.106  1.00  0.00     0.162 HD
ENDBRANCH  10  12
ENDBRANCH   1  10
TORSDOF 7
ENDMDL