MODEL 3
REMARK VINA RESULT: -3.694705867      0.997      1.234
REMARK  7 active torsions:
REMARK  status: ('A' for Active; 'I' for Inactive)
REMARK    1  A    between atoms: N1_1  and  C1_5
REMARK    2  A    between atoms: C1_5  and  C2_6
REMARK    3  A    between atoms: C2_6  and  C3_7
REMARK    4  A    between atoms: C3_7  and  C4_8
REMARK    5  A    between atoms: C4_8  and  N2_9
REMARK    6  A    between atoms: N2_9  and  C5_11
REMARK    7  A    between atoms: C9_18  and  N4_19
ROOT
HETATM    1  C5  UNL     1       4.309  26.761  24.538  1.00  0.00     0.136 C
HETATM    2  C6  UNL     1       3.034  26.872  25.332  1.00  0.00     0.259 C
HETATM    3  N3  UNL     1       3.369  26.604  26.702  1.00  0.00    -0.073 N
ATOM      4  H31 UNL     1       2.532  26.596  27.285  1.00  0.00     0.277 HD
ATOM      5  H32 UNL     1       3.857  27.397  27.117  1.00  0.00     0.277 HD
HETATM    6  C7  UNL     1       4.118  25.400  26.873  1.00  0.00     0.234 C
HETATM    7  C8  UNL     1       4.086  24.570  25.634  1.00  0.00     0.062 C
HETATM    8  C9  UNL     1       4.603  25.260  24.403  1.00  0.00     0.209 C
ENDROOT
BRANCH   1   9
HETATM    9  N2  UNL     1       5.408  27.450  25.034  1.00  0.00    -0.394 N
ATOM     10  H2  UNL     1       6.127  26.898  25.501  1.00  0.00     0.159 HD
BRANCH   9  11
HETATM   11  C4  UNL     1       5.618  28.817  24.953  1.00  0.00     0.056 C
BRANCH  11  12
HETATM   12  C3  UNL     1       6.809  29.350  24.212  1.00  0.00     0.046 C
BRANCH  12  13
HETATM   13  C2  UNL     1       7.213  28.289  23.155  1.00  0.00     0.032 C
BRANCH  13  14
HETATM   14  C1  UNL     1       8.715  28.369  22.924  1.00  0.00     0.230 C
BRANCH  14  15
HETATM   15  N1  UNL     1       8.989  28.661  21.528  1.00  0.00    -0.079 N
ATOM     16  H13 UNL     1       8.133  28.779  20.987  1.00  0.00     0.274 HD
ATOM     17  H12 UNL     1       9.374  29.597  21.402  1.00  0.00     0.274 HD
ATOM     18  H11 UNL     1       9.595  27.942  21.133  1.00  0.00     0.274 HD
ENDBRANCH  14  15
ENDBRANCH  13  14
ENDBRANCH  12  13
ENDBRANCH  11  12
ENDBRANCH   9  11
ENDBRANCH   1   9
BRANCH   8  19
HETATM   19  N4  UNL     1       5.996  24.992  24.241  1.00  0.00    -0.073 N
ATOM     20  H43 UNL     1       6.152  24.258  23.550  1.00  0.00     0.274 HD
ATOM     21  H42 UNL     1       6.466  25.764  23.768  1.00  0.00     0.274 HD
ATOM     22  H41 UNL     1       6.453  24.769  25.125  1.00  0.00     0.274 HD
ENDBRANCH   8  19
TORSDOF 7
ENDMDL