MODEL 3
REMARK VINA RESULT: -6.292070264      2.595      8.281
REMARK  4 active torsions:
REMARK  status: ('A' for Active; 'I' for Inactive)
REMARK    1  A    between atoms: N2_4  and  N3_6
REMARK       I    between atoms: N3_6  and  C1_8
REMARK       I    between atoms: C1_8  and  N8_23
REMARK       I    between atoms: N4_9  and  C2_11
REMARK       I    between atoms: N6_13  and  C3_15
REMARK    2  A    between atoms: C3_15  and  C4_17
REMARK    3  A    between atoms: C4_17  and  C5_18
REMARK    4  A    between atoms: C5_18  and  N7_19
REMARK       I    between atoms: N8_23  and  C6_25
REMARK       I    between atoms: C6_25  and  N9_27
ROOT
HETATM    1  N3  UNL     1      46.893  -1.407  37.022  1.00  0.00    -0.118 N
ATOM      2  H3  UNL     1      46.684  -1.272  38.011  1.00  0.00     0.207 HD
HETATM    3  C1  UNL     1      47.846  -0.544  36.432  1.00  0.00     0.704 C
HETATM    4  N4  UNL     1      47.475   0.367  35.574  1.00  0.00    -0.162 N
ATOM      5  H4  UNL     1      48.179   0.978  35.161  1.00  0.00     0.187 HD
HETATM    6  C2  UNL     1      46.115   0.525  35.203  1.00  0.00     0.209 C
HETATM    7  N5  UNL     1      45.734   0.124  33.894  1.00  0.00    -0.063 NA
HETATM    8  N6  UNL     1      45.261   1.011  36.018  1.00  0.00    -0.301 N
ATOM      9  H6  UNL     1      45.595   1.281  36.943  1.00  0.00     0.171 HD
HETATM   10  C3  UNL     1      43.899   1.204  35.742  1.00  0.00     0.225 C
HETATM   11  O1  UNL     1      42.995   0.510  36.295  1.00  0.00    -0.273 OA
HETATM   12  N8  UNL     1      49.211  -0.694  36.794  1.00  0.00    -0.140 N
ATOM     13  H8  UNL     1      49.908  -0.078  36.375  1.00  0.00     0.189 HD
HETATM   14  C6  UNL     1      49.629  -1.676  37.723  1.00  0.00     0.336 C
HETATM   15  O2  UNL     1      48.805  -2.456  38.261  1.00  0.00    -0.246 OA
HETATM   16  N9  UNL     1      51.000  -1.803  38.067  1.00  0.00    -0.334 N
HETATM   17  C7  UNL     1      51.261  -2.858  39.032  1.00  0.00     0.127 C
HETATM   18  C8  UNL     1      51.182  -2.369  40.447  1.00  0.00     0.020 C
HETATM   19  C9  UNL     1      52.080  -1.205  40.738  1.00  0.00     0.002 C
HETATM   20  C10 UNL     1      53.427  -1.289  40.118  1.00  0.00     0.000 C
HETATM   21  C11 UNL     1      53.535  -0.247  39.007  1.00  0.00     0.002 C
HETATM   22  C12 UNL     1      53.270  -0.944  37.706  1.00  0.00     0.020 C
HETATM   23  C13 UNL     1      51.804  -0.829  37.357  1.00  0.00     0.127 C
ENDROOT
BRANCH   1  24
HETATM   24  N2  UNL     1      46.224  -2.417  36.363  1.00  0.00    -0.235 N
HETATM   25  N1  UNL     1      46.773  -3.522  36.095  1.00  0.00    -0.330 N
ATOM     26  H12 UNL     1      47.743  -3.656  36.382  1.00  0.00     0.178 HD
ATOM     27  H11 UNL     1      46.279  -4.269  35.607  1.00  0.00     0.178 HD
ATOM     28  H2  UNL     1      45.255  -2.266  36.083  1.00  0.00     0.208 HD
ENDBRANCH   1  24
BRANCH  10  29
HETATM   29  C4  UNL     1      43.459   2.246  34.776  1.00  0.00     0.130 C
BRANCH  29  30
HETATM   30  C5  UNL     1      43.508   3.622  35.373  1.00  0.00     0.238 C
BRANCH  30  31
HETATM   31  N7  UNL     1      42.702   3.624  36.576  1.00  0.00    -0.079 N
ATOM     32  H73 UNL     1      42.363   4.555  36.821  1.00  0.00     0.274 HD
ATOM     33  H72 UNL     1      41.795   3.178  36.443  1.00  0.00     0.274 HD
ATOM     34  H71 UNL     1      43.244   3.195  37.326  1.00  0.00     0.274 HD
ENDBRANCH  30  31
ENDBRANCH  29  30
ENDBRANCH  10  29
TORSDOF 4
ENDMDL