MODEL 1
REMARK VINA RESULT: -6.541153769      0.000      0.000
REMARK  4 active torsions:
REMARK  status: ('A' for Active; 'I' for Inactive)
REMARK    1  A    between atoms: N1_2  and  N2_5
REMARK       I    between atoms: N2_5  and  C4_7
REMARK       I    between atoms: C4_7  and  N5_17
REMARK       I    between atoms: N3_8  and  C5_10
REMARK       I    between atoms: C5_10  and  N4_12
REMARK       I    between atoms: N5_17  and  C10_19
REMARK       I    between atoms: C10_19  and  N6_21
REMARK    2  A    between atoms: N6_21  and  C11_23
REMARK    3  A    between atoms: C11_23  and  C12_24
REMARK    4  A    between atoms: C12_24  and  N7_25
ROOT
HETATM    1  N2  UNL     1      39.028   0.029  31.404  1.00  0.00    -0.048 N
ATOM      2  H2  UNL     1      39.384   0.893  30.998  1.00  0.00     0.213 HD
HETATM    3  C4  UNL     1      38.804  -1.082  30.567  1.00  0.00     0.710 C
HETATM    4  N3  UNL     1      37.611  -1.572  30.499  1.00  0.00    -0.140 N
ATOM      5  H3  UNL     1      36.883  -1.129  31.058  1.00  0.00     0.189 HD
HETATM    6  C5  UNL     1      37.246  -2.679  29.703  1.00  0.00     0.336 C
HETATM    7  O1  UNL     1      36.667  -2.392  28.598  1.00  0.00    -0.246 OA
HETATM    8  N4  UNL     1      37.492  -4.018  30.079  1.00  0.00    -0.334 N
HETATM    9  C6  UNL     1      38.132  -4.490  31.285  1.00  0.00     0.127 C
HETATM   10  C7  UNL     1      37.911  -5.988  31.324  1.00  0.00     0.022 C
HETATM   11  C8  UNL     1      36.750  -6.164  30.368  1.00  0.00     0.022 C
HETATM   12  C9  UNL     1      37.122  -5.172  29.278  1.00  0.00     0.127 C
HETATM   13  N5  UNL     1      39.845  -1.656  29.813  1.00  0.00    -0.140 N
ATOM     14  H5  UNL     1      39.629  -2.458  29.220  1.00  0.00     0.189 HD
HETATM   15  C10 UNL     1      41.181  -1.177  29.836  1.00  0.00     0.334 C
HETATM   16  O2  UNL     1      41.458  -0.202  30.559  1.00  0.00    -0.247 OA
HETATM   17  N6  UNL     1      42.187  -1.812  29.034  1.00  0.00    -0.341 N
ATOM     18  H6  UNL     1      41.956  -2.611  28.443  1.00  0.00     0.164 HD
ENDROOT
BRANCH   1  19
HETATM   19  N1  UNL     1      38.774  -0.024  32.764  1.00  0.00     0.014 N
HETATM   20  C1  UNL     1      37.416   0.506  32.996  1.00  0.00     0.302 C
HETATM   21  C2  UNL     1      38.872  -1.357  33.314  1.00  0.00     0.302 C
HETATM   22  C3  UNL     1      39.727   0.809  33.480  1.00  0.00     0.302 C
ENDBRANCH   1  19
BRANCH  17  23
HETATM   23  C11 UNL     1      43.535  -1.293  29.083  1.00  0.00     0.144 C
BRANCH  23  24
HETATM   24  C12 UNL     1      44.114  -1.206  27.674  1.00  0.00     0.141 C
BRANCH  24  25
HETATM   25  N7  UNL     1      43.872  -2.465  27.027  1.00  0.00    -0.365 N
HETATM   26  C13 UNL     1      44.009  -2.634  25.761  1.00  0.00     0.197 C
HETATM   27  N8  UNL     1      43.761  -3.890  25.156  1.00  0.00    -0.067 NA
HETATM   28  N9  UNL     1      44.412  -1.556  24.940  1.00  0.00    -0.067 NA
ATOM     29  H7  UNL     1      43.580  -3.260  27.597  1.00  0.00     0.161 HD
ENDBRANCH  24  25
ENDBRANCH  23  24
ENDBRANCH  17  23
TORSDOF 4
ENDMDL