MODEL 5
REMARK VINA RESULT: -6.320642509      2.082      3.076
REMARK  7 active torsions:
REMARK  status: ('A' for Active; 'I' for Inactive)
REMARK    1  A    between atoms: C2_2  and  N1_3
REMARK    2  A    between atoms: C2_2  and  C5_12
REMARK    3  A    between atoms: N1_3  and  C3_5
REMARK    4  A    between atoms: C3_5  and  N2_7
REMARK       I    between atoms: C5_12  and  N5_14
REMARK    5  A    between atoms: N5_14  and  C6_15
REMARK    6  A    between atoms: C6_15  and  C7_16
REMARK       I    between atoms: C7_16  and  N6_18
REMARK    7  A    between atoms: C8_20  and  C9_22
ROOT
HETATM    1  C5  UNL     1      41.529  -0.401  33.764  1.00  0.00     0.314 C
HETATM    2  O1  UNL     1      40.317  -0.181  33.988  1.00  0.00    -0.255 OA
HETATM    3  N5  UNL     1      42.581   0.368  34.171  1.00  0.00    -0.376 NA
ENDROOT
BRANCH   1   4
HETATM    4  C2  UNL     1      41.912  -1.635  32.959  1.00  0.00     0.187 C
HETATM    5  C1  UNL     1      40.853  -2.655  33.123  1.00  0.00     0.043 C
BRANCH   4   6
HETATM    6  N1  UNL     1      42.386  -1.348  31.656  1.00  0.00    -0.353 N
ATOM      7  H1  UNL     1      43.373  -1.096  31.615  1.00  0.00     0.162 HD
BRANCH   6   8
HETATM    8  C3  UNL     1      41.747  -1.350  30.427  1.00  0.00     0.174 C
HETATM    9  S1  UNL     1      40.342  -0.544  30.227  1.00  0.00    -0.041 SA
BRANCH   8  10
HETATM   10  N2  UNL     1      42.258  -2.048  29.302  1.00  0.00    -0.310 N
HETATM   11  C4  UNL     1      43.371  -1.654  28.736  1.00  0.00     0.203 C
HETATM   12  N3  UNL     1      44.073  -0.538  29.233  1.00  0.00    -0.066 NA
HETATM   13  N4  UNL     1      43.817  -2.394  27.614  1.00  0.00    -0.066 NA
ATOM     14  H2  UNL     1      41.757  -2.857  28.933  1.00  0.00     0.170 HD
ENDBRANCH   8  10
ENDBRANCH   6   8
ENDBRANCH   4   6
ENDBRANCH   1   4
BRANCH   3  15
HETATM   15  C6  UNL     1      43.639   1.141  34.579  1.00  0.00     0.260 C
BRANCH  15  16
HETATM   16  C7  UNL     1      44.906   0.745  33.892  1.00  0.00     0.275 C
HETATM   17  O2  UNL     1      44.931   0.223  32.750  1.00  0.00    -0.266 OA
HETATM   18  N6  UNL     1      46.204   0.937  34.515  1.00  0.00    -0.313 N
HETATM   19  C8  UNL     1      46.697  -0.088  35.158  1.00  0.00     0.100 C
ATOM     20  H6  UNL     1      46.703   1.824  34.453  1.00  0.00     0.170 HD
HETATM   21  N7  UNL     1      45.953  -1.287  35.202  1.00  0.00    -0.087 NA
BRANCH  19  22
HETATM   22  C9  UNL     1      47.994  -0.023  35.828  1.00  0.00     0.059 A
HETATM   23  C10 UNL     1      47.922   0.589  37.238  1.00  0.00     0.022 A
HETATM   24  C11 UNL     1      48.400  -0.829  36.979  1.00  0.00    -0.037 A
HETATM   25  C12 UNL     1      47.616  -1.986  37.516  1.00  0.00     0.015 C
HETATM   26  C13 UNL     1      49.912  -0.974  37.208  1.00  0.00     0.015 C
ENDBRANCH  19  22
ENDBRANCH  15  16
ENDBRANCH   3  15
TORSDOF 7
ENDMDL