MODEL 3
REMARK VINA RESULT: -6.031043505      2.192      5.783
REMARK  4 active torsions:
REMARK  status: ('A' for Active; 'I' for Inactive)
REMARK    1  A    between atoms: C2_2  and  N1_5
REMARK       I    between atoms: N1_5  and  C5_7
REMARK       I    between atoms: C5_7  and  N3_11
REMARK    2  A    between atoms: N5_18  and  C11_19
REMARK    3  A    between atoms: C11_19  and  C12_20
REMARK    4  A    between atoms: C12_20  and  N6_21
REMARK       I    between atoms: N6_21  and  C13_23
ROOT
HETATM    1  N1  UNL     1      41.862  -0.856  28.942  1.00  0.00    -0.217 N
ATOM      2  H1  UNL     1      41.595   0.024  28.501  1.00  0.00     0.178 HD
HETATM    3  C5  UNL     1      41.093  -1.286  30.034  1.00  0.00     0.696 C
HETATM    4  N2  UNL     1      40.877  -2.495  30.278  1.00  0.00    -0.233 N
ATOM      5  H21 UNL     1      40.318  -2.807  31.072  1.00  0.00     0.174 HD
ATOM      6  H22 UNL     1      41.275  -3.199  29.656  1.00  0.00     0.174 HD
HETATM    7  N3  UNL     1      40.534  -0.296  30.909  1.00  0.00    -0.057 N
HETATM    8  C6  UNL     1      39.275   0.172  30.371  1.00  0.00     0.205 C
HETATM    9  C7  UNL     1      38.148  -0.585  30.968  1.00  0.00     0.260 C
HETATM   10  N4  UNL     1      37.994  -0.425  32.388  1.00  0.00    -0.066 N
HETATM   11  C8  UNL     1      36.548  -0.586  32.619  1.00  0.00     0.272 C
HETATM   12  C9  UNL     1      38.310   0.907  32.857  1.00  0.00     0.268 C
HETATM   13  C10 UNL     1      39.691   1.113  33.344  1.00  0.00     0.303 C
HETATM   14  N5  UNL     1      40.613   0.023  33.157  1.00  0.00     0.072 N
HETATM   15  C14 UNL     1      40.016  -1.198  33.576  1.00  0.00     0.303 C
HETATM   16  C15 UNL     1      38.623  -1.460  33.149  1.00  0.00     0.268 C
HETATM   17  O1  UNL     1      41.238  -0.002  31.985  1.00  0.00    -0.057 OA
ENDROOT
BRANCH   1  18
HETATM   18  C2  UNL     1      42.981  -1.545  28.398  1.00  0.00     0.036 C
HETATM   19  C1  UNL     1      42.745  -2.931  27.911  1.00  0.00     0.038 C
HETATM   20  C3  UNL     1      43.627  -0.735  27.277  1.00  0.00     0.038 C
HETATM   21  C4  UNL     1      44.015  -1.652  29.528  1.00  0.00     0.038 C
ENDBRANCH   1  18
BRANCH  14  22
HETATM   22  C11 UNL     1      41.698   0.292  34.138  1.00  0.00     0.295 C
BRANCH  22  23
HETATM   23  C12 UNL     1      42.734  -0.781  34.144  1.00  0.00     0.153 C
BRANCH  23  24
HETATM   24  N6  UNL     1      43.839  -0.328  33.340  1.00  0.00    -0.363 N
HETATM   25  C13 UNL     1      45.084   0.001  33.909  1.00  0.00     0.181 C
HETATM   26  N7  UNL     1      45.542  -0.632  34.917  1.00  0.00    -0.374 N
HETATM   27  N8  UNL     1      45.906   1.064  33.387  1.00  0.00    -0.064 NA
ATOM     28  H72 UNL     1      44.961  -1.384  35.286  1.00  0.00     0.158 HD
ATOM     29  H71 UNL     1      46.444  -0.394  35.330  1.00  0.00     0.158 HD
ATOM     30  H6  UNL     1      43.715  -0.242  32.331  1.00  0.00     0.162 HD
ENDBRANCH  23  24
ENDBRANCH  22  23
ENDBRANCH  14  22
TORSDOF 4
ENDMDL