MODEL 3
REMARK VINA RESULT: -6.298470284      8.927     10.795
REMARK  6 active torsions:
REMARK  status: ('A' for Active; 'I' for Inactive)
REMARK       I    between atoms: C2_2  and  N1_4
REMARK       I    between atoms: C3_6  and  N3_8
REMARK    1  A    between atoms: N3_8  and  C4_10
REMARK    2  A    between atoms: C4_10  and  C5_11
REMARK    3  A    between atoms: C5_11  and  N5_20
REMARK    4  A    between atoms: N4_12  and  C6_14
REMARK    5  A    between atoms: C6_14  and  C9_17
REMARK       I    between atoms: C12_22  and  N6_23
REMARK       I    between atoms: C12_22  and  N8_27
REMARK    6  A    between atoms: N8_27  and  N9_29
ROOT
HETATM    1  N5  UNL     1      46.222   1.023  36.255  1.00  0.00    -0.177 N
ATOM      2  H5  UNL     1      46.368   1.777  35.584  1.00  0.00     0.185 HD
HETATM    3  C12 UNL     1      45.894  -0.055  35.716  1.00  0.00     0.708 C
HETATM    4  N6  UNL     1      45.783  -0.042  34.270  1.00  0.00    -0.124 N
ATOM      5  H6  UNL     1      46.526  -0.465  33.713  1.00  0.00     0.197 HD
HETATM    6  C13 UNL     1      44.703   0.526  33.623  1.00  0.00     0.196 C
HETATM    7  N7  UNL     1      43.801   1.023  33.075  1.00  0.00    -0.171 NA
HETATM    8  N8  UNL     1      45.605  -1.307  36.312  1.00  0.00    -0.117 N
ATOM      9  H8  UNL     1      44.814  -1.415  36.948  1.00  0.00     0.207 HD
ENDROOT
BRANCH   1  10
HETATM   10  C5  UNL     1      46.431   1.418  37.570  1.00  0.00     0.112 C
HETATM   11  N4  UNL     1      45.693   2.110  38.317  1.00  0.00    -0.369 N
ATOM     12  H4  UNL     1      46.103   2.256  39.240  1.00  0.00     0.161 HD
BRANCH  10  13
HETATM   13  C4  UNL     1      47.738   0.972  38.206  1.00  0.00     0.199 C
BRANCH  13  14
HETATM   14  N3  UNL     1      48.784   0.785  37.257  1.00  0.00    -0.357 N
HETATM   15  C3  UNL     1      49.567  -0.396  37.324  1.00  0.00     0.191 C
HETATM   16  N1  UNL     1      50.476  -0.515  38.220  1.00  0.00    -0.302 N
HETATM   17  N2  UNL     1      49.362  -1.453  36.410  1.00  0.00    -0.063 NA
HETATM   18  C2  UNL     1      51.278  -1.681  38.314  1.00  0.00     0.220 C
ATOM     19  H1  UNL     1      50.626   0.247  38.880  1.00  0.00     0.171 HD
HETATM   20  C1  UNL     1      50.758  -2.922  38.934  1.00  0.00     0.117 C
HETATM   21  O1  UNL     1      52.433  -1.654  37.869  1.00  0.00    -0.274 OA
ATOM     22  H3  UNL     1      48.967   1.490  36.542  1.00  0.00     0.162 HD
ENDBRANCH  13  14
ENDBRANCH  10  13
BRANCH  11  23
HETATM   23  C6  UNL     1      44.439   2.730  38.185  1.00  0.00     0.027 C
HETATM   24  C7  UNL     1      44.092   3.416  39.519  1.00  0.00     0.038 C
HETATM   25  C8  UNL     1      43.279   1.837  37.863  1.00  0.00     0.038 C
BRANCH  23  26
HETATM   26  C9  UNL     1      44.454   3.862  37.159  1.00  0.00     0.005 C
HETATM   27  C10 UNL     1      43.729   3.420  35.918  1.00  0.00     0.012 C
HETATM   28  C11 UNL     1      43.817   5.101  37.687  1.00  0.00     0.012 C
ENDBRANCH  23  26
ENDBRANCH  11  23
ENDBRANCH   1  10
BRANCH   8  29
HETATM   29  N9  UNL     1      46.442  -2.403  35.999  1.00  0.00    -0.235 N
HETATM   30  N10 UNL     1      46.907  -3.180  36.879  1.00  0.00    -0.330 N
ATOM     31 2H10 UNL     1      46.659  -2.996  37.851  1.00  0.00     0.178 HD
ATOM     32 1H10 UNL     1      47.511  -3.970  36.654  1.00  0.00     0.178 HD
ATOM     33  H9  UNL     1      46.680  -2.572  35.022  1.00  0.00     0.208 HD
ENDBRANCH   8  29
TORSDOF 6
ENDMDL