MODEL 2
REMARK VINA RESULT: -6.380467885      2.182      2.940
REMARK  4 active torsions:
REMARK  status: ('A' for Active; 'I' for Inactive)
REMARK    1  A    between atoms: C2_2  and  C5_5
REMARK    2  A    between atoms: C5_5  and  N1_6
REMARK    3  A    between atoms: C5_5  and  C13_22
REMARK       I    between atoms: N1_6  and  C6_8
REMARK       I    between atoms: C6_8  and  N2_10
REMARK    4  A    between atoms: C10_14  and  C11_15
REMARK       I    between atoms: C11_15  and  N3_17
REMARK       I    between atoms: C13_22  and  N6_24
ROOT
HETATM    1  N1  UNL     1      41.994  -1.492  31.715  1.00  0.00    -0.329 N
ATOM      2  H1  UNL     1      42.358  -2.413  31.959  1.00  0.00     0.165 HD
HETATM    3  C6  UNL     1      41.853  -0.545  32.739  1.00  0.00     0.319 C
HETATM    4  O1  UNL     1      41.408   0.594  32.440  1.00  0.00    -0.247 OA
HETATM    5  N2  UNL     1      42.181  -0.791  34.092  1.00  0.00    -0.321 N
HETATM    6  C7  UNL     1      42.682  -2.047  34.603  1.00  0.00     0.129 C
HETATM    7  C8  UNL     1      41.829  -2.127  35.885  1.00  0.00     0.022 C
HETATM    8  C9  UNL     1      42.247  -0.757  36.453  1.00  0.00     0.037 C
HETATM    9  C10 UNL     1      42.094   0.131  35.225  1.00  0.00     0.181 C
ENDROOT
BRANCH   1  10
HETATM   10  C5  UNL     1      41.651  -1.237  30.326  1.00  0.00     0.186 C
BRANCH  10  11
HETATM   11  C2  UNL     1      40.508  -2.144  29.976  1.00  0.00    -0.022 C
HETATM   12  C1  UNL     1      39.277  -1.304  29.679  1.00  0.00     0.017 C
HETATM   13  C3  UNL     1      40.769  -2.993  28.751  1.00  0.00     0.017 C
HETATM   14  C4  UNL     1      40.139  -3.081  31.098  1.00  0.00     0.017 C
ENDBRANCH  10  11
BRANCH  10  15
HETATM   15  C13 UNL     1      42.870  -1.472  29.490  1.00  0.00     0.247 C
HETATM   16  O3  UNL     1      43.728  -2.301  29.871  1.00  0.00    -0.271 OA
HETATM   17  N6  UNL     1      43.064  -0.780  28.297  1.00  0.00    -0.302 N
HETATM   18  C14 UNL     1      43.599  -1.097  27.213  1.00  0.00     0.203 C
ATOM     19  H6  UNL     1      42.697   0.173  28.310  1.00  0.00     0.171 HD
HETATM   20  N7  UNL     1      43.650  -0.151  26.140  1.00  0.00    -0.066 NA
HETATM   21  N8  UNL     1      44.165  -2.371  26.987  1.00  0.00    -0.066 NA
ENDBRANCH  10  15
ENDBRANCH   1  10
BRANCH   9  22
HETATM   22  C11 UNL     1      43.182   1.141  35.163  1.00  0.00     0.246 C
HETATM   23  O2  UNL     1      42.799   2.364  35.123  1.00  0.00    -0.271 OA
HETATM   24  N3  UNL     1      44.542   0.919  35.150  1.00  0.00    -0.302 N
HETATM   25  C12 UNL     1      45.365   0.513  34.290  1.00  0.00     0.203 C
ATOM     26  H3  UNL     1      44.983   1.133  36.045  1.00  0.00     0.171 HD
HETATM   27  N4  UNL     1      46.762   0.370  34.545  1.00  0.00    -0.066 NA
HETATM   28  N5  UNL     1      44.952   0.169  32.980  1.00  0.00    -0.066 NA
ENDBRANCH   9  22
TORSDOF 4
ENDMDL