MODEL 3
REMARK VINA RESULT: -5.926938367      1.158      1.281
REMARK  5 active torsions:
REMARK  status: ('A' for Active; 'I' for Inactive)
REMARK    1  A    between atoms: C2_2  and  C3_3
REMARK    2  A    between atoms: C3_3  and  C4_4
REMARK    3  A    between atoms: C5_5  and  C6_6
REMARK    4  A    between atoms: C6_6  and  N1_7
REMARK       I    between atoms: N1_7  and  C8_9
REMARK       I    between atoms: C8_9  and  N3_13
REMARK       I    between atoms: N3_13  and  C9_15
REMARK       I    between atoms: C9_15  and  N5_19
REMARK    5  A    between atoms: N5_19  and  C10_21
ROOT
HETATM    1  N1  UNL     1      49.122  -1.497  39.108  1.00  0.00    -0.211 N
HETATM    2  C7  UNL     1      49.786  -2.745  38.838  1.00  0.00     0.169 C
HETATM    3  C8  UNL     1      49.458  -0.360  38.341  1.00  0.00     0.688 C
HETATM    4  N2  UNL     1      50.691  -0.222  38.007  1.00  0.00    -0.234 N
ATOM      5  H21 UNL     1      50.933   0.600  37.454  1.00  0.00     0.174 HD
ATOM      6  H22 UNL     1      51.412  -0.893  38.272  1.00  0.00     0.174 HD
HETATM    7  N3  UNL     1      48.461   0.568  37.975  1.00  0.00    -0.023 N
ATOM      8  H3  UNL     1      48.099   1.187  38.700  1.00  0.00     0.203 HD
HETATM    9  C9  UNL     1      47.925   0.701  36.667  1.00  0.00     0.686 C
HETATM   10  N4  UNL     1      48.549   0.257  35.631  1.00  0.00    -0.234 N
ATOM     11  H41 UNL     1      48.164   0.352  34.691  1.00  0.00     0.174 HD
ATOM     12  H42 UNL     1      49.452  -0.200  35.762  1.00  0.00     0.174 HD
HETATM   13  N5  UNL     1      46.669   1.336  36.484  1.00  0.00    -0.216 N
ATOM     14  H5  UNL     1      46.593   2.315  36.210  1.00  0.00     0.178 HD
ENDROOT
BRANCH  13  15
HETATM   15  C10 UNL     1      45.499   0.506  36.712  1.00  0.00     0.149 C
HETATM   16  C11 UNL     1      44.812   0.384  35.384  1.00  0.00     0.000 C
HETATM   17  C12 UNL     1      44.217   1.480  34.926  1.00  0.00     0.026 C
HETATM   18  C13 UNL     1      44.273   2.706  35.736  1.00  0.00     0.327 C
HETATM   19  N6  UNL     1      42.939   3.319  35.753  1.00  0.00    -0.304 N
HETATM   20  N7  UNL     1      44.103   2.498  37.136  1.00  0.00     0.036 N
HETATM   21  C14 UNL     1      42.686   2.621  36.953  1.00  0.00     0.418 C
ATOM     22  H6  UNL     1      42.422   3.966  35.157  1.00  0.00     0.166 HD
HETATM   23  O1  UNL     1      41.744   2.239  37.628  1.00  0.00    -0.239 OA
HETATM   24  C15 UNL     1      44.571   3.629  37.912  1.00  0.00     0.288 C
HETATM   25  C16 UNL     1      44.539   1.229  37.634  1.00  0.00     0.281 C
ENDBRANCH  13  15
BRANCH   1  26
HETATM   26  C6  UNL     1      48.143  -1.404  40.140  1.00  0.00     0.234 C
BRANCH  26  27
HETATM   27  C5  UNL     1      48.875  -0.927  41.343  1.00  0.00    -0.086 C
HETATM   28  C4  UNL     1      49.483  -0.560  42.318  1.00  0.00    -0.105 C
BRANCH  28  29
HETATM   29  C3  UNL     1      50.236  -0.141  43.502  1.00  0.00     0.093 C
BRANCH  29  30
HETATM   30  C2  UNL     1      51.723  -0.430  43.321  1.00  0.00     0.007 C
HETATM   31  C1  UNL     1      52.543   0.341  44.339  1.00  0.00     0.006 C
ENDBRANCH  29  30
ENDBRANCH  28  29
ENDBRANCH  26  27
ENDBRANCH   1  26
TORSDOF 5
ENDMDL