MODEL 1
REMARK VINA RESULT: -6.376425752      0.000      0.000
REMARK  5 active torsions:
REMARK  status: ('A' for Active; 'I' for Inactive)
REMARK    1  A    between atoms: N2_4  and  N3_6
REMARK       I    between atoms: N3_6  and  C1_8
REMARK       I    between atoms: C1_8  and  N6_18
REMARK    2  A    between atoms: N4_9  and  C2_11
REMARK    3  A    between atoms: C2_11  and  N5_13
REMARK       I    between atoms: N6_18  and  C7_20
REMARK    4  A    between atoms: C7_20  and  C8_22
REMARK    5  A    between atoms: C9_23  and  C10_24
REMARK       I    between atoms: C10_24  and  N7_26
ROOT
HETATM    1  N3  UNL     1      41.840   5.369  37.357  1.00  0.00    -0.118 N
ATOM      2  H3  UNL     1      41.818   6.124  36.672  1.00  0.00     0.207 HD
HETATM    3  C1  UNL     1      41.445   4.068  36.939  1.00  0.00     0.703 C
HETATM    4  N4  UNL     1      40.218   3.699  37.069  1.00  0.00    -0.165 N
ATOM      5  H4  UNL     1      39.958   2.761  36.763  1.00  0.00     0.186 HD
HETATM    6  N6  UNL     1      42.360   3.140  36.375  1.00  0.00    -0.155 N
ATOM      7  H6  UNL     1      42.042   2.215  36.085  1.00  0.00     0.187 HD
HETATM    8  C7  UNL     1      43.717   3.510  36.216  1.00  0.00     0.259 C
HETATM    9  O1  UNL     1      44.159   4.641  36.557  1.00  0.00    -0.268 OA
ENDROOT
BRANCH   1  10
HETATM   10  N2  UNL     1      42.257   5.667  38.657  1.00  0.00    -0.235 N
HETATM   11  N1  UNL     1      42.686   4.787  39.473  1.00  0.00    -0.330 N
ATOM     12  H12 UNL     1      42.721   3.822  39.144  1.00  0.00     0.178 HD
ATOM     13  H11 UNL     1      42.990   5.004  40.422  1.00  0.00     0.178 HD
ATOM     14  H2  UNL     1      42.215   6.637  38.969  1.00  0.00     0.208 HD
ENDBRANCH   1  10
BRANCH   4  15
HETATM   15  C2  UNL     1      39.213   4.530  37.614  1.00  0.00     0.188 C
HETATM   16  S1  UNL     1      38.911   4.462  39.205  1.00  0.00    -0.040 SA
BRANCH  15  17
HETATM   17  N5  UNL     1      38.476   5.409  36.803  1.00  0.00    -0.358 N
HETATM   18  C3  UNL     1      37.521   5.021  35.789  1.00  0.00     0.125 C
HETATM   19  C4  UNL     1      36.537   6.174  35.831  1.00  0.00     0.021 C
HETATM   20  C5  UNL     1      37.477   7.359  35.904  1.00  0.00     0.021 C
HETATM   21  C6  UNL     1      38.546   6.858  36.844  1.00  0.00     0.125 C
ENDBRANCH  15  17
ENDBRANCH   4  15
BRANCH   8  22
HETATM   22  C8  UNL     1      44.648   2.552  35.638  1.00  0.00     0.080 C
HETATM   23  C9  UNL     1      44.396   1.940  34.504  1.00  0.00     0.080 C
BRANCH  23  24
HETATM   24  C10 UNL     1      45.345   0.998  33.965  1.00  0.00     0.247 C
HETATM   25  O2  UNL     1      45.046   0.354  32.924  1.00  0.00    -0.268 OA
HETATM   26  N7  UNL     1      46.584   0.837  34.638  1.00  0.00    -0.300 N
HETATM   27  C11 UNL     1      46.790  -0.223  35.340  1.00  0.00     0.203 C
ATOM     28  H7  UNL     1      47.304   1.554  34.566  1.00  0.00     0.171 HD
HETATM   29  N8  UNL     1      45.788  -1.209  35.431  1.00  0.00    -0.066 NA
HETATM   30  N9  UNL     1      48.034  -0.393  36.021  1.00  0.00    -0.066 NA
ENDBRANCH  23  24
ENDBRANCH   8  22
TORSDOF 5
ENDMDL