MODEL 2
REMARK VINA RESULT: -6.263765734      3.515      5.417
REMARK  5 active torsions:
REMARK  status: ('A' for Active; 'I' for Inactive)
REMARK    1  A    between atoms: C3_3  and  C4_4
REMARK    2  A    between atoms: C5_5  and  C6_6
REMARK    3  A    between atoms: C6_6  and  N1_7
REMARK       I    between atoms: N1_7  and  C7_9
REMARK       I    between atoms: C7_9  and  N3_13
REMARK       I    between atoms: C8_15  and  N5_17
REMARK    4  A    between atoms: N6_21  and  C13_23
REMARK    5  A    between atoms: C13_23  and  N7_24
REMARK       I    between atoms: N7_24  and  C14_26
ROOT
HETATM    1  C1  UNL     1      52.687  -0.982  38.180  1.00  0.00     0.113 C
HETATM    2  C2  UNL     1      51.374  -0.915  37.525  1.00  0.00    -0.097 C
HETATM    3  C3  UNL     1      50.277  -0.868  36.997  1.00  0.00    -0.015 C
ENDROOT
BRANCH   3   4
HETATM    4  C4  UNL     1      49.008  -0.822  36.366  1.00  0.00    -0.013 C
HETATM    5  C5  UNL     1      47.933  -0.801  35.825  1.00  0.00    -0.072 C
BRANCH   5   6
HETATM    6  C6  UNL     1      46.605  -0.797  35.176  1.00  0.00     0.233 C
BRANCH   6   7
HETATM    7  N1  UNL     1      46.367   0.509  34.607  1.00  0.00    -0.216 N
HETATM    8  C7  UNL     1      45.028   0.973  34.483  1.00  0.00     0.674 C
HETATM    9  N2  UNL     1      44.726   1.966  33.702  1.00  0.00    -0.235 N
HETATM   10  N3  UNL     1      44.022   0.334  35.228  1.00  0.00    -0.164 N
ATOM     11  H22 UNL     1      45.457   2.430  33.161  1.00  0.00     0.174 HD
ATOM     12  H21 UNL     1      43.766   2.298  33.613  1.00  0.00     0.174 HD
HETATM   13  C8  UNL     1      43.433   0.770  36.270  1.00  0.00     0.206 C
ATOM     14  H3  UNL     1      43.729  -0.585  34.896  1.00  0.00     0.187 HD
HETATM   15  N4  UNL     1      42.439  -0.023  36.884  1.00  0.00    -0.063 NA
HETATM   16  N5  UNL     1      43.749   2.029  36.829  1.00  0.00    -0.331 N
HETATM   17  C9  UNL     1      45.094   2.387  37.245  1.00  0.00     0.129 C
HETATM   18  C15 UNL     1      42.671   2.989  36.984  1.00  0.00     0.365 C
HETATM   19  C10 UNL     1      45.135   3.162  38.525  1.00  0.00     0.048 C
HETATM   20  C11 UNL     1      43.798   3.630  39.000  1.00  0.00     0.242 C
HETATM   21  N6  UNL     1      42.951   4.059  37.885  1.00  0.00    -0.039 N
HETATM   22  C12 UNL     1      43.698   5.107  37.185  1.00  0.00     0.276 C
ATOM     23  H1  UNL     1      47.146   1.090  34.299  1.00  0.00     0.178 HD
BRANCH  21  24
HETATM   24  C13 UNL     1      41.749   4.579  38.473  1.00  0.00     0.364 C
BRANCH  24  25
HETATM   25  N7  UNL     1      41.002   5.469  37.619  1.00  0.00    -0.321 N
HETATM   26  C14 UNL     1      39.598   5.378  37.611  1.00  0.00     0.330 C
HETATM   27  N8  UNL     1      38.836   6.238  36.783  1.00  0.00    -0.040 NA
HETATM   28  O1  UNL     1      39.015   4.537  38.335  1.00  0.00    -0.251 OA
ATOM     29  H7  UNL     1      41.482   6.151  37.032  1.00  0.00     0.165 HD
ENDBRANCH  24  25
ENDBRANCH  21  24
ENDBRANCH   6   7
ENDBRANCH   5   6
ENDBRANCH   3   4
TORSDOF 5
ENDMDL