MODEL 3
REMARK VINA RESULT: -6.467322887      1.130      1.306
REMARK  4 active torsions:
REMARK  status: ('A' for Active; 'I' for Inactive)
REMARK       I    between atoms: C1_4  and  N3_6
REMARK    1  A    between atoms: N4_9  and  C4_10
REMARK    2  A    between atoms: C4_10  and  C5_11
REMARK    3  A    between atoms: C8_14  and  N5_15
REMARK       I    between atoms: N5_15  and  C9_17
REMARK       I    between atoms: C9_17  and  N6_19
REMARK    4  A    between atoms: N6_19  and  C10_21
ROOT
HETATM    1  C5  UNL     1      38.674  -1.206  31.408  1.00  0.00     0.034 C
HETATM    2  C6  UNL     1      38.294   0.253  31.259  1.00  0.00     0.010 C
HETATM    3  C7  UNL     1      39.526   0.549  32.089  1.00  0.00     0.026 C
HETATM    4  C8  UNL     1      40.105  -0.719  31.498  1.00  0.00     0.091 C
ENDROOT
BRANCH   1   5
HETATM    5  C4  UNL     1      38.368  -2.069  30.224  1.00  0.00     0.246 C
BRANCH   5   6
HETATM    6  N4  UNL     1      38.348  -3.451  30.480  1.00  0.00    -0.039 N
HETATM    7  C3  UNL     1      37.598  -3.929  31.579  1.00  0.00     0.268 C
HETATM    8  C2  UNL     1      37.253  -5.385  31.223  1.00  0.00     0.277 C
HETATM    9  N3  UNL     1      37.968  -5.559  29.999  1.00  0.00     0.018 N
HETATM   10  C1  UNL     1      37.580  -6.614  29.200  1.00  0.00     0.288 C
HETATM   11  C14 UNL     1      39.384  -5.496  30.301  1.00  0.00     0.277 C
HETATM   12  C15 UNL     1      37.782  -4.239  29.370  1.00  0.00     0.483 C
HETATM   13  N1  UNL     1      36.557  -6.581  28.427  1.00  0.00    -0.367 N
HETATM   14  N2  UNL     1      38.343  -7.826  29.208  1.00  0.00    -0.057 NA
ATOM     15  H12 UNL     1      36.271  -7.361  27.836  1.00  0.00     0.158 HD
ATOM     16  H11 UNL     1      36.015  -5.718  28.421  1.00  0.00     0.158 HD
HETATM   17  C13 UNL     1      39.679  -4.029  30.549  1.00  0.00     0.268 C
ENDBRANCH   5   6
ENDBRANCH   1   5
BRANCH   4  18
HETATM   18  N5  UNL     1      40.725  -0.426  30.221  1.00  0.00    -0.338 N
HETATM   19  C9  UNL     1      41.932  -1.081  29.880  1.00  0.00     0.317 C
HETATM   20  O1  UNL     1      42.429  -1.895  30.693  1.00  0.00    -0.247 OA
HETATM   21  N6  UNL     1      42.616  -0.864  28.660  1.00  0.00    -0.328 N
ATOM     22  H6  UNL     1      42.214  -0.202  27.997  1.00  0.00     0.165 HD
ATOM     23  H5  UNL     1      40.298   0.242  29.579  1.00  0.00     0.164 HD
BRANCH  21  24
HETATM   24  C10 UNL     1      43.845  -1.521  28.298  1.00  0.00     0.196 C
HETATM   25  C11 UNL     1      44.306  -1.237  26.867  1.00  0.00     0.157 C
HETATM   26  N7  UNL     1      43.447  -2.296  26.418  1.00  0.00    -0.357 N
HETATM   27  C12 UNL     1      43.559  -2.866  27.735  1.00  0.00     0.242 C
ATOM     28  H7  UNL     1      42.968  -2.538  25.550  1.00  0.00     0.162 HD
HETATM   29  O2  UNL     1      43.438  -4.044  28.126  1.00  0.00    -0.271 OA
ENDBRANCH  21  24
ENDBRANCH   4  18
TORSDOF 4
ENDMDL