MODEL 2
REMARK VINA RESULT: -5.376507147      6.439      9.013
REMARK  13 active torsions:
REMARK  status: ('A' for Active; 'I' for Inactive)
REMARK    1  A    between atoms: N3_4  and  C2_6
REMARK    2  A    between atoms: C2_6  and  C3_7
REMARK    3  A    between atoms: C3_7  and  C4_8
REMARK    4  A    between atoms: C4_8  and  C5_9
REMARK    5  A    between atoms: C5_9  and  C6_10
REMARK    6  A    between atoms: C6_10  and  C7_11
REMARK    7  A    between atoms: C7_11  and  C8_12
REMARK    8  A    between atoms: C8_12  and  C9_13
REMARK    9  A    between atoms: C10_17  and  C11_18
REMARK   10  A    between atoms: C11_18  and  O1_19
REMARK   11  A    between atoms: C12_21  and  O2_22
REMARK   12  A    between atoms: C13_24  and  O3_25
REMARK   13  A    between atoms: C14_27  and  O4_28
ROOT
HETATM    1  C9  UNL     1      -6.856   8.406  75.887  1.00  0.00     0.217 C
HETATM    2  N4  UNL     1      -6.284   7.680  74.788  1.00  0.00    -0.060 N
ATOM      3  H41 UNL     1      -6.155   8.295  73.984  1.00  0.00     0.278 HD
ATOM      4  H42 UNL     1      -6.964   7.026  74.400  1.00  0.00     0.278 HD
HETATM    5  C10 UNL     1      -5.058   7.000  75.099  1.00  0.00     0.240 C
HETATM    6  C12 UNL     1      -3.982   7.885  75.626  1.00  0.00     0.182 C
HETATM    7  C13 UNL     1      -4.485   9.105  76.350  1.00  0.00     0.179 C
HETATM    8  C14 UNL     1      -5.889   8.963  76.854  1.00  0.00     0.180 C
ENDROOT
BRANCH   1   9
HETATM    9  C8  UNL     1      -7.863   9.398  75.347  1.00  0.00     0.036 C
BRANCH   9  10
HETATM   10  C7  UNL     1      -8.835   8.776  74.384  1.00  0.00     0.002 C
BRANCH  10  11
HETATM   11  C6  UNL     1     -10.230   8.812  74.904  1.00  0.00     0.000 C
BRANCH  11  12
HETATM   12  C5  UNL     1     -11.222   9.397  73.937  1.00  0.00     0.000 C
BRANCH  12  13
HETATM   13  C4  UNL     1     -12.245   8.367  73.521  1.00  0.00     0.002 C
BRANCH  13  14
HETATM   14  C3  UNL     1     -11.622   7.032  73.221  1.00  0.00     0.020 C
BRANCH  14  15
HETATM   15  C2  UNL     1     -12.418   5.893  73.840  1.00  0.00     0.122 C
BRANCH  15  16
HETATM   16  N3  UNL     1     -12.005   5.791  75.223  1.00  0.00    -0.367 N
HETATM   17  C1  UNL     1     -12.852   5.793  76.213  1.00  0.00     0.196 C
HETATM   18  N1  UNL     1     -14.234   5.904  75.863  1.00  0.00    -0.067 NA
HETATM   19  N2  UNL     1     -12.410   5.693  77.549  1.00  0.00    -0.067 NA
ATOM     20  H3  UNL     1     -11.010   5.713  75.432  1.00  0.00     0.161 HD
ENDBRANCH  15  16
ENDBRANCH  14  15
ENDBRANCH  13  14
ENDBRANCH  12  13
ENDBRANCH  11  12
ENDBRANCH  10  11
ENDBRANCH   9  10
ENDBRANCH   1   9
BRANCH   8  21
HETATM   21  O4  UNL     1      -6.313  10.222  77.295  1.00  0.00    -0.391 OA
ATOM     22  H4  UNL     1      -6.850  10.136  78.074  1.00  0.00     0.210 HD
ENDBRANCH   8  21
BRANCH   5  23
HETATM   23  C11 UNL     1      -5.279   5.812  76.024  1.00  0.00     0.199 C
BRANCH  23  24
HETATM   24  O1  UNL     1      -5.575   4.662  75.295  1.00  0.00    -0.399 OA
ATOM     25  H1  UNL     1      -4.781   4.251  74.973  1.00  0.00     0.209 HD
ENDBRANCH  23  24
ENDBRANCH   5  23
BRANCH   7  26
HETATM   26  O3  UNL     1      -3.661   9.320  77.461  1.00  0.00    -0.390 OA
ATOM     27  H3  UNL     1      -3.396  10.233  77.458  1.00  0.00     0.210 HD
ENDBRANCH   7  26
BRANCH   6  28
HETATM   28  O2  UNL     1      -3.098   8.225  74.598  1.00  0.00    -0.391 OA
ATOM     29  H2  UNL     1      -2.210   7.991  74.844  1.00  0.00     0.210 HD
ENDBRANCH   6  28
TORSDOF 13
ENDMDL