MODEL 1
REMARK VINA RESULT: -6.355032901      0.000      0.000
REMARK  13 active torsions:
REMARK  status: ('A' for Active; 'I' for Inactive)
REMARK    1  A    between atoms: N1_1  and  C1_5
REMARK    2  A    between atoms: C1_5  and  N2_6
REMARK    3  A    between atoms: N2_6  and  C2_8
REMARK    4  A    between atoms: C2_8  and  C3_9
REMARK    5  A    between atoms: C2_8  and  N3_19
REMARK    6  A    between atoms: C3_9  and  C4_10
REMARK    7  A    between atoms: C7_13  and  C8_14
REMARK    8  A    between atoms: C8_14  and  O1_15
REMARK    9  A    between atoms: C11_21  and  C12_22
REMARK   10  A    between atoms: C12_22  and  N4_23
REMARK   11  A    between atoms: N4_23  and  N5_24
REMARK   12  A    between atoms: N4_23  and  C13_27
REMARK   13  A    between atoms: C16_30  and  N6_31
ROOT
HETATM    1  C2  UNL     1      -3.347   9.247  76.294  1.00  0.00     0.202 C
ENDROOT
BRANCH   1   2
HETATM    2  N2  UNL     1      -3.938   8.005  76.195  1.00  0.00    -0.377 N
ATOM      3  H2  UNL     1      -4.127   7.518  77.070  1.00  0.00     0.157 HD
BRANCH   2   4
HETATM    4  C1  UNL     1      -4.300   7.354  75.037  1.00  0.00     0.349 C
BRANCH   4   5
HETATM    5  N1  UNL     1      -5.774   6.975  75.158  1.00  0.00    -0.064 N
ATOM      6  H13 UNL     1      -6.072   6.309  74.445  1.00  0.00     0.276 HD
ATOM      7  H12 UNL     1      -5.967   6.393  75.974  1.00  0.00     0.276 HD
ATOM      8  H11 UNL     1      -6.318   7.837  75.148  1.00  0.00     0.276 HD
ENDBRANCH   4   5
ENDBRANCH   2   4
ENDBRANCH   1   2
BRANCH   1   9
HETATM    9  C3  UNL     1      -4.046  10.449  75.924  1.00  0.00     0.030 C
BRANCH   9  10
HETATM   10  C4  UNL     1      -5.021  11.220  76.646  1.00  0.00    -0.036 A
HETATM   11  C5  UNL     1      -6.283  10.616  76.934  1.00  0.00     0.012 A
HETATM   12  C6  UNL     1      -7.182  11.184  77.763  1.00  0.00     0.010 A
HETATM   13  C7  UNL     1      -6.956  12.378  78.382  1.00  0.00    -0.035 A
HETATM   14  C9  UNL     1      -5.749  12.982  78.124  1.00  0.00     0.010 A
HETATM   15  C10 UNL     1      -4.824  12.432  77.296  1.00  0.00     0.012 A
BRANCH  13  16
HETATM   16  C8  UNL     1      -7.890  12.991  79.378  1.00  0.00     0.202 C
BRANCH  16  17
HETATM   17  O1  UNL     1      -7.426  12.615  80.678  1.00  0.00    -0.396 OA
ATOM     18  H1  UNL     1      -7.303  13.416  81.174  1.00  0.00     0.209 HD
ENDBRANCH  16  17
ENDBRANCH  13  16
ENDBRANCH   9  10
ENDBRANCH   1   9
BRANCH   1  19
HETATM   19  N3  UNL     1      -2.882   9.530  77.728  1.00  0.00    -0.374 N
HETATM   20  C11 UNL     1      -1.691   9.866  77.876  1.00  0.00     0.104 C
ATOM     21  H3  UNL     1      -3.517   9.448  78.522  1.00  0.00     0.161 HD
BRANCH  20  22
HETATM   22  C12 UNL     1      -0.923  10.205  79.111  1.00  0.00     0.127 C
BRANCH  22  23
HETATM   23  N4  UNL     1      -0.713  11.563  79.407  1.00  0.00    -0.302 N
BRANCH  23  24
HETATM   24  N5  UNL     1      -1.756  12.435  79.334  1.00  0.00    -0.343 N
ATOM     25  H52 UNL     1      -2.268  12.404  78.452  1.00  0.00     0.177 HD
ATOM     26  H51 UNL     1      -2.259  12.690  80.183  1.00  0.00     0.177 HD
ENDBRANCH  23  24
BRANCH  23  27
HETATM   27  C13 UNL     1       0.534  12.130  79.117  1.00  0.00     0.137 C
HETATM   28  C14 UNL     1       0.690  13.560  79.570  1.00  0.00     0.031 C
HETATM   29  C15 UNL     1       2.193  13.249  79.695  1.00  0.00     0.037 C
HETATM   30  C16 UNL     1       1.752  11.792  79.910  1.00  0.00     0.208 C
BRANCH  30  31
HETATM   31  N6  UNL     1       2.672  10.874  79.219  1.00  0.00    -0.073 N
ATOM     32  H63 UNL     1       2.812  11.165  78.252  1.00  0.00     0.274 HD
ATOM     33  H62 UNL     1       3.623  10.986  79.570  1.00  0.00     0.274 HD
ATOM     34  H61 UNL     1       2.385   9.896  79.263  1.00  0.00     0.274 HD
ENDBRANCH  30  31
ENDBRANCH  23  27
ENDBRANCH  22  23
ENDBRANCH  20  22
ENDBRANCH   1  19
TORSDOF 13
ENDMDL