MODEL 4
REMARK VINA RESULT: -5.965943482      2.332      6.444
REMARK  12 active torsions:
REMARK  status: ('A' for Active; 'I' for Inactive)
REMARK    1  A    between atoms: N1_1  and  C1_4
REMARK    2  A    between atoms: C2_8  and  N3_9
REMARK    3  A    between atoms: N3_9  and  C3_11
REMARK    4  A    between atoms: C3_11  and  C4_12
REMARK    5  A    between atoms: C4_12  and  C5_13
REMARK    6  A    between atoms: C5_13  and  N4_14
REMARK    7  A    between atoms: N4_14  and  C6_16
REMARK    8  A    between atoms: C6_16  and  C7_17
REMARK    9  A    between atoms: C7_17  and  C8_18
REMARK   10  A    between atoms: C8_18  and  N5_19
REMARK   11  A    between atoms: C10_21  and  C11_22
REMARK   12  A    between atoms: C11_22  and  N6_23
ROOT
HETATM    1  N4  UNL     1      -5.622  13.435  79.430  1.00  0.00    -0.382 N
ATOM      2  H4  UNL     1      -6.346  13.397  80.148  1.00  0.00     0.163 HD
ENDROOT
BRANCH   1   3
HETATM    3  C5  UNL     1      -4.358  13.818  79.844  1.00  0.00     0.061 C
BRANCH   3   4
HETATM    4  C4  UNL     1      -3.622  14.686  78.869  1.00  0.00     0.064 C
BRANCH   4   5
HETATM    5  C3  UNL     1      -2.373  13.908  78.446  1.00  0.00     0.128 C
BRANCH   5   6
HETATM    6  N3  UNL     1      -1.845  13.117  79.528  1.00  0.00    -0.354 N
ATOM      7  H3  UNL     1      -1.978  13.407  80.497  1.00  0.00     0.163 HD
BRANCH   6   8
HETATM    8  C2  UNL     1      -1.191  12.016  79.244  1.00  0.00     0.258 A
HETATM    9  O1  UNL     1      -0.023  11.650  79.749  1.00  0.00    -0.186 OA
HETATM   10  N2  UNL     1       0.345  10.500  79.252  1.00  0.00    -0.088 N
HETATM   11  C1  UNL     1      -0.597  10.082  78.392  1.00  0.00     0.699 A
ATOM     12  H2  UNL     1       1.206  10.002  79.480  1.00  0.00     0.214 HD
HETATM   13  N8  UNL     1      -1.544  11.037  78.399  1.00  0.00    -0.152 N
ATOM     14  H8  UNL     1      -2.401  11.018  77.847  1.00  0.00     0.188 HD
BRANCH  11  15
HETATM   15  N1  UNL     1      -0.592   8.976  77.695  1.00  0.00    -0.233 N
ATOM     16  H12 UNL     1       0.186   8.582  77.165  1.00  0.00     0.174 HD
ATOM     17  H11 UNL     1      -1.368   8.326  77.567  1.00  0.00     0.174 HD
ENDBRANCH  11  15
ENDBRANCH   6   8
ENDBRANCH   5   6
ENDBRANCH   4   5
ENDBRANCH   3   4
ENDBRANCH   1   3
BRANCH   1  18
HETATM   18  C6  UNL     1      -6.004  13.098  78.151  1.00  0.00     0.061 C
BRANCH  18  19
HETATM   19  C7  UNL     1      -6.760  11.859  77.855  1.00  0.00     0.064 C
BRANCH  19  20
HETATM   20  C8  UNL     1      -6.635  11.314  76.469  1.00  0.00     0.132 C
BRANCH  20  21
HETATM   21  N5  UNL     1      -5.850  10.080  76.406  1.00  0.00    -0.332 N
HETATM   22  C9  UNL     1      -6.288   8.744  76.172  1.00  0.00     0.154 C
HETATM   23  C10 UNL     1      -5.147   7.865  76.506  1.00  0.00     0.129 C
HETATM   24  N7  UNL     1      -4.051   8.709  76.878  1.00  0.00    -0.335 N
HETATM   25  C12 UNL     1      -4.440  10.046  76.593  1.00  0.00     0.318 C
ATOM     26  H7  UNL     1      -3.160   8.408  77.272  1.00  0.00     0.164 HD
HETATM   27  O2  UNL     1      -3.639  11.031  76.521  1.00  0.00    -0.247 OA
BRANCH  23  28
HETATM   28  C11 UNL     1      -4.757   6.942  75.361  1.00  0.00     0.256 C
BRANCH  28  29
HETATM   29  N6  UNL     1      -5.509   5.707  75.430  1.00  0.00    -0.077 N
ATOM     30  H63 UNL     1      -4.910   4.891  75.312  1.00  0.00     0.274 HD
ATOM     31  H62 UNL     1      -5.841   5.516  76.376  1.00  0.00     0.274 HD
ATOM     32  H61 UNL     1      -6.274   5.718  74.755  1.00  0.00     0.274 HD
ENDBRANCH  28  29
ENDBRANCH  23  28
ENDBRANCH  20  21
ENDBRANCH  19  20
ENDBRANCH  18  19
ENDBRANCH   1  18
TORSDOF 12
ENDMDL