MODEL 4
REMARK VINA RESULT: -5.537550643      4.614      6.542
REMARK  12 active torsions:
REMARK  status: ('A' for Active; 'I' for Inactive)
REMARK    1  A    between atoms: C2_2  and  C3_3
REMARK    2  A    between atoms: C3_3  and  N1_4
REMARK    3  A    between atoms: N1_4  and  C4_7
REMARK    4  A    between atoms: C4_7  and  C5_8
REMARK    5  A    between atoms: C6_11  and  C8_13
REMARK    6  A    between atoms: C8_13  and  N3_14
REMARK    7  A    between atoms: N3_14  and  C9_17
REMARK    8  A    between atoms: C9_17  and  C10_18
REMARK    9  A    between atoms: C10_18  and  N4_19
REMARK   10  A    between atoms: C13_22  and  O1_23
REMARK   11  A    between atoms: C14_25  and  O2_26
REMARK   12  A    between atoms: C15_28  and  O3_29
ROOT
HETATM    1  C5  UNL     1     -11.590   8.321  74.540  1.00  0.00     0.134 C
HETATM    2  N2  UNL     1     -11.225   8.138  75.912  1.00  0.00    -0.401 N
ATOM      3  H2  UNL     1     -10.290   8.359  76.257  1.00  0.00     0.154 HD
HETATM    4  C6  UNL     1     -12.236   7.633  76.760  1.00  0.00     0.075 C
HETATM    5  C7  UNL     1     -13.285   8.743  76.917  1.00  0.00     0.042 C
HETATM    6  C13 UNL     1     -12.945   6.415  76.281  1.00  0.00     0.178 C
HETATM    7  C14 UNL     1     -12.770   6.109  74.839  1.00  0.00     0.180 C
HETATM    8  C15 UNL     1     -12.447   7.269  73.961  1.00  0.00     0.173 C
ENDROOT
BRANCH   4   9
HETATM    9  C8  UNL     1     -11.668   7.379  78.124  1.00  0.00     0.265 C
BRANCH   9  10
HETATM   10  N3  UNL     1     -11.757   5.951  78.497  1.00  0.00    -0.071 N
ATOM     11  H32 UNL     1     -12.600   5.508  78.132  1.00  0.00     0.277 HD
ATOM     12  H31 UNL     1     -11.070   5.380  78.007  1.00  0.00     0.277 HD
BRANCH  10  13
HETATM   13  C9  UNL     1     -11.651   5.829  79.920  1.00  0.00     0.262 C
BRANCH  13  14
HETATM   14  C10 UNL     1     -10.536   6.592  80.524  1.00  0.00     0.298 C
BRANCH  14  15
HETATM   15  N4  UNL     1      -9.929   5.958  81.645  1.00  0.00     0.081 N
HETATM   16  C11 UNL     1      -9.421   4.642  81.134  1.00  0.00     0.309 C
HETATM   17  C12 UNL     1     -10.879   5.625  82.716  1.00  0.00     0.309 C
ENDBRANCH  14  15
ENDBRANCH  13  14
ENDBRANCH  10  13
ENDBRANCH   9  10
ENDBRANCH   4   9
BRANCH   6  18
HETATM   18  O1  UNL     1     -14.308   6.508  76.561  1.00  0.00    -0.390 OA
ATOM     19  H1  UNL     1     -14.538   5.928  77.278  1.00  0.00     0.210 HD
ENDBRANCH   6  18
BRANCH   1  20
HETATM   20  C4  UNL     1     -10.308   8.600  73.766  1.00  0.00     0.259 C
BRANCH  20  21
HETATM   21  N1  UNL     1      -9.169   7.954  74.378  1.00  0.00    -0.070 N
ATOM     22  H12 UNL     1      -8.892   7.116  73.868  1.00  0.00     0.277 HD
ATOM     23  H11 UNL     1      -9.415   7.519  75.267  1.00  0.00     0.277 HD
BRANCH  21  24
HETATM   24  C3  UNL     1      -8.080   8.869  74.521  1.00  0.00     0.259 C
BRANCH  24  25
HETATM   25  C2  UNL     1      -7.241   8.508  75.686  1.00  0.00    -0.010 C
HETATM   26  C1  UNL     1      -6.190   7.734  75.507  1.00  0.00     0.008 C
ENDBRANCH  24  25
ENDBRANCH  21  24
ENDBRANCH  20  21
ENDBRANCH   1  20
BRANCH   7  27
HETATM   27  O2  UNL     1     -11.796   5.101  74.651  1.00  0.00    -0.390 OA
ATOM     28  H2  UNL     1     -12.183   4.237  74.728  1.00  0.00     0.210 HD
ENDBRANCH   7  27
BRANCH   8  29
HETATM   29  O3  UNL     1     -11.763   6.737  72.842  1.00  0.00    -0.391 OA
ATOM     30  H3  UNL     1     -12.261   6.972  72.068  1.00  0.00     0.210 HD
ENDBRANCH   8  29
TORSDOF 12
ENDMDL