MODEL 4
REMARK VINA RESULT: -5.393515913      1.248      2.881
REMARK  8 active torsions:
REMARK  status: ('A' for Active; 'I' for Inactive)
REMARK    1  A    between atoms: C1_2  and  N1_3
REMARK    2  A    between atoms: N1_3  and  C2_5
REMARK    3  A    between atoms: C2_5  and  C3_6
REMARK    4  A    between atoms: C3_6  and  C4_7
REMARK    5  A    between atoms: C4_7  and  N2_8
REMARK    6  A    between atoms: N2_8  and  C5_10
REMARK    7  A    between atoms: C5_10  and  C6_11
REMARK    8  A    between atoms: C6_11  and  N3_12
ROOT
HETATM    1  N3  UNL     1      -7.980  11.339  75.320  1.00  0.00    -0.349 N
HETATM    2  C7  UNL     1      -7.930  10.469  74.219  1.00  0.00     0.095 C
HETATM    3  C8  UNL     1      -8.136   9.021  74.440  1.00  0.00     0.277 C
HETATM    4  N4  UNL     1      -9.190   8.493  73.579  1.00  0.00    -0.071 N
ATOM      5  H41 UNL     1     -10.099   8.868  73.851  1.00  0.00     0.277 HD
ATOM      6  H42 UNL     1      -9.351   7.504  73.770  1.00  0.00     0.277 HD
HETATM    7  C9  UNL     1      -8.949   8.708  72.176  1.00  0.00     0.234 C
HETATM    8  C10 UNL     1     -10.098   9.324  71.441  1.00  0.00     0.046 C
HETATM    9  C11 UNL     1      -9.761  10.461  70.542  1.00  0.00     0.115 C
HETATM   10  N5  UNL     1      -8.381  10.815  70.472  1.00  0.00    -0.420 N
ATOM     11  H5  UNL     1      -7.638  10.123  70.573  1.00  0.00     0.153 HD
HETATM   12  C12 UNL     1      -8.105  12.201  70.250  1.00  0.00     0.141 C
HETATM   13  C13 UNL     1      -8.403  13.092  71.407  1.00  0.00     0.251 C
HETATM   14  N6  UNL     1      -7.555  12.867  72.559  1.00  0.00    -0.069 N
ATOM     15  H61 UNL     1      -6.659  13.346  72.479  1.00  0.00     0.277 HD
ATOM     16  H62 UNL     1      -7.205  11.910  72.599  1.00  0.00     0.277 HD
HETATM   17  C14 UNL     1      -8.281  13.245  73.780  1.00  0.00     0.277 C
HETATM   18  C15 UNL     1      -7.655  12.667  75.016  1.00  0.00     0.095 C
ENDROOT
BRANCH   1  19
HETATM   19  C6  UNL     1      -7.893  10.864  76.628  1.00  0.00     0.087 C
BRANCH  19  20
HETATM   20  C5  UNL     1      -6.666  11.395  77.323  1.00  0.00     0.159 C
BRANCH  20  21
HETATM   21  N2  UNL     1      -5.589  10.463  77.219  1.00  0.00    -0.417 N
ATOM     22  H2  UNL     1      -5.624   9.547  77.666  1.00  0.00     0.153 HD
BRANCH  21  23
HETATM   23  C4  UNL     1      -4.457  10.889  76.451  1.00  0.00     0.115 C
BRANCH  23  24
HETATM   24  C3  UNL     1      -3.293   9.915  76.539  1.00  0.00     0.039 C
BRANCH  24  25
HETATM   25  C2  UNL     1      -3.358   8.921  75.401  1.00  0.00     0.123 C
BRANCH  25  26
HETATM   26  N1  UNL     1      -3.586   7.586  75.877  1.00  0.00    -0.368 N
ATOM     27  H1  UNL     1      -2.788   6.981  76.071  1.00  0.00     0.161 HD
BRANCH  26  28
HETATM   28  C1  UNL     1      -4.892   7.097  76.079  1.00  0.00     0.348 C
HETATM   29  O1  UNL     1      -5.615   7.338  77.055  1.00  0.00    -0.284 OA
ENDBRANCH  26  28
ENDBRANCH  25  26
ENDBRANCH  24  25
ENDBRANCH  23  24
ENDBRANCH  21  23
ENDBRANCH  20  21
ENDBRANCH  19  20
ENDBRANCH   1  19
TORSDOF 8
ENDMDL