MODEL 3
REMARK VINA RESULT: -5.901430232      2.678      3.625
REMARK  12 active torsions:
REMARK  status: ('A' for Active; 'I' for Inactive)
REMARK    1  A    between atoms: N1_1  and  C1_5
REMARK    2  A    between atoms: C1_5  and  C2_6
REMARK    3  A    between atoms: C2_6  and  O1_7
REMARK    4  A    between atoms: C2_6  and  C3_9
REMARK    5  A    between atoms: C4_10  and  C5_11
REMARK    6  A    between atoms: C6_12  and  C7_13
REMARK    7  A    between atoms: C8_15  and  C9_16
REMARK    8  A    between atoms: C10_20  and  C11_21
REMARK    9  A    between atoms: C11_21  and  N3_22
REMARK   10  A    between atoms: N3_22  and  C12_24
REMARK   11  A    between atoms: C13_26  and  O4_27
REMARK   12  A    between atoms: C14_29  and  O5_30
ROOT
HETATM    1  C7  UNL     1      -5.650   9.757  76.129  1.00  0.00     0.176 C
HETATM    2  O2  UNL     1      -4.525  10.187  76.850  1.00  0.00    -0.369 OA
HETATM    3  C8  UNL     1      -3.471   9.759  76.072  1.00  0.00     0.186 C
HETATM    4  C13 UNL     1      -3.867   8.448  75.430  1.00  0.00     0.180 C
HETATM    5  C14 UNL     1      -5.308   8.305  75.929  1.00  0.00     0.182 C
ENDROOT
BRANCH   1   6
HETATM    6  C6  UNL     1      -6.898   9.968  76.889  1.00  0.00     0.007 C
HETATM    7  C5  UNL     1      -7.603  11.062  76.807  1.00  0.00    -0.002 C
BRANCH   7   8
HETATM    8  C4  UNL     1      -7.171  12.145  75.939  1.00  0.00    -0.002 C
HETATM    9  C3  UNL     1      -6.752  13.265  76.486  1.00  0.00     0.006 C
BRANCH   9  10
HETATM   10  C2  UNL     1      -6.723  13.411  77.955  1.00  0.00     0.166 C
BRANCH  10  11
HETATM   11  C1  UNL     1      -5.338  13.936  78.333  1.00  0.00     0.265 C
BRANCH  11  12
HETATM   12  N1  UNL     1      -4.381  12.913  78.010  1.00  0.00    -0.077 N
ATOM     13  H13 UNL     1      -4.793  12.130  77.503  1.00  0.00     0.274 HD
ATOM     14  H12 UNL     1      -3.716  13.203  77.294  1.00  0.00     0.274 HD
ATOM     15  H11 UNL     1      -3.928  12.628  78.878  1.00  0.00     0.274 HD
ENDBRANCH  11  12
ENDBRANCH  10  11
BRANCH  10  16
HETATM   16  O1  UNL     1      -7.716  14.293  78.421  1.00  0.00    -0.390 OA
ATOM     17  H1  UNL     1      -8.274  14.562  77.701  1.00  0.00     0.210 HD
ENDBRANCH  10  16
ENDBRANCH   9  10
ENDBRANCH   7   8
ENDBRANCH   1   6
BRANCH   5  18
HETATM   18  O5  UNL     1      -5.207   7.637  77.163  1.00  0.00    -0.390 OA
ATOM     19  H5  UNL     1      -4.798   6.786  77.056  1.00  0.00     0.210 HD
ENDBRANCH   5  18
BRANCH   3  20
HETATM   20  C9  UNL     1      -2.215   9.528  76.866  1.00  0.00     0.249 A
HETATM   21  N2  UNL     1      -2.501   9.379  78.322  1.00  0.00    -0.058 N
HETATM   22  C10 UNL     1      -1.661  10.452  77.809  1.00  0.00     0.237 A
ATOM     23  H22 UNL     1      -3.337   9.313  78.904  1.00  0.00     0.278 HD
ATOM     24  H21 UNL     1      -2.405   8.639  79.018  1.00  0.00     0.278 HD
BRANCH  22  25
HETATM   25  C11 UNL     1      -0.206  10.289  78.187  1.00  0.00     0.157 C
BRANCH  25  26
HETATM   26  N3  UNL     1      -0.014  10.397  79.610  1.00  0.00    -0.366 N
ATOM     27  H3  UNL     1      -0.667   9.916  80.228  1.00  0.00     0.161 HD
BRANCH  26  28
HETATM   28  C12 UNL     1       1.039  11.142  80.186  1.00  0.00     0.348 C
HETATM   29  O3  UNL     1       1.965  11.632  79.492  1.00  0.00    -0.284 OA
ENDBRANCH  26  28
ENDBRANCH  25  26
ENDBRANCH  22  25
ENDBRANCH   3  20
BRANCH   4  30
HETATM   30  O4  UNL     1      -3.089   7.381  75.808  1.00  0.00    -0.390 OA
ATOM     31  H4  UNL     1      -2.172   7.468  75.574  1.00  0.00     0.210 HD
ENDBRANCH   4  30
TORSDOF 12
ENDMDL