MODEL 3
REMARK VINA RESULT: -6.107959482      2.702      6.354
REMARK  15 active torsions:
REMARK  status: ('A' for Active; 'I' for Inactive)
REMARK    1  A    between atoms: C2_2  and  C3_3
REMARK    2  A    between atoms: C3_3  and  C4_4
REMARK    3  A    between atoms: C4_4  and  N1_5
REMARK    4  A    between atoms: N1_5  and  C5_7
REMARK    5  A    between atoms: C6_10  and  N3_11
REMARK    6  A    between atoms: N3_11  and  C7_13
REMARK    7  A    between atoms: C7_13  and  C8_14
REMARK    8  A    between atoms: C8_14  and  C9_15
REMARK    9  A    between atoms: C9_15  and  O1_16
REMARK   10  A    between atoms: C10_20  and  N5_21
REMARK   11  A    between atoms: N5_21  and  C11_23
REMARK   12  A    between atoms: C11_23  and  C12_24
REMARK   13  A    between atoms: C11_23  and  C13_27
REMARK   14  A    between atoms: C12_24  and  O2_25
REMARK   15  A    between atoms: C13_27  and  O3_28
ROOT
HETATM    1  C5  UNL     1      -0.598  10.819  79.180  1.00  0.00     0.707 A
HETATM    2  N2  UNL     1      -0.964  12.084  78.960  1.00  0.00    -0.022 N
ATOM      3  H2  UNL     1      -0.395  12.834  79.353  1.00  0.00     0.203 HD
HETATM    4  C6  UNL     1      -2.065  12.411  78.233  1.00  0.00     0.707 A
HETATM    5  N4  UNL     1      -2.785  11.395  77.735  1.00  0.00    -0.022 N
ATOM      6  H4  UNL     1      -3.619  11.596  77.184  1.00  0.00     0.203 HD
HETATM    7  C10 UNL     1      -2.420  10.091  77.954  1.00  0.00     0.707 A
HETATM    8  N6  UNL     1      -1.326   9.800  78.677  1.00  0.00    -0.022 N
ATOM      9  H6  UNL     1      -1.052   8.832  78.841  1.00  0.00     0.203 HD
ENDROOT
BRANCH   7  10
HETATM   10  N5  UNL     1      -3.184   9.202  77.429  1.00  0.00    -0.216 N
ATOM     11  H5  UNL     1      -3.187   8.278  77.858  1.00  0.00     0.178 HD
BRANCH  10  12
HETATM   12  C11 UNL     1      -4.036   9.399  76.286  1.00  0.00     0.146 C
BRANCH  12  13
HETATM   13  C12 UNL     1      -5.408   8.847  76.544  1.00  0.00     0.192 C
BRANCH  13  14
HETATM   14  O2  UNL     1      -5.414   7.680  77.273  1.00  0.00    -0.399 OA
ATOM     15  H2  UNL     1      -4.739   7.061  77.019  1.00  0.00     0.209 HD
ENDBRANCH  13  14
ENDBRANCH  12  13
BRANCH  12  16
HETATM   16  C13 UNL     1      -3.388   8.860  75.046  1.00  0.00     0.192 C
BRANCH  16  17
HETATM   17  O3  UNL     1      -3.395   7.476  74.977  1.00  0.00    -0.399 OA
ATOM     18  H3  UNL     1      -2.769   7.065  75.562  1.00  0.00     0.209 HD
ENDBRANCH  16  17
ENDBRANCH  12  16
ENDBRANCH  10  12
ENDBRANCH   7  10
BRANCH   4  19
HETATM   19  N3  UNL     1      -2.390  13.642  78.040  1.00  0.00    -0.225 N
ATOM     20  H3  UNL     1      -2.344  13.978  77.078  1.00  0.00     0.177 HD
BRANCH  19  21
HETATM   21  C7  UNL     1      -2.804  14.586  79.019  1.00  0.00     0.140 C
BRANCH  21  22
HETATM   22  C8  UNL     1      -4.246  15.049  78.835  1.00  0.00     0.046 C
BRANCH  22  23
HETATM   23  C9  UNL     1      -5.179  14.120  79.533  1.00  0.00     0.165 C
BRANCH  23  24
HETATM   24  O1  UNL     1      -5.381  13.011  78.703  1.00  0.00    -0.401 OA
ATOM     25  H1  UNL     1      -5.386  13.317  77.804  1.00  0.00     0.209 HD
ENDBRANCH  23  24
ENDBRANCH  22  23
ENDBRANCH  21  22
ENDBRANCH  19  21
ENDBRANCH   4  19
BRANCH   1  26
HETATM   26  N1  UNL     1       0.444  10.492  79.867  1.00  0.00    -0.225 N
ATOM     27  H1  UNL     1       0.566   9.512  80.119  1.00  0.00     0.177 HD
BRANCH  26  28
HETATM   28  C4  UNL     1       1.447  11.439  80.298  1.00  0.00     0.138 C
BRANCH  28  29
HETATM   29  C3  UNL     1       2.276  11.867  79.103  1.00  0.00     0.020 C
BRANCH  29  30
HETATM   30  C2  UNL     1       2.387  13.394  79.109  1.00  0.00    -0.003 C
HETATM   31  C1  UNL     1       2.672  13.900  80.505  1.00  0.00     0.005 C
ENDBRANCH  29  30
ENDBRANCH  28  29
ENDBRANCH  26  28
ENDBRANCH   1  26
TORSDOF 15
ENDMDL