MODEL 2
REMARK VINA RESULT: -5.369965449      2.400      5.293
REMARK  14 active torsions:
REMARK  status: ('A' for Active; 'I' for Inactive)
REMARK    1  A    between atoms: C3_5  and  N2_6
REMARK    2  A    between atoms: N2_6  and  C4_8
REMARK    3  A    between atoms: C4_8  and  C5_9
REMARK    4  A    between atoms: C5_9  and  O1_10
REMARK    5  A    between atoms: C6_14  and  N4_15
REMARK    6  A    between atoms: N4_15  and  C7_17
REMARK    7  A    between atoms: C7_17  and  C8_18
REMARK    8  A    between atoms: C8_18  and  N5_19
REMARK    9  A    between atoms: N5_19  and  C9_22
REMARK   10  A    between atoms: C9_22  and  C10_23
REMARK   11  A    between atoms: C10_23  and  O2_24
REMARK   12  A    between atoms: C11_26  and  C12_27
REMARK   13  A    between atoms: C12_27  and  C13_28
REMARK   14  A    between atoms: C13_28  and  O3_29
ROOT
HETATM    1  C1  UNL     1      -7.797  10.953  76.685  1.00  0.00     0.069 C
HETATM    2  C2  UNL     1      -6.321  10.912  76.868  1.00  0.00     0.033 A
HETATM    3  N1  UNL     1      -5.688   9.771  76.590  1.00  0.00    -0.195 N
ATOM      4  H1  UNL     1      -6.242   8.969  76.289  1.00  0.00     0.184 HD
HETATM    5  C3  UNL     1      -4.340   9.626  76.690  1.00  0.00     0.683 A
HETATM    6  N3  UNL     1      -3.620  10.682  77.086  1.00  0.00    -0.176 N
ATOM      7  H3  UNL     1      -2.609  10.577  77.163  1.00  0.00     0.186 HD
HETATM    8  C6  UNL     1      -4.164  11.879  77.390  1.00  0.00     0.125 A
HETATM    9  C11 UNL     1      -5.560  11.976  77.272  1.00  0.00     0.011 A
ENDROOT
BRANCH   8  10
HETATM   10  N4  UNL     1      -3.584  12.916  77.785  1.00  0.00    -0.374 N
ATOM     11  H4  UNL     1      -4.235  13.678  77.974  1.00  0.00     0.161 HD
BRANCH  10  12
HETATM   12  C7  UNL     1      -2.250  13.278  78.030  1.00  0.00     0.148 C
BRANCH  12  13
HETATM   13  C8  UNL     1      -1.976  13.277  79.548  1.00  0.00     0.251 C
BRANCH  13  14
HETATM   14  N5  UNL     1      -1.528  11.980  79.976  1.00  0.00    -0.072 N
ATOM     15  H52 UNL     1      -1.369  11.971  80.983  1.00  0.00     0.277 HD
ATOM     16  H51 UNL     1      -2.288  11.302  79.914  1.00  0.00     0.277 HD
BRANCH  14  17
HETATM   17  C9  UNL     1      -0.367  11.497  79.280  1.00  0.00     0.258 C
BRANCH  17  18
HETATM   18  C10 UNL     1      -0.548  10.069  78.766  1.00  0.00     0.191 C
BRANCH  18  19
HETATM   19  O2  UNL     1      -1.759   9.588  79.231  1.00  0.00    -0.399 OA
ATOM     20  H2  UNL     1      -1.619   8.719  79.590  1.00  0.00     0.209 HD
ENDBRANCH  18  19
ENDBRANCH  17  18
ENDBRANCH  14  17
ENDBRANCH  13  14
ENDBRANCH  12  13
ENDBRANCH  10  12
ENDBRANCH   8  10
BRANCH   9  21
HETATM   21  C12 UNL     1      -6.210  13.243  77.648  1.00  0.00     0.070 C
BRANCH  21  22
HETATM   22  C13 UNL     1      -6.654  13.316  79.081  1.00  0.00     0.169 C
BRANCH  22  23
HETATM   23  O3  UNL     1      -5.676  13.401  80.021  1.00  0.00    -0.401 OA
ATOM     24  H3  UNL     1      -5.302  12.582  80.325  1.00  0.00     0.209 HD
ENDBRANCH  22  23
ENDBRANCH  21  22
ENDBRANCH   9  21
BRANCH   5  25
HETATM   25  N2  UNL     1      -3.885   8.489  76.400  1.00  0.00    -0.203 N
ATOM     26  H2  UNL     1      -3.209   8.151  77.085  1.00  0.00     0.183 HD
BRANCH  25  27
HETATM   27  C4  UNL     1      -4.092   7.584  75.359  1.00  0.00     0.105 C
BRANCH  27  28
HETATM   28  C5  UNL     1      -5.089   6.482  75.676  1.00  0.00     0.209 C
BRANCH  28  29
HETATM   29  O1  UNL     1      -6.393   6.906  75.503  1.00  0.00    -0.396 OA
ATOM     30  H1  UNL     1      -6.547   7.217  74.618  1.00  0.00     0.209 HD
ENDBRANCH  28  29
ENDBRANCH  27  28
ENDBRANCH  25  27
ENDBRANCH   5  25
TORSDOF 14
ENDMDL