MODEL 5
REMARK VINA RESULT: -6.170991722      2.289      7.444
REMARK  15 active torsions:
REMARK  status: ('A' for Active; 'I' for Inactive)
REMARK    1  A    between atoms: N1_1  and  C1_5
REMARK    2  A    between atoms: C1_5  and  C2_6
REMARK    3  A    between atoms: C2_6  and  C3_7
REMARK    4  A    between atoms: C3_7  and  C4_8
REMARK    5  A    between atoms: N2_9  and  N3_11
REMARK    6  A    between atoms: N3_11  and  C5_13
REMARK    7  A    between atoms: C6_16  and  N5_17
REMARK    8  A    between atoms: N5_17  and  C7_19
REMARK    9  A    between atoms: C7_19  and  C8_20
REMARK   10  A    between atoms: C8_20  and  O1_21
REMARK   11  A    between atoms: C9_25  and  N7_26
REMARK   12  A    between atoms: N7_26  and  C10_28
REMARK   13  A    between atoms: C10_28  and  C11_29
REMARK   14  A    between atoms: C11_29  and  C12_30
REMARK   15  A    between atoms: C12_30  and  N8_31
ROOT
HETATM    1  C5  UNL     1      -2.064   9.748  77.303  1.00  0.00     0.725 A
HETATM    2  N4  UNL     1      -2.810  10.867  77.234  1.00  0.00    -0.020 N
ATOM      3  H4  UNL     1      -3.623  10.903  76.621  1.00  0.00     0.203 HD
HETATM    4  C6  UNL     1      -2.474  11.946  77.985  1.00  0.00     0.707 A
HETATM    5  N6  UNL     1      -1.403  11.888  78.788  1.00  0.00    -0.022 N
ATOM      6  H6  UNL     1      -1.158  12.704  79.349  1.00  0.00     0.203 HD
HETATM    7  C9  UNL     1      -0.645  10.784  78.871  1.00  0.00     0.707 A
HETATM    8  N9  UNL     1      -0.993   9.727  78.122  1.00  0.00    -0.020 N
ATOM      9  H9  UNL     1      -0.428   8.879  78.174  1.00  0.00     0.203 HD
ENDROOT
BRANCH   1  10
HETATM   10  N3  UNL     1      -2.367   8.706  76.595  1.00  0.00    -0.132 N
ATOM     11  H3  UNL     1      -1.639   8.175  76.119  1.00  0.00     0.205 HD
BRANCH  10  12
HETATM   12  N2  UNL     1      -3.705   8.320  76.495  1.00  0.00    -0.301 N
HETATM   13  C4  UNL     1      -4.054   7.615  75.475  1.00  0.00     0.080 C
ATOM     14  H2  UNL     1      -4.384   8.589  77.206  1.00  0.00     0.186 HD
BRANCH  13  15
HETATM   15  C3  UNL     1      -5.475   7.204  75.368  1.00  0.00     0.048 C
BRANCH  15  16
HETATM   16  C2  UNL     1      -6.291   8.171  76.195  1.00  0.00     0.032 C
BRANCH  16  17
HETATM   17  C1  UNL     1      -7.191   8.934  75.255  1.00  0.00     0.230 C
BRANCH  17  18
HETATM   18  N1  UNL     1      -8.221   8.022  74.799  1.00  0.00    -0.079 N
ATOM     19  H13 UNL     1      -8.270   7.168  75.356  1.00  0.00     0.274 HD
ATOM     20  H12 UNL     1      -9.164   8.361  74.990  1.00  0.00     0.274 HD
ATOM     21  H11 UNL     1      -8.057   7.842  73.809  1.00  0.00     0.274 HD
ENDBRANCH  17  18
ENDBRANCH  16  17
ENDBRANCH  15  16
ENDBRANCH  13  15
ENDBRANCH  10  12
ENDBRANCH   1  10
BRANCH   4  22
HETATM   22  N5  UNL     1      -3.176  13.005  77.922  1.00  0.00    -0.223 N
ATOM     23  H5  UNL     1      -3.925  13.078  77.233  1.00  0.00     0.177 HD
BRANCH  22  24
HETATM   24  C7  UNL     1      -2.920  14.093  78.813  1.00  0.00     0.164 C
BRANCH  24  25
HETATM   25  C8  UNL     1      -4.277  14.636  79.265  1.00  0.00     0.184 C
BRANCH  25  26
HETATM   26  O1  UNL     1      -4.856  13.658  80.082  1.00  0.00    -0.399 OA
ATOM     27  H1  UNL     1      -5.173  12.971  79.506  1.00  0.00     0.209 HD
ENDBRANCH  25  26
ENDBRANCH  24  25
ENDBRANCH  22  24
ENDBRANCH   4  22
BRANCH   7  28
HETATM   28  N7  UNL     1       0.395  10.723  79.649  1.00  0.00    -0.225 N
ATOM     29  H7  UNL     1       0.337  10.281  80.567  1.00  0.00     0.177 HD
BRANCH  28  30
HETATM   30  C10 UNL     1       1.638  11.295  79.177  1.00  0.00     0.139 C
BRANCH  30  31
HETATM   31  C11 UNL     1       1.922  12.492  80.098  1.00  0.00     0.047 C
BRANCH  31  32
HETATM   32  C12 UNL     1       2.286  13.641  79.160  1.00  0.00     0.231 C
BRANCH  32  33
HETATM   33  N8  UNL     1       3.174  14.577  79.819  1.00  0.00    -0.079 N
ATOM     34  H83 UNL     1       3.899  14.918  79.188  1.00  0.00     0.274 HD
ATOM     35  H82 UNL     1       2.710  15.464  80.014  1.00  0.00     0.274 HD
ATOM     36  H81 UNL     1       3.570  14.163  80.662  1.00  0.00     0.274 HD
ENDBRANCH  32  33
ENDBRANCH  31  32
ENDBRANCH  30  31
ENDBRANCH  28  30
ENDBRANCH   7  28
TORSDOF 15
ENDMDL