MODEL 5
REMARK VINA RESULT: -5.434105364      2.184      7.393
REMARK  11 active torsions:
REMARK  status: ('A' for Active; 'I' for Inactive)
REMARK    1  A    between atoms: N1_1  and  C1_4
REMARK    2  A    between atoms: C2_7  and  O1_8
REMARK    3  A    between atoms: O1_8  and  C3_9
REMARK    4  A    between atoms: C3_9  and  C4_10
REMARK    5  A    between atoms: C4_10  and  C5_11
REMARK    6  A    between atoms: C5_11  and  N3_12
REMARK    7  A    between atoms: C7_17  and  N4_18
REMARK    8  A    between atoms: N4_18  and  C8_20
REMARK    9  A    between atoms: C8_20  and  C9_21
REMARK   10  A    between atoms: C9_21  and  N5_22
REMARK   11  A    between atoms: C12_25  and  C13_26
ROOT
HETATM    1  C1  UNL     1      -8.445  11.901  69.283  1.00  0.00     0.679 A
HETATM    2  N2  UNL     1      -8.342  12.923  70.054  1.00  0.00    -0.171 N
ATOM      3  H2  UNL     1      -7.687  13.665  69.810  1.00  0.00     0.186 HD
HETATM    4  C2  UNL     1      -9.129  13.048  71.255  1.00  0.00     0.161 A
HETATM    5  C6  UNL     1     -10.008  12.003  71.451  1.00  0.00     0.105 A
HETATM    6  C7  UNL     1     -10.055  10.961  70.546  1.00  0.00     0.121 A
HETATM    7  N8  UNL     1      -9.275  10.876  69.462  1.00  0.00    -0.177 N
ATOM      8  H8  UNL     1      -9.315  10.085  68.820  1.00  0.00     0.185 HD
ENDROOT
BRANCH   6   9
HETATM    9  N4  UNL     1     -11.158  10.272  70.605  1.00  0.00    -0.375 N
ATOM     10  H4  UNL     1     -11.283   9.576  69.871  1.00  0.00     0.161 HD
BRANCH   9  11
HETATM   11  C8  UNL     1     -12.206  10.359  71.553  1.00  0.00     0.137 C
BRANCH  11  12
HETATM   12  C9  UNL     1     -12.140   9.258  72.566  1.00  0.00     0.129 C
BRANCH  12  13
HETATM   13  N5  UNL     1     -11.209   8.193  72.521  1.00  0.00    -0.232 NA
HETATM   14  C10 UNL     1     -10.443   8.078  73.760  1.00  0.00     0.111 C
HETATM   15  C11 UNL     1     -11.507   8.112  74.805  1.00  0.00     0.047 C
HETATM   16  C12 UNL     1     -12.455   7.154  74.170  1.00  0.00     0.183 C
HETATM   17  N7  UNL     1     -12.139   7.034  72.767  1.00  0.00    -0.151 NA
BRANCH  16  18
HETATM   18  C13 UNL     1     -12.751   5.940  74.900  1.00  0.00     0.251 C
HETATM   19  N6  UNL     1     -13.913   5.908  75.768  1.00  0.00    -0.061 NA
HETATM   20  O2  UNL     1     -12.039   4.907  74.856  1.00  0.00    -0.275 OA
ENDBRANCH  16  18
ENDBRANCH  12  13
ENDBRANCH  11  12
ENDBRANCH   9  11
ENDBRANCH   6   9
BRANCH   4  21
HETATM   21  O1  UNL     1      -8.770  14.107  71.943  1.00  0.00    -0.335 OA
BRANCH  21  22
HETATM   22  C3  UNL     1      -8.466  15.115  72.609  1.00  0.00     0.179 C
BRANCH  22  23
HETATM   23  C4  UNL     1      -7.490  16.156  72.243  1.00  0.00     0.054 C
BRANCH  23  24
HETATM   24  C5  UNL     1      -6.182  15.498  71.812  1.00  0.00     0.231 C
BRANCH  24  25
HETATM   25  N3  UNL     1      -6.059  15.240  70.448  1.00  0.00    -0.079 N
ATOM     26  H33 UNL     1      -6.501  15.986  69.911  1.00  0.00     0.274 HD
ATOM     27  H32 UNL     1      -5.089  15.359  70.157  1.00  0.00     0.274 HD
ATOM     28  H31 UNL     1      -6.408  14.333  70.137  1.00  0.00     0.274 HD
ENDBRANCH  24  25
ENDBRANCH  23  24
ENDBRANCH  22  23
ENDBRANCH  21  22
ENDBRANCH   4  21
BRANCH   1  29
HETATM   29  N1  UNL     1      -7.832  11.944  68.064  1.00  0.00    -0.234 N
ATOM     30  H12 UNL     1      -8.455  12.088  67.270  1.00  0.00     0.174 HD
ATOM     31  H11 UNL     1      -6.813  11.997  68.036  1.00  0.00     0.174 HD
ENDBRANCH   1  29
TORSDOF 11
ENDMDL