MODEL 3
REMARK VINA RESULT: -8.389093331      1.649      2.490
REMARK  8 active torsions:
REMARK  status: ('A' for Active; 'I' for Inactive)
REMARK    1  A    between atoms: C2_2  and  C3_3
REMARK    2  A    between atoms: C3_3  and  O1_4
REMARK    3  A    between atoms: C3_3  and  C4_6
REMARK    4  A    between atoms: C3_3  and  C24_30
REMARK    5  A    between atoms: C5_7  and  C6_8
REMARK    6  A    between atoms: C6_8  and  N1_9
REMARK    7  A    between atoms: N1_9  and  C7_10
REMARK    8  A    between atoms: C11_14  and  O2_15
ROOT
HETATM    1  N1  UNL     1     -18.477 -36.831   1.856  1.00  0.00    -0.035 N
HETATM    2  C9  UNL     1     -17.142 -36.663   1.390  1.00  0.00     0.243 C
HETATM    3  C10 UNL     1     -16.160 -35.912   2.207  1.00  0.00     0.066 C
HETATM    4  C11 UNL     1     -15.443 -36.686   3.252  1.00  0.00     0.064 C
HETATM    5  C12 UNL     1     -15.583 -35.954   4.561  1.00  0.00     0.066 C
HETATM    6  C13 UNL     1     -16.899 -35.522   4.962  1.00  0.00     0.001 C
HETATM    7  C14 UNL     1     -18.111 -36.316   4.877  1.00  0.00     0.201 C
HETATM    8  N2  UNL     1     -18.229 -37.611   4.262  1.00  0.00    -0.018 N
HETATM    9  C15 UNL     1     -19.272 -38.275   5.095  1.00  0.00     0.245 C
HETATM   10  C16 UNL     1     -19.270 -39.622   5.516  1.00  0.00     0.028 C
HETATM   11  C17 UNL     1     -20.520 -40.380   4.993  1.00  0.00     0.002 C
HETATM   12  C18 UNL     1     -20.019 -41.035   3.696  1.00  0.00     0.000 C
HETATM   13  C19 UNL     1     -20.000 -39.939   2.691  1.00  0.00     0.004 C
HETATM   14  C20 UNL     1     -18.713 -39.179   2.553  1.00  0.00     0.064 C
HETATM   15  C21 UNL     1     -18.742 -37.704   2.933  1.00  0.00     0.397 C
HETATM   16  C22 UNL     1     -16.968 -38.248   4.517  1.00  0.00     0.248 C
HETATM   17  C23 UNL     1     -15.890 -38.081   3.496  1.00  0.00     0.066 C
ENDROOT
BRANCH   1  18
HETATM   18  C6  UNL     1     -19.173 -37.341   0.668  1.00  0.00     0.267 C
BRANCH  18  19
HETATM   19  C5  UNL     1     -18.916 -36.632  -0.613  1.00  0.00     0.000 C
HETATM   20  C4  UNL     1     -18.370 -37.227  -1.679  1.00  0.00     0.018 C
BRANCH  20  21
HETATM   21  C3  UNL     1     -18.099 -36.570  -2.958  1.00  0.00     0.153 C
BRANCH  21  22
HETATM   22  C2  UNL     1     -18.539 -37.428  -4.128  1.00  0.00     0.047 C
HETATM   23  C1  UNL     1     -19.309 -38.638  -3.717  1.00  0.00     0.009 C
ENDBRANCH  21  22
BRANCH  21  24
HETATM   24  O1  UNL     1     -18.873 -35.399  -3.031  1.00  0.00    -0.376 OA
ATOM     25  H1  UNL     1     -19.739 -35.643  -2.727  1.00  0.00     0.211 HD
ENDBRANCH  21  24
BRANCH  21  26
HETATM   26  C24 UNL     1     -16.685 -36.242  -3.182  1.00  0.00     0.269 C
HETATM   27  N3  UNL     1     -16.124 -36.355  -4.465  1.00  0.00    -0.059 NA
HETATM   28  O3  UNL     1     -15.977 -35.862  -2.238  1.00  0.00    -0.273 OA
ENDBRANCH  21  26
ENDBRANCH  20  21
ENDBRANCH  18  19
ENDBRANCH   1  18
BRANCH   1  29
HETATM   29  C7  UNL     1     -19.054 -35.500   1.941  1.00  0.00     0.236 C
HETATM   30  C8  UNL     1     -20.484 -35.443   2.391  1.00  0.00     0.035 C
ENDBRANCH   1  29
BRANCH   4  31
HETATM   31  O2  UNL     1     -14.038 -36.702   3.023  1.00  0.00    -0.389 OA
ATOM     32  H2  UNL     1     -13.700 -35.829   2.861  1.00  0.00     0.210 HD
ENDBRANCH   4  31
TORSDOF 8
ENDMDL