MODEL 1
REMARK VINA RESULT: -7.467902420      0.000      0.000
REMARK  8 active torsions:
REMARK  status: ('A' for Active; 'I' for Inactive)
REMARK    1  A    between atoms: C2_2  and  N1_3
REMARK       I    between atoms: N2_8  and  C7_9
REMARK    2  A    between atoms: C7_9  and  C8_11
REMARK    3  A    between atoms: C8_11  and  N3_12
REMARK    4  A    between atoms: C8_11  and  C17_27
REMARK       I    between atoms: N3_12  and  C9_14
REMARK       I    between atoms: C9_14  and  N4_16
REMARK    5  A    between atoms: N4_16  and  C10_18
REMARK    6  A    between atoms: C10_18  and  C11_19
REMARK    7  A    between atoms: C10_18  and  C14_22
REMARK    8  A    between atoms: C14_22  and  O3_25
ROOT
HETATM    1  C8  UNL     1     -20.836 -39.687   0.956  1.00  0.00     0.185 C
ENDROOT
BRANCH   1   2
HETATM    2  C7  UNL     1     -21.338 -39.361   2.282  1.00  0.00     0.243 C
HETATM    3  N2  UNL     1     -21.381 -40.186   3.421  1.00  0.00    -0.349 N
HETATM    4  C6  UNL     1     -20.852 -41.520   3.329  1.00  0.00     0.127 C
HETATM    5  C21 UNL     1     -21.971 -39.633   4.638  1.00  0.00     0.154 C
HETATM    6  C5  UNL     1     -20.199 -41.869   4.673  1.00  0.00     0.048 C
HETATM    7  C4  UNL     1     -19.379 -40.715   5.111  1.00  0.00     0.238 C
HETATM    8  N1  UNL     1     -19.989 -39.856   6.078  1.00  0.00    -0.070 N
HETATM    9  C3  UNL     1     -18.918 -39.026   6.641  1.00  0.00     0.272 C
HETATM   10  C22 UNL     1     -20.945 -38.970   5.494  1.00  0.00     0.256 C
HETATM   11  O1  UNL     1     -21.801 -38.161   2.441  1.00  0.00    -0.271 OA
BRANCH   8  12
HETATM   12  C2  UNL     1     -20.632 -40.608   7.152  1.00  0.00     0.232 C
HETATM   13  C1  UNL     1     -20.998 -39.704   8.310  1.00  0.00     0.035 C
ENDBRANCH   8  12
ENDBRANCH   1   2
BRANCH   1  14
HETATM   14  N3  UNL     1     -20.502 -38.398   0.298  1.00  0.00    -0.329 N
HETATM   15  C9  UNL     1     -19.187 -38.089  -0.072  1.00  0.00     0.317 C
HETATM   16  O2  UNL     1     -18.240 -38.881   0.135  1.00  0.00    -0.247 OA
HETATM   17  N4  UNL     1     -18.910 -36.861  -0.692  1.00  0.00    -0.335 N
ATOM     18  H4  UNL     1     -19.679 -36.213  -0.862  1.00  0.00     0.164 HD
ATOM     19  H3  UNL     1     -21.245 -37.724   0.111  1.00  0.00     0.165 HD
BRANCH  17  20
HETATM   20  C10 UNL     1     -17.550 -36.472  -1.107  1.00  0.00     0.123 C
BRANCH  20  21
HETATM   21  C11 UNL     1     -17.174 -35.328  -0.229  1.00  0.00     0.003 C
HETATM   22  C12 UNL     1     -18.035 -35.466   1.038  1.00  0.00     0.011 C
HETATM   23  C13 UNL     1     -15.758 -35.305   0.248  1.00  0.00     0.011 C
ENDBRANCH  20  21
BRANCH  20  24
HETATM   24  C14 UNL     1     -17.629 -36.197  -2.567  1.00  0.00     0.071 C
HETATM   25  C15 UNL     1     -18.152 -34.824  -2.922  1.00  0.00     0.047 C
HETATM   26  C16 UNL     1     -18.349 -37.285  -3.336  1.00  0.00     0.047 C
BRANCH  24  27
HETATM   27  O3  UNL     1     -16.293 -36.218  -3.040  1.00  0.00    -0.389 OA
ATOM     28  H3  UNL     1     -16.218 -35.486  -3.642  1.00  0.00     0.210 HD
ENDBRANCH  24  27
ENDBRANCH  20  24
ENDBRANCH  17  20
ENDBRANCH   1  14
BRANCH   1  29
HETATM   29  C17 UNL     1     -21.848 -40.370   0.057  1.00  0.00    -0.022 C
HETATM   30  C18 UNL     1     -21.300 -41.629  -0.527  1.00  0.00     0.017 C
HETATM   31  C19 UNL     1     -23.167 -40.601   0.745  1.00  0.00     0.017 C
HETATM   32  C20 UNL     1     -22.108 -39.411  -1.108  1.00  0.00     0.017 C
ENDBRANCH   1  29
TORSDOF 8
ENDMDL