MODEL 5
REMARK VINA RESULT: -7.780855324      1.888      6.468
REMARK  7 active torsions:
REMARK  status: ('A' for Active; 'I' for Inactive)
REMARK    1  A    between atoms: C2_2  and  N1_4
REMARK       I    between atoms: N1_4  and  C4_6
REMARK    2  A    between atoms: C4_6  and  C5_8
REMARK       I    between atoms: N2_13  and  C10_14
REMARK    3  A    between atoms: C10_14  and  C11_16
REMARK    4  A    between atoms: C11_16  and  C12_17
REMARK    5  A    between atoms: C11_16  and  N3_22
REMARK    6  A    between atoms: C12_17  and  C13_18
REMARK       I    between atoms: N3_22  and  C17_24
REMARK       I    between atoms: C17_24  and  N4_26
REMARK    7  A    between atoms: N4_26  and  C18_28
ROOT
HETATM    1  C11 UNL     1     -16.735 -36.748   3.708  1.00  0.00     0.179 C
ENDROOT
BRANCH   1   2
HETATM    2  C10 UNL     1     -17.483 -38.033   3.533  1.00  0.00     0.243 C
HETATM    3  N2  UNL     1     -18.817 -38.195   4.056  1.00  0.00    -0.332 N
HETATM    4  C5  UNL     1     -19.629 -39.362   3.921  1.00  0.00     0.180 C
HETATM    5  C9  UNL     1     -19.562 -37.202   4.778  1.00  0.00     0.092 A
HETATM    6  C6  UNL     1     -20.877 -39.185   4.715  1.00  0.00     0.042 C
HETATM    7  C7  UNL     1     -20.872 -37.745   5.131  1.00  0.00     0.013 A
HETATM    8  C8  UNL     1     -19.926 -37.315   6.193  1.00  0.00     0.032 A
HETATM    9  O2  UNL     1     -17.006 -39.027   2.921  1.00  0.00    -0.271 OA
BRANCH   4  10
HETATM   10  C4  UNL     1     -19.961 -39.664   2.505  1.00  0.00     0.241 C
HETATM   11  N1  UNL     1     -19.776 -38.688   1.503  1.00  0.00    -0.355 N
ATOM     12  H1  UNL     1     -19.407 -37.778   1.777  1.00  0.00     0.162 HD
HETATM   13  O1  UNL     1     -20.408 -40.794   2.223  1.00  0.00    -0.271 OA
BRANCH  11  14
HETATM   14  C2  UNL     1     -20.081 -38.910   0.107  1.00  0.00     0.076 C
HETATM   15  C1  UNL     1     -21.068 -37.956  -0.467  1.00  0.00     0.032 C
HETATM   16  C3  UNL     1     -18.826 -38.875  -0.744  1.00  0.00     0.032 C
ENDBRANCH  11  14
ENDBRANCH   4  10
ENDBRANCH   1   2
BRANCH   1  17
HETATM   17  C12 UNL     1     -15.674 -36.953   4.724  1.00  0.00     0.043 C
BRANCH  17  18
HETATM   18  C13 UNL     1     -15.506 -35.861   5.738  1.00  0.00    -0.049 C
HETATM   19  C14 UNL     1     -16.739 -35.029   5.953  1.00  0.00     0.014 C
HETATM   20  C15 UNL     1     -15.289 -36.604   7.072  1.00  0.00     0.014 C
HETATM   21  C16 UNL     1     -14.333 -34.973   5.567  1.00  0.00     0.014 C
ENDBRANCH  17  18
ENDBRANCH   1  17
BRANCH   1  22
HETATM   22  N3  UNL     1     -16.023 -36.602   2.405  1.00  0.00    -0.330 N
HETATM   23  C17 UNL     1     -16.644 -35.968   1.319  1.00  0.00     0.317 C
HETATM   24  O3  UNL     1     -17.826 -35.492   1.383  1.00  0.00    -0.247 OA
HETATM   25  N4  UNL     1     -15.974 -35.829   0.086  1.00  0.00    -0.339 N
ATOM     26  H4  UNL     1     -15.022 -36.188   0.000  1.00  0.00     0.164 HD
ATOM     27  H3  UNL     1     -15.076 -36.967   2.303  1.00  0.00     0.165 HD
BRANCH  25  28
HETATM   28  C18 UNL     1     -16.591 -35.195  -1.069  1.00  0.00     0.086 C
HETATM   29  C19 UNL     1     -15.809 -34.081  -1.656  1.00  0.00     0.025 C
HETATM   30  C20 UNL     1     -16.432 -33.626  -2.939  1.00  0.00     0.002 C
HETATM   31  C21 UNL     1     -17.821 -34.154  -3.048  1.00  0.00     0.000 C
HETATM   32  C22 UNL     1     -17.848 -35.669  -3.117  1.00  0.00     0.002 C
HETATM   33  C23 UNL     1     -17.013 -36.269  -2.036  1.00  0.00     0.025 C
ENDBRANCH  25  28
ENDBRANCH   1  22
TORSDOF 7
ENDMDL