MODEL 2
REMARK VINA RESULT: -8.146950260      2.006      2.370
REMARK  6 active torsions:
REMARK  status: ('A' for Active; 'I' for Inactive)
REMARK    1  A    between atoms: C2_2  and  C3_3
REMARK    2  A    between atoms: C3_3  and  N1_6
REMARK       I    between atoms: N1_6  and  C6_8
REMARK       I    between atoms: C6_8  and  N2_10
REMARK    3  A    between atoms: N2_10  and  C7_12
REMARK    4  A    between atoms: C7_12  and  C8_13
REMARK       I    between atoms: C8_13  and  N3_15
REMARK    5  A    between atoms: N3_15  and  C9_17
REMARK    6  A    between atoms: C9_17  and  C10_18
REMARK       I    between atoms: C10_18  and  N4_20
ROOT
HETATM    1  C8  UNL     1     -20.059 -39.318   3.163  1.00  0.00     0.246 C
HETATM    2  O2  UNL     1     -20.974 -38.667   3.716  1.00  0.00    -0.271 OA
HETATM    3  N3  UNL     1     -19.934 -39.458   1.775  1.00  0.00    -0.350 N
ATOM      4  H3  UNL     1     -19.165 -40.008   1.392  1.00  0.00     0.163 HD
ENDROOT
BRANCH   1   5
HETATM    5  C7  UNL     1     -19.065 -39.966   4.096  1.00  0.00     0.115 C
HETATM    6  C20 UNL     1     -19.280 -39.462   5.511  1.00  0.00     0.041 C
HETATM    7  C21 UNL     1     -19.877 -40.571   6.312  1.00  0.00     0.003 C
HETATM    8  C22 UNL     1     -19.861 -41.802   5.464  1.00  0.00     0.003 C
HETATM    9  C23 UNL     1     -19.286 -41.440   4.119  1.00  0.00     0.041 C
BRANCH   5  10
HETATM   10  N2  UNL     1     -17.751 -39.549   3.702  1.00  0.00    -0.325 N
HETATM   11  C6  UNL     1     -17.355 -38.190   3.806  1.00  0.00     0.318 C
HETATM   12  N1  UNL     1     -16.056 -37.826   3.349  1.00  0.00    -0.331 N
HETATM   13  O1  UNL     1     -18.117 -37.311   4.286  1.00  0.00    -0.247 OA
ATOM     14  H1  UNL     1     -15.453 -38.543   2.943  1.00  0.00     0.165 HD
ATOM     15  H2  UNL     1     -17.092 -40.239   3.342  1.00  0.00     0.165 HD
BRANCH  12  16
HETATM   16  C3  UNL     1     -15.570 -36.473   3.445  1.00  0.00     0.044 C
HETATM   17  C4  UNL     1     -16.052 -35.794   4.703  1.00  0.00     0.042 C
HETATM   18  C5  UNL     1     -14.056 -36.424   3.440  1.00  0.00     0.042 C
BRANCH  16  19
HETATM   19  C2  UNL     1     -16.078 -35.755   2.228  1.00  0.00    -0.007 C
HETATM   20  C1  UNL     1     -15.171 -35.328   1.326  1.00  0.00     0.009 C
ENDBRANCH  16  19
ENDBRANCH  12  16
ENDBRANCH   5  10
ENDBRANCH   1   5
BRANCH   3  21
HETATM   21  C9  UNL     1     -20.875 -38.836   0.885  1.00  0.00     0.225 C
BRANCH  21  22
HETATM   22  C10 UNL     1     -20.541 -39.017  -0.540  1.00  0.00     0.237 C
HETATM   23  O3  UNL     1     -20.549 -40.124  -1.130  1.00  0.00    -0.272 OA
HETATM   24  N4  UNL     1     -20.188 -37.889  -1.313  1.00  0.00    -0.351 N
HETATM   25  C11 UNL     1     -19.891 -37.928  -2.721  1.00  0.00     0.126 C
HETATM   26  C19 UNL     1     -20.092 -36.585  -0.671  1.00  0.00     0.126 C
HETATM   27  C12 UNL     1     -19.247 -36.684  -3.237  1.00  0.00     0.029 C
HETATM   28  C13 UNL     1     -18.277 -36.042  -2.300  1.00  0.00    -0.037 C
HETATM   29  C14 UNL     1     -16.896 -36.616  -2.524  1.00  0.00     0.010 C
HETATM   30  C17 UNL     1     -18.068 -34.576  -2.605  1.00  0.00     0.010 C
HETATM   31  C18 UNL     1     -18.618 -36.186  -0.852  1.00  0.00     0.029 C
HETATM   32  C15 UNL     1     -15.983 -35.597  -1.929  1.00  0.00     0.001 C
HETATM   33  C16 UNL     1     -16.685 -34.288  -2.078  1.00  0.00     0.001 C
ENDBRANCH  21  22
ENDBRANCH   3  21
TORSDOF 6
ENDMDL