MODEL 5
REMARK VINA RESULT: -7.739361459      1.667      5.589
REMARK  8 active torsions:
REMARK  status: ('A' for Active; 'I' for Inactive)
REMARK    1  A    between atoms: C2_2  and  C5_5
REMARK    2  A    between atoms: C5_5  and  N1_6
REMARK    3  A    between atoms: C5_5  and  C13_18
REMARK       I    between atoms: N1_6  and  C6_8
REMARK       I    between atoms: C6_8  and  N2_10
REMARK    4  A    between atoms: N2_10  and  C7_12
REMARK    5  A    between atoms: C13_18  and  C14_20
REMARK    6  A    between atoms: C14_20  and  N3_21
REMARK    7  A    between atoms: C17_24  and  N4_25
REMARK    8  A    between atoms: C22_30  and  N5_31
ROOT
HETATM    1  C13 UNL     1     -16.331 -35.732  -1.044  1.00  0.00     0.178 C
HETATM    2  O2  UNL     1     -15.580 -36.439  -1.751  1.00  0.00    -0.294 OA
ENDROOT
BRANCH   1   3
HETATM    3  C5  UNL     1     -17.757 -35.607  -1.391  1.00  0.00     0.165 C
BRANCH   3   4
HETATM    4  C2  UNL     1     -17.796 -35.272  -2.886  1.00  0.00    -0.024 C
HETATM    5  C1  UNL     1     -19.219 -34.950  -3.289  1.00  0.00     0.017 C
HETATM    6  C3  UNL     1     -17.346 -36.474  -3.702  1.00  0.00     0.017 C
HETATM    7  C4  UNL     1     -16.940 -34.106  -3.263  1.00  0.00     0.017 C
ENDBRANCH   3   4
BRANCH   3   8
HETATM    8  N1  UNL     1     -18.465 -36.750  -1.002  1.00  0.00    -0.331 N
HETATM    9  C6  UNL     1     -19.491 -37.150  -0.174  1.00  0.00     0.317 C
HETATM   10  O1  UNL     1     -20.212 -36.457   0.528  1.00  0.00    -0.247 OA
HETATM   11  N2  UNL     1     -19.817 -38.596  -0.060  1.00  0.00    -0.339 N
ATOM     12  H2  UNL     1     -19.237 -39.278  -0.549  1.00  0.00     0.164 HD
ATOM     13  H1  UNL     1     -18.097 -37.561  -1.500  1.00  0.00     0.165 HD
BRANCH  11  14
HETATM   14  C7  UNL     1     -20.922 -39.051   0.717  1.00  0.00     0.086 C
HETATM   15  C8  UNL     1     -20.620 -39.353   2.171  1.00  0.00     0.025 C
HETATM   16  C9  UNL     1     -21.986 -39.490   2.832  1.00  0.00     0.002 C
HETATM   17  C10 UNL     1     -22.684 -40.691   2.288  1.00  0.00     0.000 C
HETATM   18  C11 UNL     1     -22.844 -40.577   0.806  1.00  0.00     0.002 C
HETATM   19  C12 UNL     1     -21.593 -40.241   0.059  1.00  0.00     0.025 C
ENDBRANCH  11  14
ENDBRANCH   3   8
ENDBRANCH   1   3
BRANCH   1  20
HETATM   20  C14 UNL     1     -15.689 -35.077   0.098  1.00  0.00     0.352 C
BRANCH  20  21
HETATM   21  N3  UNL     1     -15.828 -35.835   1.326  1.00  0.00     0.097 N
HETATM   22  C15 UNL     1     -14.711 -35.428   2.170  1.00  0.00     0.275 C
HETATM   23  C16 UNL     1     -14.641 -36.383   3.345  1.00  0.00     0.066 C
HETATM   24  C17 UNL     1     -15.967 -36.217   4.080  1.00  0.00     0.223 C
HETATM   25  C22 UNL     1     -17.120 -36.573   3.196  1.00  0.00     0.242 C
HETATM   26  C23 UNL     1     -17.045 -35.562   2.030  1.00  0.00     0.307 C
BRANCH  24  27
HETATM   27  N4  UNL     1     -15.957 -36.764   5.389  1.00  0.00    -0.064 N
HETATM   28  C18 UNL     1     -14.811 -37.669   5.552  1.00  0.00     0.273 C
HETATM   29  C19 UNL     1     -17.109 -37.332   5.973  1.00  0.00     0.239 C
HETATM   30  C20 UNL     1     -16.569 -36.863   7.347  1.00  0.00     0.056 C
HETATM   31  C21 UNL     1     -15.938 -35.797   6.474  1.00  0.00     0.239 C
ENDBRANCH  24  27
BRANCH  25  32
HETATM   32  N5  UNL     1     -17.043 -37.862   2.594  1.00  0.00    -0.071 N
ATOM     33  H53 UNL     1     -17.580 -37.876   1.727  1.00  0.00     0.274 HD
ATOM     34  H52 UNL     1     -16.105 -38.022   2.225  1.00  0.00     0.274 HD
ATOM     35  H51 UNL     1     -17.322 -38.638   3.194  1.00  0.00     0.274 HD
ENDBRANCH  25  32
ENDBRANCH  20  21
ENDBRANCH   1  20
TORSDOF 8
ENDMDL