MODEL 3
REMARK VINA RESULT: -8.514165814      2.696      5.898
REMARK  6 active torsions:
REMARK  status: ('A' for Active; 'I' for Inactive)
REMARK       I    between atoms: N1_2  and  C2_4
REMARK    1  A    between atoms: C2_4  and  C3_6
REMARK       I    between atoms: C3_6  and  N2_8
REMARK    2  A    between atoms: N2_8  and  C4_10
REMARK    3  A    between atoms: N3_13  and  C7_14
REMARK    4  A    between atoms: C7_14  and  C8_15
REMARK       I    between atoms: C8_15  and  N4_17
REMARK    5  A    between atoms: N4_17  and  C9_19
REMARK    6  A    between atoms: C9_19  and  C10_20
ROOT
HETATM    1  C8  UNL     1     -20.930 -39.393  -0.349  1.00  0.00     0.235 C
HETATM    2  O3  UNL     1     -22.025 -39.269  -0.984  1.00  0.00    -0.272 OA
HETATM    3  N4  UNL     1     -19.817 -38.538  -0.606  1.00  0.00    -0.359 N
ATOM      4  H4  UNL     1     -18.941 -38.645  -0.094  1.00  0.00     0.162 HD
ENDROOT
BRANCH   1   5
HETATM    5  C7  UNL     1     -20.872 -40.471   0.671  1.00  0.00     0.219 C
BRANCH   5   6
HETATM    6  N3  UNL     1     -21.237 -40.060   1.971  1.00  0.00    -0.404 N
HETATM    7  C6  UNL     1     -20.919 -40.941   3.028  1.00  0.00     0.119 C
HETATM    8  C5  UNL     1     -19.580 -40.650   3.661  1.00  0.00     0.044 C
HETATM    9  C4  UNL     1     -19.109 -39.266   3.307  1.00  0.00     0.087 C
HETATM   10  C23 UNL     1     -20.286 -38.295   3.345  1.00  0.00     0.044 C
HETATM   11  C22 UNL     1     -21.241 -38.671   2.238  1.00  0.00     0.119 C
BRANCH   9  12
HETATM   12  N2  UNL     1     -18.111 -38.858   4.250  1.00  0.00    -0.348 N
HETATM   13  C3  UNL     1     -17.009 -38.077   3.792  1.00  0.00     0.309 C
HETATM   14  O2  UNL     1     -16.901 -37.748   2.599  1.00  0.00    -0.262 OA
ATOM     15  H2  UNL     1     -18.186 -39.122   5.232  1.00  0.00     0.163 HD
BRANCH  13  16
HETATM   16  C2  UNL     1     -15.992 -37.662   4.761  1.00  0.00     0.308 C
HETATM   17  N1  UNL     1     -16.221 -37.850   6.147  1.00  0.00    -0.357 N
HETATM   18  C1  UNL     1     -15.224 -37.442   7.109  1.00  0.00     0.149 C
ATOM     19  H1  UNL     1     -17.093 -38.273   6.466  1.00  0.00     0.162 HD
HETATM   20  O1  UNL     1     -14.913 -37.140   4.386  1.00  0.00    -0.262 OA
ENDBRANCH  13  16
ENDBRANCH   9  12
ENDBRANCH   5   6
ENDBRANCH   1   5
BRANCH   3  21
HETATM   21  C9  UNL     1     -19.970 -37.534  -1.601  1.00  0.00     0.132 C
BRANCH  21  22
HETATM   22  C10 UNL     1     -18.830 -36.510  -1.628  1.00  0.00    -0.024 C
HETATM   23  C11 UNL     1     -18.877 -35.832  -0.278  1.00  0.00     0.011 C
HETATM   24  C12 UNL     1     -17.519 -35.334   0.170  1.00  0.00     0.005 C
HETATM   25  C13 UNL     1     -16.759 -34.622  -0.906  1.00  0.00    -0.014 C
HETATM   26  C14 UNL     1     -17.585 -33.792  -1.808  1.00  0.00     0.009 C
HETATM   27  C19 UNL     1     -15.812 -35.558  -1.585  1.00  0.00     0.009 C
HETATM   28  C15 UNL     1     -18.160 -34.485  -3.005  1.00  0.00    -0.013 C
HETATM   29  C16 UNL     1     -17.081 -34.864  -3.997  1.00  0.00     0.005 C
HETATM   30  C21 UNL     1     -19.137 -35.552  -2.706  1.00  0.00     0.015 C
HETATM   31  C17 UNL     1     -16.669 -36.310  -3.831  1.00  0.00     0.005 C
HETATM   32  C18 UNL     1     -16.404 -36.651  -2.381  1.00  0.00    -0.013 C
HETATM   33  C20 UNL     1     -17.593 -37.322  -1.794  1.00  0.00     0.015 C
ENDBRANCH  21  22
ENDBRANCH   3  21
TORSDOF 6
ENDMDL