MODEL 4
REMARK VINA RESULT: -8.862516074      2.517      7.879
REMARK  5 active torsions:
REMARK  status: ('A' for Active; 'I' for Inactive)
REMARK    1  A    between atoms: C2_2  and  C4_4
REMARK    2  A    between atoms: C9_9  and  C10_10
REMARK       I    between atoms: C10_10  and  N1_12
REMARK    3  A    between atoms: N1_12  and  C11_14
REMARK    4  A    between atoms: C18_21  and  C19_22
REMARK    5  A    between atoms: C22_27  and  C23_28
ROOT
HETATM    1  C10 UNL     1     -19.249 -36.248   1.512  1.00  0.00     0.226 C
HETATM    2  O1  UNL     1     -18.291 -35.565   1.920  1.00  0.00    -0.273 OA
HETATM    3  N1  UNL     1     -19.440 -36.570   0.138  1.00  0.00    -0.355 N
ATOM      4  H1  UNL     1     -20.251 -37.134  -0.118  1.00  0.00     0.162 HD
ENDROOT
BRANCH   1   5
HETATM    5  C9  UNL     1     -20.226 -36.744   2.514  1.00  0.00     0.112 C
HETATM    6  C8  UNL     1     -21.306 -37.556   1.889  1.00  0.00     0.024 C
HETATM    7  C7  UNL     1     -21.678 -38.560   2.948  1.00  0.00    -0.005 C
HETATM    8  C6  UNL     1     -22.126 -39.869   2.336  1.00  0.00     0.006 C
HETATM    9  C24 UNL     1     -20.389 -38.865   3.675  1.00  0.00     0.029 C
HETATM   10  C5  UNL     1     -20.858 -40.600   2.119  1.00  0.00     0.006 C
HETATM   11  C4  UNL     1     -19.785 -40.000   2.989  1.00  0.00    -0.003 C
HETATM   12  C22 UNL     1     -19.697 -37.534   3.639  1.00  0.00     0.003 C
BRANCH  11  13
HETATM   13  C2  UNL     1     -19.349 -41.137   3.911  1.00  0.00    -0.018 C
HETATM   14  C1  UNL     1     -20.177 -42.369   3.520  1.00  0.00     0.010 C
HETATM   15  C3  UNL     1     -19.547 -40.825   5.351  1.00  0.00     0.010 C
ENDBRANCH  11  13
BRANCH  12  16
HETATM   16  C23 UNL     1     -18.271 -37.507   3.912  1.00  0.00     0.258 C
HETATM   17  N3  UNL     1     -17.755 -36.611   4.926  1.00  0.00    -0.058 NA
HETATM   18  O3  UNL     1     -17.369 -38.190   3.361  1.00  0.00    -0.272 OA
ENDBRANCH  12  16
ENDBRANCH   1   5
BRANCH   3  19
HETATM   19  C11 UNL     1     -18.548 -36.141  -0.912  1.00  0.00     0.092 C
HETATM   20  C12 UNL     1     -19.293 -35.651  -2.134  1.00  0.00     0.010 C
HETATM   21  C13 UNL     1     -19.824 -36.778  -2.980  1.00  0.00     0.011 C
HETATM   22  C21 UNL     1     -18.277 -34.915  -2.986  1.00  0.00     0.025 C
HETATM   23  C14 UNL     1     -18.753 -37.793  -3.277  1.00  0.00    -0.013 C
HETATM   24  C15 UNL     1     -18.037 -38.307  -2.071  1.00  0.00     0.011 C
HETATM   25  C20 UNL     1     -17.711 -37.076  -4.140  1.00  0.00     0.023 C
HETATM   26  C16 UNL     1     -17.498 -37.158  -1.252  1.00  0.00     0.010 C
HETATM   27  C17 UNL     1     -16.479 -36.445  -2.134  1.00  0.00     0.025 C
HETATM   28  C18 UNL     1     -17.186 -35.893  -3.363  1.00  0.00     0.040 C
BRANCH  28  29
HETATM   29  C19 UNL     1     -16.192 -35.158  -4.161  1.00  0.00     0.239 C
HETATM   30  N2  UNL     1     -15.736 -35.712  -5.379  1.00  0.00    -0.061 NA
HETATM   31  O2  UNL     1     -15.760 -34.058  -3.763  1.00  0.00    -0.276 OA
ENDBRANCH  28  29
ENDBRANCH   3  19
TORSDOF 5
ENDMDL