MODEL 1
REMARK VINA RESULT: -8.818685296      0.000      0.000
REMARK  6 active torsions:
REMARK  status: ('A' for Active; 'I' for Inactive)
REMARK       I    between atoms: C2_2  and  N1_4
REMARK    1  A    between atoms: N1_4  and  C3_6
REMARK    2  A    between atoms: C3_6  and  C4_7
REMARK    3  A    between atoms: C3_6  and  C8_11
REMARK    4  A    between atoms: C4_7  and  C5_8
REMARK       I    between atoms: C8_11  and  N2_13
REMARK    5  A    between atoms: C13_18  and  C14_19
REMARK       I    between atoms: C14_19  and  N3_21
REMARK    6  A    between atoms: N3_21  and  C15_23
ROOT
HETATM    1  C8  UNL     1     -18.528 -37.142  -0.181  1.00  0.00     0.267 C
HETATM    2  O2  UNL     1     -18.407 -38.360  -0.393  1.00  0.00    -0.266 OA
HETATM    3  N2  UNL     1     -18.400 -36.683   1.177  1.00  0.00    -0.334 N
HETATM    4  C9  UNL     1     -19.151 -35.487   1.566  1.00  0.00     0.127 C
HETATM    5  C10 UNL     1     -19.599 -35.561   3.025  1.00  0.00     0.020 C
HETATM    6  C11 UNL     1     -18.451 -35.850   3.931  1.00  0.00     0.004 C
HETATM    7  C12 UNL     1     -17.174 -35.994   3.135  1.00  0.00     0.035 C
HETATM    8  C13 UNL     1     -17.443 -37.141   2.081  1.00  0.00     0.179 C
ENDROOT
BRANCH   8   9
HETATM    9  C14 UNL     1     -17.518 -38.336   2.917  1.00  0.00     0.241 C
HETATM   10  O3  UNL     1     -16.633 -38.864   3.613  1.00  0.00    -0.271 OA
HETATM   11  N3  UNL     1     -18.812 -38.994   2.915  1.00  0.00    -0.354 N
ATOM     12  H3  UNL     1     -19.557 -38.541   2.385  1.00  0.00     0.162 HD
BRANCH  11  13
HETATM   13  C15 UNL     1     -19.140 -40.200   3.576  1.00  0.00     0.092 C
HETATM   14  C16 UNL     1     -20.228 -40.972   2.836  1.00  0.00     0.009 C
HETATM   15  C17 UNL     1     -21.561 -40.272   3.032  1.00  0.00     0.011 C
HETATM   16  C21 UNL     1     -20.342 -42.360   3.402  1.00  0.00     0.011 C
HETATM   17  C18 UNL     1     -21.897 -40.241   4.519  1.00  0.00    -0.013 C
HETATM   18  C19 UNL     1     -21.933 -41.623   5.068  1.00  0.00     0.009 C
HETATM   19  C24 UNL     1     -20.847 -39.397   5.220  1.00  0.00     0.011 C
HETATM   20  C20 UNL     1     -20.581 -42.303   4.905  1.00  0.00    -0.013 C
HETATM   21  C22 UNL     1     -19.543 -41.490   5.599  1.00  0.00     0.011 C
HETATM   22  C23 UNL     1     -19.527 -40.068   5.032  1.00  0.00     0.009 C
ENDBRANCH  11  13
ENDBRANCH   8   9
BRANCH   1  23
HETATM   23  C3  UNL     1     -18.789 -36.207  -1.320  1.00  0.00     0.080 C
BRANCH  23  24
HETATM   24  N1  UNL     1     -17.884 -35.211  -1.677  1.00  0.00    -0.326 N
HETATM   25  C2  UNL     1     -16.489 -35.224  -1.916  1.00  0.00     0.218 C
HETATM   26  C1  UNL     1     -15.840 -33.919  -2.293  1.00  0.00     0.117 C
HETATM   27  O1  UNL     1     -15.805 -36.244  -1.828  1.00  0.00    -0.274 OA
ATOM     28  H1  UNL     1     -18.310 -34.291  -1.789  1.00  0.00     0.168 HD
ENDBRANCH  23  24
BRANCH  23  29
HETATM   29  C4  UNL     1     -19.537 -36.961  -2.363  1.00  0.00     0.067 C
BRANCH  29  30
HETATM   30  C5  UNL     1     -18.789 -37.936  -3.191  1.00  0.00    -0.017 C
HETATM   31  C6  UNL     1     -19.495 -39.239  -3.461  1.00  0.00     0.010 C
HETATM   32  C7  UNL     1     -18.055 -37.397  -4.383  1.00  0.00     0.010 C
ENDBRANCH  29  30
ENDBRANCH  23  29
ENDBRANCH   1  23
TORSDOF 6
ENDMDL