MODEL 4
REMARK VINA RESULT: -8.746089756      2.056      3.064
REMARK  6 active torsions:
REMARK  status: ('A' for Active; 'I' for Inactive)
REMARK    1  A    between atoms: C2_2  and  C4_4
REMARK    2  A    between atoms: C4_4  and  N1_5
REMARK    3  A    between atoms: C4_4  and  C18_25
REMARK       I    between atoms: N1_5  and  C5_7
REMARK    4  A    between atoms: C5_7  and  C6_9
REMARK       I    between atoms: N2_15  and  C12_16
REMARK       I    between atoms: C12_16  and  N3_18
REMARK    5  A    between atoms: N3_18  and  C13_20
REMARK       I    between atoms: C18_25  and  N4_27
REMARK    6  A    between atoms: N4_27  and  C19_29
ROOT
HETATM    1  N1  UNL     1     -18.145 -36.878   0.364  1.00  0.00    -0.347 N
ATOM      2  H1  UNL     1     -17.445 -37.621   0.386  1.00  0.00     0.163 HD
HETATM    3  C5  UNL     1     -18.559 -36.293   1.572  1.00  0.00     0.224 C
HETATM    4  O1  UNL     1     -19.433 -35.358   1.547  1.00  0.00    -0.273 OA
ENDROOT
BRANCH   3   5
HETATM    5  C6  UNL     1     -18.006 -36.744   2.840  1.00  0.00     0.103 C
HETATM    6  C7  UNL     1     -17.168 -38.006   2.763  1.00  0.00     0.041 C
HETATM    7  C8  UNL     1     -15.984 -37.758   3.677  1.00  0.00     0.090 C
HETATM    8  C9  UNL     1     -14.980 -36.986   2.839  1.00  0.00     0.027 C
HETATM    9  N2  UNL     1     -16.482 -36.667   4.487  1.00  0.00    -0.324 N
HETATM   10  C10 UNL     1     -15.795 -35.714   2.548  1.00  0.00     0.028 C
HETATM   11  C11 UNL     1     -16.996 -35.790   3.450  1.00  0.00     0.102 C
HETATM   12  C12 UNL     1     -16.459 -36.529   5.870  1.00  0.00     0.319 C
HETATM   13  O2  UNL     1     -15.945 -37.466   6.566  1.00  0.00    -0.247 OA
HETATM   14  N3  UNL     1     -16.987 -35.381   6.549  1.00  0.00    -0.338 N
ATOM     15  H3  UNL     1     -17.394 -34.640   5.979  1.00  0.00     0.164 HD
BRANCH  14  16
HETATM   16  C13 UNL     1     -16.983 -35.200   7.965  1.00  0.00     0.086 C
HETATM   17  C14 UNL     1     -18.337 -35.460   8.553  1.00  0.00     0.025 C
HETATM   18  C15 UNL     1     -18.901 -34.197   9.100  1.00  0.00     0.002 C
HETATM   19  C16 UNL     1     -17.936 -33.130   8.692  1.00  0.00     0.002 C
HETATM   20  C17 UNL     1     -16.618 -33.787   8.373  1.00  0.00     0.025 C
ENDBRANCH  14  16
ENDBRANCH   3   5
BRANCH   1  21
HETATM   21  C4  UNL     1     -18.693 -36.448  -0.940  1.00  0.00     0.180 C
BRANCH  21  22
HETATM   22  C2  UNL     1     -19.577 -37.601  -1.369  1.00  0.00     0.009 C
HETATM   23  C1  UNL     1     -18.879 -38.927  -1.100  1.00  0.00     0.012 C
HETATM   24  C3  UNL     1     -20.898 -37.666  -0.679  1.00  0.00     0.012 C
ENDBRANCH  21  22
BRANCH  21  25
HETATM   25  C18 UNL     1     -17.547 -36.381  -1.888  1.00  0.00     0.241 C
HETATM   26  O3  UNL     1     -16.378 -36.316  -1.398  1.00  0.00    -0.271 OA
HETATM   27  N4  UNL     1     -17.668 -36.382  -3.297  1.00  0.00    -0.355 N
ATOM     28  H4  UNL     1     -18.589 -36.431  -3.732  1.00  0.00     0.162 HD
BRANCH  27  29
HETATM   29  C19 UNL     1     -16.490 -36.314  -4.112  1.00  0.00     0.084 C
HETATM   30  C20 UNL     1     -16.526 -37.264  -5.300  1.00  0.00     0.025 C
HETATM   31  C21 UNL     1     -15.363 -36.736  -6.130  1.00  0.00     0.002 C
HETATM   32  C22 UNL     1     -15.348 -35.253  -5.876  1.00  0.00     0.002 C
HETATM   33  C23 UNL     1     -16.344 -34.970  -4.798  1.00  0.00     0.025 C
ENDBRANCH  27  29
ENDBRANCH  21  25
ENDBRANCH   1  21
TORSDOF 6
ENDMDL