MODEL 5
REMARK VINA RESULT: -7.864384350      1.535      5.479
REMARK  7 active torsions:
REMARK  status: ('A' for Active; 'I' for Inactive)
REMARK    1  A    between atoms: C2_2  and  N1_4
REMARK    2  A    between atoms: N1_4  and  C4_6
REMARK    3  A    between atoms: C4_6  and  C6_8
REMARK       I    between atoms: C6_8  and  N2_10
REMARK    4  A    between atoms: N2_10  and  C7_12
REMARK    5  A    between atoms: C13_18  and  N3_19
REMARK       I    between atoms: N3_19  and  C14_21
REMARK    6  A    between atoms: C14_21  and  C15_23
REMARK    7  A    between atoms: C15_23  and  N4_24
ROOT
HETATM    1  C7  UNL     1     -17.562 -37.576   1.503  1.00  0.00     0.116 C
HETATM    2  C8  UNL     1     -17.505 -38.456   2.703  1.00  0.00     0.012 C
HETATM    3  C9  UNL     1     -16.221 -38.412   3.473  1.00  0.00     0.011 C
HETATM    4  C10 UNL     1     -16.027 -37.217   4.323  1.00  0.00    -0.014 C
HETATM    5  C11 UNL     1     -15.446 -36.022   3.598  1.00  0.00     0.007 C
HETATM    6  C12 UNL     1     -15.801 -36.009   2.143  1.00  0.00     0.033 C
HETATM    7  C13 UNL     1     -17.273 -36.132   1.858  1.00  0.00     0.054 C
HETATM    8  C21 UNL     1     -18.157 -35.683   2.983  1.00  0.00     0.038 C
HETATM    9  C22 UNL     1     -18.402 -36.676   4.060  1.00  0.00    -0.011 C
HETATM   10  C23 UNL     1     -17.242 -36.737   5.061  1.00  0.00     0.009 C
HETATM   11  C24 UNL     1     -18.641 -38.082   3.629  1.00  0.00     0.011 C
ENDROOT
BRANCH   1  12
HETATM   12  N2  UNL     1     -18.907 -37.631   0.973  1.00  0.00    -0.352 N
HETATM   13  C6  UNL     1     -19.260 -38.370  -0.180  1.00  0.00     0.240 C
HETATM   14  O1  UNL     1     -18.370 -39.012  -0.780  1.00  0.00    -0.271 OA
ATOM     15  H2  UNL     1     -19.638 -37.110   1.456  1.00  0.00     0.163 HD
BRANCH  13  16
HETATM   16  C4  UNL     1     -20.646 -38.412  -0.709  1.00  0.00     0.165 C
HETATM   17  C5  UNL     1     -20.636 -39.357  -1.889  1.00  0.00     0.042 C
BRANCH  16  18
HETATM   18  N1  UNL     1     -21.558 -38.801   0.298  1.00  0.00    -0.406 N
ATOM     19  H1  UNL     1     -22.101 -38.095   0.796  1.00  0.00     0.154 HD
BRANCH  18  20
HETATM   20  C2  UNL     1     -21.716 -40.159   0.614  1.00  0.00     0.069 C
HETATM   21  C1  UNL     1     -20.849 -40.634   1.766  1.00  0.00     0.031 C
HETATM   22  C3  UNL     1     -23.088 -40.693   0.825  1.00  0.00     0.031 C
ENDBRANCH  18  20
ENDBRANCH  16  18
ENDBRANCH  13  16
ENDBRANCH   1  12
BRANCH   7  23
HETATM   23  N3  UNL     1     -17.563 -35.324   0.703  1.00  0.00    -0.348 N
HETATM   24  C14 UNL     1     -16.684 -35.121  -0.396  1.00  0.00     0.244 C
HETATM   25  O2  UNL     1     -15.567 -35.693  -0.355  1.00  0.00    -0.272 OA
ATOM     26  H3  UNL     1     -18.471 -34.861   0.669  1.00  0.00     0.163 HD
BRANCH  24  27
HETATM   27  C15 UNL     1     -17.108 -34.259  -1.529  1.00  0.00     0.339 C
BRANCH  27  28
HETATM   28  N4  UNL     1     -17.414 -35.041  -2.698  1.00  0.00    -0.063 N
HETATM   29  C16 UNL     1     -16.903 -34.462  -3.908  1.00  0.00     0.273 C
HETATM   30  C17 UNL     1     -16.898 -36.394  -2.561  1.00  0.00     0.237 C
HETATM   31  C18 UNL     1     -17.685 -37.155  -3.591  1.00  0.00     0.029 C
HETATM   32  C19 UNL     1     -19.051 -36.560  -3.514  1.00  0.00     0.029 C
HETATM   33  C20 UNL     1     -18.847 -35.269  -2.734  1.00  0.00     0.237 C
ENDBRANCH  27  28
ENDBRANCH  24  27
ENDBRANCH   7  23
TORSDOF 7
ENDMDL