MODEL 1
REMARK VINA RESULT: -8.841300641      0.000      0.000
REMARK  6 active torsions:
REMARK  status: ('A' for Active; 'I' for Inactive)
REMARK    1  A    between atoms: C2_3  and  O1_4
REMARK    2  A    between atoms: C2_3  and  C3_6
REMARK    3  A    between atoms: C2_3  and  C10_17
REMARK    4  A    between atoms: N2_7  and  N3_9
REMARK    5  A    between atoms: N3_9  and  C4_11
REMARK    6  A    between atoms: C10_17  and  C11_18
ROOT
HETATM    1  N1  UNL     1      15.798  87.589  45.796  1.00  0.00    -0.194 NA
HETATM    2  C1  UNL     1      16.702  87.381  45.125  1.00  0.00     0.103 C
HETATM    3  C2  UNL     1      17.853  87.142  44.268  1.00  0.00     0.184 C
ENDROOT
BRANCH   3   4
HETATM    4  O1  UNL     1      18.250  85.803  44.286  1.00  0.00    -0.371 OA
ATOM      5  H1  UNL     1      17.907  85.340  45.042  1.00  0.00     0.212 HD
ENDBRANCH   3   4
BRANCH   3   6
HETATM    6  C3  UNL     1      17.444  87.422  42.867  1.00  0.00     0.133 C
HETATM    7  N2  UNL     1      18.121  88.099  42.032  1.00  0.00    -0.311 N
ATOM      8  H2  UNL     1      19.018  88.494  42.314  1.00  0.00     0.185 HD
BRANCH   7   9
HETATM    9  N3  UNL     1      17.658  88.309  40.739  1.00  0.00    -0.301 N
ATOM     10  H3  UNL     1      16.700  88.045  40.506  1.00  0.00     0.187 HD
BRANCH   9  11
HETATM   11  C4  UNL     1      18.472  88.874  39.743  1.00  0.00     0.048 A
HETATM   12  C5  UNL     1      17.929  89.218  38.530  1.00  0.00     0.031 A
HETATM   13  C6  UNL     1      18.771  89.781  37.570  1.00  0.00     0.002 A
HETATM   14  C7  UNL     1      20.102  89.982  37.840  1.00  0.00     0.000 A
HETATM   15  C8  UNL     1      20.648  89.636  39.061  1.00  0.00     0.002 A
HETATM   16  C9  UNL     1      19.813  89.072  40.025  1.00  0.00     0.031 A
ENDBRANCH   9  11
ENDBRANCH   7   9
ENDBRANCH   3   6
BRANCH   3  17
HETATM   17  C10 UNL     1      18.996  88.073  44.586  1.00  0.00     0.098 C
BRANCH  17  18
HETATM   18  C11 UNL     1      20.099  87.427  45.292  1.00  0.00    -0.054 A
HETATM   19  C12 UNL     1      20.045  87.131  46.628  1.00  0.00     0.007 A
HETATM   20  C13 UNL     1      21.092  86.515  47.306  1.00  0.00     0.001 A
HETATM   21  C14 UNL     1      22.232  86.194  46.569  1.00  0.00     0.000 A
HETATM   22  C15 UNL     1      22.296  86.488  45.221  1.00  0.00     0.001 A
HETATM   23  C16 UNL     1      21.246  87.100  44.567  1.00  0.00     0.007 A
ENDBRANCH  17  18
ENDBRANCH   3  17
TORSDOF 6
ENDMDL