MODEL 1
REMARK VINA RESULT: -7.496478653      0.000      0.000
REMARK  5 active torsions:
REMARK  status: ('A' for Active; 'I' for Inactive)
REMARK    1  A    between atoms: C3_4  and  C4_5
REMARK    2  A    between atoms: C4_5  and  N1_6
REMARK    3  A    between atoms: N1_6  and  C5_8
REMARK    4  A    between atoms: C7_13  and  C8_14
REMARK    5  A    between atoms: C8_14  and  C9_15
ROOT
HETATM    1  C5  UNL     1      19.654  89.097  41.564  1.00  0.00     0.108 C
HETATM    2  C6  UNL     1      18.397  88.435  41.125  1.00  0.00     0.257 C
HETATM    3  N2  UNL     1      17.948  87.619  42.234  1.00  0.00    -0.069 N
ATOM      4  H21 UNL     1      17.593  86.709  41.939  1.00  0.00     0.277 HD
ATOM      5  H22 UNL     1      17.088  87.968  42.660  1.00  0.00     0.277 HD
HETATM    6  C7  UNL     1      19.025  87.518  43.165  1.00  0.00     0.192 C
HETATM    7  C13 UNL     1      20.264  88.077  42.490  1.00  0.00     0.060 C
ENDROOT
BRANCH   1   8
HETATM    8  N1  UNL     1      20.510  89.587  40.565  1.00  0.00    -0.390 N
ATOM      9  H1  UNL     1      21.034  90.448  40.718  1.00  0.00     0.159 HD
BRANCH   8  10
HETATM   10  C4  UNL     1      20.644  88.887  39.355  1.00  0.00     0.120 C
BRANCH  10  11
HETATM   11  C3  UNL     1      19.984  89.677  38.274  1.00  0.00     0.089 A
HETATM   12  O1  UNL     1      18.681  89.700  38.119  1.00  0.00    -0.321 OA
HETATM   13  C2  UNL     1      18.357  90.474  37.091  1.00  0.00     0.142 A
HETATM   14  C1  UNL     1      19.518  90.989  36.538  1.00  0.00     0.027 A
HETATM   15  C14 UNL     1      20.546  90.474  37.299  1.00  0.00     0.040 A
ENDBRANCH  10  11
ENDBRANCH   8  10
ENDBRANCH   1   8
BRANCH   6  16
HETATM   16  C8  UNL     1      18.842  88.278  44.436  1.00  0.00     0.072 C
BRANCH  16  17
HETATM   17  C9  UNL     1      18.015  87.511  45.453  1.00  0.00    -0.049 A
HETATM   18  C10 UNL     1      16.685  87.335  45.326  1.00  0.00     0.014 A
HETATM   19  C11 UNL     1      16.055  86.623  46.308  1.00  0.00     0.050 A
HETATM   20  S1  UNL     1      17.323  86.222  47.371  1.00  0.00    -0.113 SA
HETATM   21  C12 UNL     1      18.619  86.964  46.549  1.00  0.00     0.056 A
ENDBRANCH  16  17
ENDBRANCH   6  16
TORSDOF 5
ENDMDL