MODEL 4
REMARK VINA RESULT: -6.986689048      1.172      1.314
REMARK  6 active torsions:
REMARK  status: ('A' for Active; 'I' for Inactive)
REMARK    1  A    between atoms: N1_2  and  C2_4
REMARK    2  A    between atoms: C2_4  and  C3_5
REMARK    3  A    between atoms: C2_4  and  C9_11
REMARK    4  A    between atoms: C9_11  and  O1_12
REMARK    5  A    between atoms: C9_11  and  C10_14
REMARK    6  A    between atoms: C9_11  and  C14_19
ROOT
HETATM    1  C9  UNL     1      19.034  86.052  45.448  1.00  0.00     0.158 C
ENDROOT
BRANCH   1   2
HETATM    2  C2  UNL     1      18.275  87.271  45.090  1.00  0.00     0.153 C
BRANCH   2   3
HETATM    3  N1  UNL     1      18.258  88.367  45.964  1.00  0.00    -0.414 N
HETATM    4  C1  UNL     1      17.705  88.307  47.240  1.00  0.00     0.140 C
ATOM      5  H1  UNL     1      18.669  89.247  45.651  1.00  0.00     0.153 HD
ENDBRANCH   2   3
BRANCH   2   6
HETATM    6  C3  UNL     1      18.496  87.750  43.692  1.00  0.00    -0.033 A
HETATM    7  C4  UNL     1      17.512  87.568  42.734  1.00  0.00     0.009 A
HETATM    8  C5  UNL     1      17.719  88.042  41.460  1.00  0.00     0.001 A
HETATM    9  C6  UNL     1      18.893  88.697  41.122  1.00  0.00     0.000 A
HETATM   10  C7  UNL     1      19.881  88.892  42.048  1.00  0.00     0.001 A
HETATM   11  C8  UNL     1      19.669  88.413  43.331  1.00  0.00     0.009 A
ENDBRANCH   2   6
ENDBRANCH   1   2
BRANCH   1  12
HETATM   12  O1  UNL     1      19.597  85.485  44.261  1.00  0.00    -0.378 OA
ATOM     13  H1  UNL     1      19.707  84.550  44.385  1.00  0.00     0.211 HD
ENDBRANCH   1  12
BRANCH   1  14
HETATM   14  C10 UNL     1      20.167  86.226  46.370  1.00  0.00     0.092 A
HETATM   15  C11 UNL     1      20.449  85.361  47.422  1.00  0.00     0.038 A
HETATM   16  C12 UNL     1      21.583  85.856  48.057  1.00  0.00     0.027 A
HETATM   17  C13 UNL     1      21.931  86.994  47.359  1.00  0.00     0.142 A
HETATM   18  O2  UNL     1      21.068  87.170  46.375  1.00  0.00    -0.324 OA
ENDBRANCH   1  14
BRANCH   1  19
HETATM   19  C14 UNL     1      18.092  84.926  45.925  1.00  0.00     0.188 A
HETATM   20  C15 UNL     1      16.673  84.944  45.331  1.00  0.00     0.203 A
HETATM   21  O3  UNL     1      17.633  84.027  44.997  1.00  0.00    -0.378 OA
ENDBRANCH   1  19
TORSDOF 6
ENDMDL