MODEL 5
REMARK VINA RESULT: -5.947822616      1.154      1.235
REMARK  7 active torsions:
REMARK  status: ('A' for Active; 'I' for Inactive)
REMARK    1  A    between atoms: C7_7  and  C8_8
REMARK    2  A    between atoms: N1_9  and  C9_11
REMARK    3  A    between atoms: C9_11  and  C10_12
REMARK    4  A    between atoms: C9_11  and  C11_15
REMARK    5  A    between atoms: C10_12  and  O1_13
REMARK    6  A    between atoms: C11_15  and  C12_16
REMARK    7  A    between atoms: C12_16  and  O2_17
ROOT
HETATM    1  C8  UNL     1      19.591  87.963  41.742  1.00  0.00     0.062 C
HETATM    2  N1  UNL     1      19.104  87.749  42.905  1.00  0.00    -0.395 N
ATOM      3  H1  UNL     1      18.343  88.339  43.241  1.00  0.00     0.159 HD
ENDROOT
BRANCH   1   4
HETATM    4  C7  UNL     1      19.059  89.058  40.877  1.00  0.00     0.042 C
HETATM    5  C5  UNL     1      18.241  88.529  39.759  1.00  0.00    -0.009 C
HETATM    6  C4  UNL     1      18.326  89.206  38.459  1.00  0.00     0.005 C
HETATM    7  C6  UNL     1      16.772  88.393  40.197  1.00  0.00     0.011 C
HETATM    8  C3  UNL     1      19.456  90.131  38.235  1.00  0.00     0.006 C
HETATM    9  C2  UNL     1      20.646  89.894  39.116  1.00  0.00    -0.003 C
HETATM   10  C1  UNL     1      21.396  88.642  38.814  1.00  0.00     0.011 C
HETATM   11  C13 UNL     1      20.163  89.970  40.535  1.00  0.00     0.071 C
HETATM   12  S1  UNL     1      21.595  89.662  41.614  1.00  0.00    -0.091 SA
ENDBRANCH   1   4
BRANCH   2  13
HETATM   13  C9  UNL     1      19.609  86.688  43.758  1.00  0.00     0.106 C
BRANCH  13  14
HETATM   14  C10 UNL     1      20.916  87.215  44.291  1.00  0.00     0.189 C
BRANCH  14  15
HETATM   15  O1  UNL     1      21.943  86.382  43.954  1.00  0.00    -0.399 OA
ATOM     16  H1  UNL     1      21.613  85.522  43.724  1.00  0.00     0.209 HD
ENDBRANCH  14  15
ENDBRANCH  13  14
BRANCH  13  17
HETATM   17  C11 UNL     1      18.584  86.450  44.828  1.00  0.00     0.053 C
BRANCH  17  18
HETATM   18  C12 UNL     1      17.510  87.479  44.951  1.00  0.00     0.166 C
BRANCH  18  19
HETATM   19  O2  UNL     1      18.006  88.423  45.900  1.00  0.00    -0.401 OA
ATOM     20  H2  UNL     1      17.440  89.181  45.814  1.00  0.00     0.209 HD
ENDBRANCH  18  19
ENDBRANCH  17  18
ENDBRANCH  13  17
ENDBRANCH   2  13
TORSDOF 7
ENDMDL