MODEL 1
REMARK VINA RESULT: -7.745702532      0.000      0.000
REMARK  5 active torsions:
REMARK  status: ('A' for Active; 'I' for Inactive)
REMARK    1  A    between atoms: C4_4  and  O1_5
REMARK    2  A    between atoms: O1_5  and  C5_6
REMARK    3  A    between atoms: C7_11  and  N2_12
REMARK    4  A    between atoms: N2_12  and  C8_15
REMARK    5  A    between atoms: C8_15  and  C9_16
ROOT
HETATM    1  C5  UNL     1      19.516  88.747  42.463  1.00  0.00     0.158 C
HETATM    2  C6  UNL     1      18.627  88.396  43.669  1.00  0.00     0.267 C
HETATM    3  N1  UNL     1      18.801  86.950  43.682  1.00  0.00    -0.044 N
ATOM      4  H11 UNL     1      18.350  86.442  42.921  1.00  0.00     0.279 HD
ATOM      5  H12 UNL     1      18.306  86.449  44.420  1.00  0.00     0.279 HD
HETATM    6  C7  UNL     1      20.250  86.868  43.724  1.00  0.00     0.385 C
HETATM    7  C13 UNL     1      20.769  87.974  42.825  1.00  0.00     0.097 C
ENDROOT
BRANCH   6   8
HETATM    8  N2  UNL     1      20.653  87.126  45.099  1.00  0.00    -0.040 N
ATOM      9  H22 UNL     1      20.253  87.983  45.481  1.00  0.00     0.280 HD
ATOM     10  H21 UNL     1      20.236  86.479  45.768  1.00  0.00     0.280 HD
BRANCH   8  11
HETATM   11  C8  UNL     1      22.121  87.114  45.119  1.00  0.00     0.299 C
BRANCH  11  12
HETATM   12  C9  UNL     1      22.565  86.162  46.174  1.00  0.00     0.078 A
HETATM   13  C10 UNL     1      22.822  86.411  47.493  1.00  0.00     0.036 A
HETATM   14  C11 UNL     1      23.206  85.211  48.074  1.00  0.00     0.027 A
HETATM   15  C12 UNL     1      23.162  84.288  47.072  1.00  0.00     0.142 A
HETATM   16  O2  UNL     1      22.781  84.889  45.972  1.00  0.00    -0.325 OA
ENDBRANCH  11  12
ENDBRANCH   8  11
ENDBRANCH   6   8
BRANCH   1  17
HETATM   17  O1  UNL     1      18.934  88.110  41.370  1.00  0.00    -0.344 OA
BRANCH  17  18
HETATM   18  C4  UNL     1      18.586  88.689  40.163  1.00  0.00     0.069 A
HETATM   19  C3  UNL     1      19.595  89.307  39.452  1.00  0.00     0.037 A
HETATM   20  C2  UNL     1      19.331  89.909  38.237  1.00  0.00     0.003 A
HETATM   21  C1  UNL     1      18.042  89.886  37.738  1.00  0.00     0.000 A
HETATM   22  C15 UNL     1      17.021  89.263  38.454  1.00  0.00     0.003 A
HETATM   23  C14 UNL     1      17.318  88.672  39.661  1.00  0.00     0.037 A
ENDBRANCH  17  18
ENDBRANCH   1  17
TORSDOF 5
ENDMDL