MODEL 5
REMARK VINA RESULT: -7.600267456      2.167      3.574
REMARK  5 active torsions:
REMARK  status: ('A' for Active; 'I' for Inactive)
REMARK    1  A    between atoms: C2_2  and  C10_23
REMARK    2  A    between atoms: N1_3  and  N2_5
REMARK    3  A    between atoms: N2_5  and  N3_7
REMARK       I    between atoms: C3_9  and  N5_11
REMARK    4  A    between atoms: N5_11  and  N6_13
REMARK    5  A    between atoms: N7_15  and  C4_17
ROOT
HETATM    1  N3  UNL     1      22.081  86.952  44.673  1.00  0.00    -0.258 N
ATOM      2  H3  UNL     1      22.973  87.340  44.365  1.00  0.00     0.191 HD
HETATM    3  C3  UNL     1      21.084  86.984  43.866  1.00  0.00     0.224 C
HETATM    4  N4  UNL     1      19.849  86.456  44.271  1.00  0.00    -0.061 NA
HETATM    5  N5  UNL     1      21.298  87.571  42.575  1.00  0.00    -0.258 N
ATOM      6  H5  UNL     1      21.140  87.003  41.743  1.00  0.00     0.191 HD
ENDROOT
BRANCH   1   7
HETATM    7  N2  UNL     1      21.995  86.415  45.939  1.00  0.00    -0.240 N
ATOM      8  H2  UNL     1      22.691  85.724  46.219  1.00  0.00     0.208 HD
BRANCH   7   9
HETATM    9  N1  UNL     1      21.007  86.765  46.858  1.00  0.00    -0.294 N
HETATM   10  C2  UNL     1      21.365  87.145  48.018  1.00  0.00     0.005 C
HETATM   11  C1  UNL     1      22.785  87.216  48.386  1.00  0.00     0.065 C
ATOM     12  H1  UNL     1      20.020  86.718  46.606  1.00  0.00     0.187 HD
BRANCH  10  13
HETATM   13  C10 UNL     1      20.328  87.518  48.997  1.00  0.00     0.032 A
HETATM   14  C11 UNL     1      19.189  88.388  48.633  1.00  0.00     0.011 A
HETATM   15  C12 UNL     1      20.320  88.909  49.543  1.00  0.00     0.011 A
ENDBRANCH  10  13
ENDBRANCH   7   9
ENDBRANCH   1   7
BRANCH   5  16
HETATM   16  N6  UNL     1      21.715  88.891  42.420  1.00  0.00    -0.240 N
HETATM   17  N7  UNL     1      21.115  89.727  41.659  1.00  0.00    -0.286 N
ATOM     18  H7  UNL     1      21.457  90.684  41.577  1.00  0.00     0.188 HD
ATOM     19  H6  UNL     1      22.536  89.205  42.938  1.00  0.00     0.208 HD
BRANCH  17  20
HETATM   20  C4  UNL     1      19.969  89.312  40.929  1.00  0.00     0.049 A
HETATM   21  C5  UNL     1      18.903  88.751  41.616  1.00  0.00     0.031 A
HETATM   22  C6  UNL     1      17.768  88.331  40.960  1.00  0.00     0.002 A
HETATM   23  C7  UNL     1      17.727  88.487  39.599  1.00  0.00     0.000 A
HETATM   24  C8  UNL     1      18.764  89.039  38.888  1.00  0.00     0.002 A
HETATM   25  C9  UNL     1      19.904  89.458  39.563  1.00  0.00     0.031 A
ENDBRANCH  17  20
ENDBRANCH   5  16
TORSDOF 5
ENDMDL