MODEL 3
REMARK VINA RESULT: -8.488441358      2.970      7.211
REMARK  7 active torsions:
REMARK  status: ('A' for Active; 'I' for Inactive)
REMARK    1  A    between atoms: C2_2  and  C3_3
REMARK    2  A    between atoms: C2_2  and  C12_18
REMARK    3  A    between atoms: C3_3  and  N2_8
REMARK    4  A    between atoms: N1_4  and  O1_6
REMARK    5  A    between atoms: N2_8  and  C4_10
REMARK    6  A    between atoms: C4_10  and  C5_11
REMARK    7  A    between atoms: C5_11  and  C6_12
ROOT
HETATM    1  C12 UNL     1      17.879  86.811  44.758  1.00  0.00     0.210 C
HETATM    2  C13 UNL     1      16.667  87.290  45.411  1.00  0.00     0.079 C
HETATM    3  N3  UNL     1      15.697  87.650  45.927  1.00  0.00    -0.196 NA
HETATM    4  C14 UNL     1      18.046  85.365  44.925  1.00  0.00     0.079 C
HETATM    5  N4  UNL     1      18.191  84.220  45.054  1.00  0.00    -0.196 NA
ENDROOT
BRANCH   1   6
HETATM    6  C2  UNL     1      19.087  87.595  45.248  1.00  0.00     0.082 C
HETATM    7  C1  UNL     1      19.294  87.379  46.733  1.00  0.00     0.020 C
BRANCH   6   8
HETATM    8  C3  UNL     1      20.270  87.245  44.461  1.00  0.00     0.103 C
HETATM    9  N1  UNL     1      21.320  86.794  45.114  1.00  0.00    -0.257 N
ATOM     10  H1  UNL     1      21.294  86.699  46.130  1.00  0.00     0.195 HD
BRANCH   9  11
HETATM   11  O1  UNL     1      22.466  86.449  44.405  1.00  0.00    -0.288 OA
ATOM     12  H1  UNL     1      23.016  85.743  44.725  1.00  0.00     0.244 HD
ENDBRANCH   9  11
BRANCH   8  13
HETATM   13  N2  UNL     1      20.407  87.331  43.076  1.00  0.00    -0.378 N
ATOM     14  H2  UNL     1      21.061  86.676  42.647  1.00  0.00     0.160 HD
BRANCH  13  15
HETATM   15  C4  UNL     1      19.728  88.245  42.172  1.00  0.00     0.121 C
BRANCH  15  16
HETATM   16  C5  UNL     1      20.739  88.684  41.161  1.00  0.00     0.024 C
BRANCH  16  17
HETATM   17  C6  UNL     1      20.287  89.535  40.042  1.00  0.00    -0.013 C
HETATM   18  C7  UNL     1      21.144  89.434  38.824  1.00  0.00     0.005 C
HETATM   19  C8  UNL     1      20.554  90.074  37.600  1.00  0.00     0.000 C
HETATM   20  C9  UNL     1      19.065  90.140  37.590  1.00  0.00     0.000 C
HETATM   21  C10 UNL     1      18.556  88.902  38.343  1.00  0.00     0.000 C
HETATM   22  C11 UNL     1      18.828  89.186  39.789  1.00  0.00     0.005 C
ENDBRANCH  16  17
ENDBRANCH  15  16
ENDBRANCH  13  15
ENDBRANCH   8  13
ENDBRANCH   6   8
ENDBRANCH   1   6
TORSDOF 7
ENDMDL