MODEL 5
REMARK VINA RESULT: -7.774208880      1.487      2.215
REMARK  7 active torsions:
REMARK  status: ('A' for Active; 'I' for Inactive)
REMARK    1  A    between atoms: C2_2  and  C3_3
REMARK    2  A    between atoms: C3_3  and  O1_4
REMARK    3  A    between atoms: C3_3  and  C4_6
REMARK    4  A    between atoms: C4_6  and  O2_7
REMARK    5  A    between atoms: O2_7  and  C5_8
REMARK    6  A    between atoms: C8_11  and  N1_12
REMARK    7  A    between atoms: N1_12  and  C9_14
ROOT
HETATM    1  C5  UNL     1      18.961  88.546  41.243  1.00  0.00     0.069 A
HETATM    2  C6  UNL     1      17.720  87.975  41.483  1.00  0.00     0.039 A
HETATM    3  C7  UNL     1      17.351  87.664  42.770  1.00  0.00     0.032 A
HETATM    4  C8  UNL     1      18.162  87.891  43.862  1.00  0.00     0.034 A
HETATM    5  C12 UNL     1      19.395  88.459  43.626  1.00  0.00     0.032 A
HETATM    6  C13 UNL     1      19.784  88.780  42.323  1.00  0.00     0.039 A
ENDROOT
BRANCH   4   7
HETATM    7  N1  UNL     1      17.785  87.575  45.172  1.00  0.00    -0.337 N
ATOM      8  H1  UNL     1      17.978  88.243  45.918  1.00  0.00     0.168 HD
BRANCH   7   9
HETATM    9  C9  UNL     1      17.187  86.436  45.472  1.00  0.00     0.148 A
HETATM   10  N2  UNL     1      15.913  86.273  45.845  1.00  0.00    -0.346 N
HETATM   11  C10 UNL     1      15.498  85.058  46.104  1.00  0.00     0.097 A
ATOM     12  H2  UNL     1      15.283  87.071  45.925  1.00  0.00     0.167 HD
HETATM   13  C11 UNL     1      16.392  84.033  45.976  1.00  0.00     0.070 A
HETATM   14  S1  UNL     1      17.806  84.853  45.486  1.00  0.00    -0.064 SA
ENDBRANCH   7   9
ENDBRANCH   4   7
BRANCH   1  15
HETATM   15  O2  UNL     1      19.356  88.869  39.954  1.00  0.00    -0.348 OA
BRANCH  15  16
HETATM   16  C4  UNL     1      20.634  89.375  39.649  1.00  0.00     0.211 C
BRANCH  16  17
HETATM   17  C3  UNL     1      21.090  88.988  38.272  1.00  0.00     0.164 C
BRANCH  17  18
HETATM   18  C2  UNL     1      21.059  90.178  37.392  1.00  0.00    -0.004 C
HETATM   19  C1  UNL     1      19.897  90.672  37.013  1.00  0.00     0.009 C
ENDBRANCH  17  18
BRANCH  17  20
HETATM   20  O1  UNL     1      22.395  88.502  38.264  1.00  0.00    -0.390 OA
ATOM     21  H1  UNL     1      22.372  87.642  37.863  1.00  0.00     0.210 HD
ENDBRANCH  17  20
ENDBRANCH  16  17
ENDBRANCH  15  16
ENDBRANCH   1  15
TORSDOF 7
ENDMDL