MODEL 1
REMARK VINA RESULT: -8.503232329      0.000      0.000
REMARK  5 active torsions:
REMARK  status: ('A' for Active; 'I' for Inactive)
REMARK    1  A    between atoms: C2_2  and  O1_3
REMARK    2  A    between atoms: O1_3  and  C3_4
REMARK    3  A    between atoms: C5_10  and  N3_11
REMARK    4  A    between atoms: N3_11  and  C6_13
REMARK    5  A    between atoms: C8_16  and  C9_17
ROOT
HETATM    1  N3  UNL     1      18.847  86.424  44.671  1.00  0.00    -0.366 N
ATOM      2  H3  UNL     1      19.208  85.513  44.385  1.00  0.00     0.161 HD
ENDROOT
BRANCH   1   3
HETATM    3  C5  UNL     1      17.642  86.503  45.417  1.00  0.00     0.155 A
HETATM    4  C3  UNL     1      16.547  85.643  45.292  1.00  0.00     0.192 A
HETATM    5  N1  UNL     1      15.615  86.054  46.167  1.00  0.00    -0.330 N
HETATM    6  C4  UNL     1      16.056  87.127  46.841  1.00  0.00     0.184 A
ATOM      7  H1  UNL     1      14.705  85.614  46.301  1.00  0.00     0.168 HD
HETATM    8  N2  UNL     1      17.281  87.377  46.370  1.00  0.00    -0.335 N
ATOM      9  H2  UNL     1      17.872  88.143  46.695  1.00  0.00     0.168 HD
BRANCH   4  10
HETATM   10  O1  UNL     1      16.511  84.575  44.396  1.00  0.00    -0.303 OA
BRANCH  10  11
HETATM   11  C2  UNL     1      15.719  83.475  44.660  1.00  0.00     0.134 C
HETATM   12  C1  UNL     1      14.627  83.281  43.908  1.00  0.00     0.038 C
ENDBRANCH  10  11
ENDBRANCH   4  10
ENDBRANCH   1   3
BRANCH   1  13
HETATM   13  C6  UNL     1      19.560  87.612  44.316  1.00  0.00     0.109 C
HETATM   14  C7  UNL     1      20.927  87.305  43.766  1.00  0.00     0.193 C
HETATM   15  O2  UNL     1      20.832  87.560  42.420  1.00  0.00    -0.379 OA
HETATM   16  C8  UNL     1      20.026  88.680  42.291  1.00  0.00     0.156 C
HETATM   17  C15 UNL     1      18.870  88.388  43.224  1.00  0.00     0.064 C
BRANCH  16  18
HETATM   18  C9  UNL     1      19.563  88.855  40.890  1.00  0.00    -0.029 A
HETATM   19  C10 UNL     1      18.250  88.587  40.548  1.00  0.00     0.010 A
HETATM   20  C11 UNL     1      17.772  88.733  39.268  1.00  0.00     0.001 A
HETATM   21  C12 UNL     1      18.670  89.167  38.304  1.00  0.00     0.000 A
HETATM   22  C13 UNL     1      19.988  89.449  38.583  1.00  0.00     0.001 A
HETATM   23  C14 UNL     1      20.411  89.283  39.895  1.00  0.00     0.010 A
ENDBRANCH  16  18
ENDBRANCH   1  13
TORSDOF 5
ENDMDL