MODEL 2
REMARK VINA RESULT: -7.845843037      0.461      1.236
REMARK  6 active torsions:
REMARK  status: ('A' for Active; 'I' for Inactive)
REMARK    1  A    between atoms: O1_1  and  C1_3
REMARK    2  A    between atoms: C1_3  and  C2_4
REMARK    3  A    between atoms: C2_4  and  C3_5
REMARK    4  A    between atoms: N1_6  and  O2_8
REMARK    5  A    between atoms: O2_8  and  C4_9
REMARK    6  A    between atoms: C4_9  and  C5_10
ROOT
HETATM    1  C2  UNL     1      19.957  89.684  38.663  1.00  0.00     0.018 C
HETATM    2  C11 UNL     1      19.977  91.099  38.204  1.00  0.00     0.044 C
HETATM    3  C12 UNL     1      19.491  91.310  36.803  1.00  0.00     0.233 C
HETATM    4  N2  UNL     1      18.675  90.212  36.384  1.00  0.00    -0.075 N
ATOM      5  H21 UNL     1      19.236  89.424  36.061  1.00  0.00     0.277 HD
ATOM      6  H22 UNL     1      18.184  90.416  35.513  1.00  0.00     0.277 HD
HETATM    7  C13 UNL     1      17.774  89.832  37.424  1.00  0.00     0.233 C
HETATM    8  C14 UNL     1      18.582  89.124  38.502  1.00  0.00     0.044 C
ENDROOT
BRANCH   1   9
HETATM    9  C1  UNL     1      20.987  88.815  37.993  1.00  0.00     0.179 C
BRANCH   9  10
HETATM   10  O1  UNL     1      22.269  89.275  38.124  1.00  0.00    -0.400 OA
ATOM     11  H1  UNL     1      22.452  90.057  37.618  1.00  0.00     0.209 HD
ENDBRANCH   9  10
ENDBRANCH   1   9
BRANCH   1  12
HETATM   12  C3  UNL     1      20.275  89.690  40.135  1.00  0.00     0.099 C
HETATM   13  N1  UNL     1      21.015  88.760  40.633  1.00  0.00    -0.281 N
ATOM     14  H1  UNL     1      21.389  88.018  40.043  1.00  0.00     0.193 HD
BRANCH  13  15
HETATM   15  O2  UNL     1      21.285  88.794  41.974  1.00  0.00    -0.281 OA
BRANCH  15  16
HETATM   16  C4  UNL     1      20.248  88.872  42.923  1.00  0.00     0.205 C
BRANCH  16  17
HETATM   17  C5  UNL     1      19.583  87.491  42.984  1.00  0.00     0.012 C
HETATM   18  C6  UNL     1      19.738  86.998  44.391  1.00  0.00     0.007 C
HETATM   19  C7  UNL     1      18.800  85.865  44.727  1.00  0.00     0.000 C
HETATM   20  C8  UNL     1      17.358  86.222  44.496  1.00  0.00     0.000 C
HETATM   21  C9  UNL     1      17.185  87.503  43.736  1.00  0.00     0.000 C
HETATM   22  C10 UNL     1      18.138  87.618  42.567  1.00  0.00     0.007 C
ENDBRANCH  16  17
ENDBRANCH  15  16
ENDBRANCH  13  15
ENDBRANCH   1  12
TORSDOF 6
ENDMDL