MODEL 2
REMARK VINA RESULT: -2.557709591      1.748      2.539
REMARK  2 active torsions:
REMARK  status: ('A' for Active; 'I' for Inactive)
REMARK    1  A    between atoms: C5_7  and  C6_8
REMARK    2  A    between atoms: C6_8  and  N2_9
ROOT
HETATM    1  C1  UNL     1      19.287  32.641   8.139  1.00  0.00     0.044 C
HETATM    2  C2  UNL     1      20.612  32.724   8.180  1.00  0.00     0.034 A
HETATM    3  N1  UNL     1      21.453  31.969   8.941  1.00  0.00    -0.366 N
ATOM      4  H1  UNL     1      21.156  31.235   9.583  1.00  0.00     0.165 HD
HETATM    5  C3  UNL     1      22.727  32.329   8.725  1.00  0.00     0.089 A
HETATM    6  C4  UNL     1      22.676  33.346   7.794  1.00  0.00     0.032 A
HETATM    7  C5  UNL     1      21.351  33.612   7.437  1.00  0.00     0.006 A
ENDROOT
BRANCH   7   8
HETATM    8  C6  UNL     1      20.941  34.525   6.569  1.00  0.00     0.096 C
BRANCH   8   9
HETATM    9  N2  UNL     1      20.840  34.261   5.179  1.00  0.00    -0.402 N
HETATM   10  C7  UNL     1      22.000  34.128   4.316  1.00  0.00     0.145 C
ATOM     11  H2  UNL     1      19.911  34.159   4.768  1.00  0.00     0.158 HD
ENDBRANCH   8   9
ENDBRANCH   7   8
TORSDOF 2
ENDMDL