MODEL 2
REMARK VINA RESULT: -1.224565031      1.353      3.119
REMARK  1 active torsions:
REMARK  status: ('A' for Active; 'I' for Inactive)
REMARK    1  A    between atoms: N3_10  and  C5_11
ROOT
HETATM    1  C1  UNL     1      22.645  33.122   7.202  1.00  0.00     0.047 C
HETATM    2  C2  UNL     1      21.549  33.535   6.597  1.00  0.00     0.070 A
HETATM    3  C3  UNL     1      20.219  33.633   7.193  1.00  0.00     0.126 A
HETATM    4  N1  UNL     1      19.922  33.310   8.423  1.00  0.00    -0.384 N
ATOM      5  H11 UNL     1      18.994  33.379   8.840  1.00  0.00     0.157 HD
ATOM      6  H12 UNL     1      20.523  32.950   9.165  1.00  0.00     0.157 HD
HETATM    7  N2  UNL     1      19.389  34.130   6.167  1.00  0.00    -0.337 N
ATOM      8  H2  UNL     1      18.389  34.321   6.238  1.00  0.00     0.168 HD
HETATM    9  C4  UNL     1      20.202  34.317   5.014  1.00  0.00     0.185 A
HETATM   10  N3  UNL     1      21.423  33.988   5.230  1.00  0.00    -0.341 N
ENDROOT
BRANCH  10  11
HETATM   11  C5  UNL     1      22.569  34.024   4.353  1.00  0.00     0.125 C
HETATM   12  C6  UNL     1      22.632  32.847   3.422  1.00  0.00     0.027 C
ENDBRANCH  10  11
TORSDOF 1
ENDMDL