MODEL 5
REMARK VINA RESULT: -1.982855093      1.029      1.704
REMARK  2 active torsions:
REMARK  status: ('A' for Active; 'I' for Inactive)
REMARK    1  A    between atoms: C3_6  and  C4_7
REMARK    2  A    between atoms: C4_7  and  N3_8
ROOT
HETATM    1  C1  UNL     1      19.349  35.200   4.595  1.00  0.00     0.156 C
HETATM    2  N1  UNL     1      20.390  34.458   5.292  1.00  0.00    -0.355 N
HETATM    3  C2  UNL     1      21.559  33.993   4.828  1.00  0.00     0.182 A
HETATM    4  N2  UNL     1      22.214  33.360   5.832  1.00  0.00    -0.353 N
ATOM      5  H2  UNL     1      23.127  32.913   5.751  1.00  0.00     0.166 HD
HETATM    6  C3  UNL     1      21.472  33.414   6.947  1.00  0.00     0.051 A
HETATM    7  C5  UNL     1      20.328  34.103   6.607  1.00  0.00     0.117 A
ENDROOT
BRANCH   6   8
HETATM    8  C4  UNL     1      21.783  32.858   8.289  1.00  0.00     0.287 C
BRANCH   8   9
HETATM    9  N3  UNL     1      21.529  31.442   8.305  1.00  0.00    -0.074 N
ATOM     10  H33 UNL     1      20.626  31.211   7.893  1.00  0.00     0.274 HD
ATOM     11  H32 UNL     1      22.125  30.939   7.648  1.00  0.00     0.274 HD
ATOM     12  H31 UNL     1      21.619  31.084   9.256  1.00  0.00     0.274 HD
ENDBRANCH   8   9
ENDBRANCH   6   8
TORSDOF 2
ENDMDL