MODEL 2
REMARK VINA RESULT: -3.271698921      1.744      3.254
REMARK  3 active torsions:
REMARK  status: ('A' for Active; 'I' for Inactive)
REMARK    1  A    between atoms: N1_1  and  C1_5
REMARK    2  A    between atoms: C1_5  and  C2_6
REMARK    3  A    between atoms: C2_6  and  N2_7
ROOT
HETATM    1  C2  UNL     1      20.382  34.126   6.935  1.00  0.00     0.166 C
ENDROOT
BRANCH   1   2
HETATM    2  C1  UNL     1      21.199  34.587   5.723  1.00  0.00     0.250 C
BRANCH   2   3
HETATM    3  N1  UNL     1      21.700  33.449   5.010  1.00  0.00    -0.078 N
ATOM      4  H13 UNL     1      20.960  32.948   4.519  1.00  0.00     0.274 HD
ATOM      5  H12 UNL     1      22.258  33.720   4.200  1.00  0.00     0.274 HD
ATOM      6  H11 UNL     1      22.218  32.842   5.645  1.00  0.00     0.274 HD
ENDBRANCH   2   3
ENDBRANCH   1   2
BRANCH   1   7
HETATM    7  N2  UNL     1      21.188  33.163   7.688  1.00  0.00    -0.298 N
HETATM    8  C3  UNL     1      20.991  31.892   8.000  1.00  0.00     0.199 A
HETATM    9  N3  UNL     1      22.117  31.712   8.671  1.00  0.00    -0.308 N
HETATM   10  S1  UNL     1      22.652  33.258   8.454  1.00  0.00     0.071 SA
ATOM     11  H3  UNL     1      22.513  30.905   9.152  1.00  0.00     0.176 HD
ENDBRANCH   1   7
TORSDOF 3
ENDMDL