MODEL 4
REMARK VINA RESULT: -1.477215943      1.398      3.923
REMARK  2 active torsions:
REMARK  status: ('A' for Active; 'I' for Inactive)
REMARK    1  A    between atoms: C3_5  and  C4_6
REMARK    2  A    between atoms: C4_6  and  N2_7
ROOT
HETATM    1  C1  UNL     1      19.556  33.421   8.450  1.00  0.00     0.089 C
HETATM    2  C2  UNL     1      20.677  33.452   7.474  1.00  0.00     0.079 A
HETATM    3  N1  UNL     1      20.526  33.863   6.214  1.00  0.00    -0.347 N
ATOM      4  H1  UNL     1      19.654  34.189   5.800  1.00  0.00     0.167 HD
HETATM    5  C3  UNL     1      21.706  33.777   5.576  1.00  0.00     0.051 A
HETATM    6  C5  UNL     1      22.591  33.298   6.490  1.00  0.00     0.118 A
HETATM    7  N3  UNL     1      21.952  33.100   7.652  1.00  0.00    -0.349 N
HETATM    8  C6  UNL     1      22.554  32.599   8.860  1.00  0.00     0.156 C
ENDROOT
BRANCH   5   9
HETATM    9  C4  UNL     1      21.939  34.149   4.147  1.00  0.00     0.287 C
BRANCH   9  10
HETATM   10  N2  UNL     1      22.522  33.024   3.421  1.00  0.00    -0.074 N
ATOM     11  H23 UNL     1      22.055  32.145   3.642  1.00  0.00     0.274 HD
ATOM     12  H22 UNL     1      22.307  33.062   2.425  1.00  0.00     0.274 HD
ATOM     13  H21 UNL     1      23.527  32.975   3.593  1.00  0.00     0.274 HD
ENDBRANCH   9  10
ENDBRANCH   5   9
TORSDOF 2
ENDMDL