MODEL 1
REMARK VINA RESULT: -3.534246241      0.000      0.000
REMARK  2 active torsions:
REMARK  status: ('A' for Active; 'I' for Inactive)
REMARK    1  A    between atoms: N1_1  and  C1_5
REMARK    2  A    between atoms: C1_5  and  N2_6
ROOT
HETATM    1  N2  UNL     1      21.565  33.886   5.770  1.00  0.00    -0.343 N
HETATM    2  C2  UNL     1      20.361  34.357   6.158  1.00  0.00     0.092 A
HETATM    3  C3  UNL     1      19.892  34.144   7.439  1.00  0.00     0.017 A
HETATM    4  C4  UNL     1      20.629  33.443   8.372  1.00  0.00     0.003 A
HETATM    5  C5  UNL     1      21.860  32.964   7.966  1.00  0.00     0.017 A
HETATM    6  C6  UNL     1      22.280  33.208   6.672  1.00  0.00     0.092 A
ENDROOT
BRANCH   1   7
HETATM    7  C1  UNL     1      22.072  34.107   4.418  1.00  0.00     0.358 C
BRANCH   7   8
HETATM    8  N1  UNL     1      22.446  32.823   3.868  1.00  0.00    -0.063 N
ATOM      9  H13 UNL     1      22.940  32.904   2.979  1.00  0.00     0.276 HD
ATOM     10  H12 UNL     1      23.190  32.369   4.397  1.00  0.00     0.276 HD
ATOM     11  H11 UNL     1      21.604  32.252   3.801  1.00  0.00     0.276 HD
ENDBRANCH   7   8
ENDBRANCH   1   7
TORSDOF 2
ENDMDL