MODEL 5
REMARK VINA RESULT: -1.726835939      0.971      2.189
REMARK  2 active torsions:
REMARK  status: ('A' for Active; 'I' for Inactive)
REMARK    1  A    between atoms: C4_7  and  C5_8
REMARK    2  A    between atoms: C5_8  and  N3_9
ROOT
HETATM    1  C1  UNL     1      22.687  33.502   4.618  1.00  0.00     0.157 C
HETATM    2  N1  UNL     1      21.515  33.810   5.449  1.00  0.00    -0.348 N
HETATM    3  C2  UNL     1      20.362  34.363   5.079  1.00  0.00     0.182 A
HETATM    4  N2  UNL     1      19.551  34.473   6.143  1.00  0.00    -0.360 N
ATOM      5  H2  UNL     1      18.608  34.862   6.144  1.00  0.00     0.166 HD
HETATM    6  C3  UNL     1      20.206  33.979   7.208  1.00  0.00     0.115 A
HETATM    7  C4  UNL     1      21.441  33.564   6.766  1.00  0.00     0.053 A
ENDROOT
BRANCH   7   8
HETATM    8  C5  UNL     1      22.497  32.953   7.599  1.00  0.00     0.288 C
BRANCH   8   9
HETATM    9  N3  UNL     1      21.986  31.795   8.343  1.00  0.00    -0.074 N
ATOM     10  H33 UNL     1      22.707  31.087   8.475  1.00  0.00     0.274 HD
ATOM     11  H32 UNL     1      21.811  32.025   9.320  1.00  0.00     0.274 HD
ATOM     12  H31 UNL     1      21.155  31.406   7.896  1.00  0.00     0.274 HD
ENDBRANCH   8   9
ENDBRANCH   7   8
TORSDOF 2
ENDMDL