MODEL 5
REMARK VINA RESULT: -2.693267472      8.292      9.669
REMARK  2 active torsions:
REMARK  status: ('A' for Active; 'I' for Inactive)
REMARK    1  A    between atoms: C1_4  and  N2_5
REMARK    2  A    between atoms: N2_5  and  C2_7
ROOT
HETATM    1  C2  UNL     1      16.401  36.383  13.795  1.00  0.00     0.035 A
HETATM    2  C3  UNL     1      15.945  35.646  12.722  1.00  0.00     0.046 A
HETATM    3  C4  UNL     1      14.941  34.718  12.872  1.00  0.00     0.090 A
HETATM    4  N3  UNL     1      14.352  34.474  14.051  1.00  0.00    -0.375 N
ATOM      5  H3  UNL     1      13.611  33.780  14.136  1.00  0.00     0.164 HD
HETATM    6  C5  UNL     1      14.772  35.177  15.119  1.00  0.00     0.090 A
HETATM    7  C6  UNL     1      15.773  36.111  15.003  1.00  0.00     0.046 A
ENDROOT
BRANCH   1   8
HETATM    8  N2  UNL     1      17.343  37.262  13.687  1.00  0.00    -0.353 N
ATOM      9  H2  UNL     1      17.250  38.189  14.104  1.00  0.00     0.166 HD
BRANCH   8  10
HETATM   10  C1  UNL     1      18.505  36.891  12.971  1.00  0.00     0.173 C
HETATM   11  N1  UNL     1      19.352  37.771  12.594  1.00  0.00    -0.395 N
ATOM     12  H12 UNL     1      19.173  38.749  12.820  1.00  0.00     0.156 HD
ATOM     13  H11 UNL     1      20.191  37.504  12.078  1.00  0.00     0.156 HD
ENDBRANCH   8  10
ENDBRANCH   1   8
TORSDOF 2
ENDMDL