MODEL 4
REMARK VINA RESULT: -1.683541197      1.553      3.674
REMARK  2 active torsions:
REMARK  status: ('A' for Active; 'I' for Inactive)
REMARK    1  A    between atoms: C4_7  and  C5_8
REMARK    2  A    between atoms: C5_8  and  N3_9
ROOT
HETATM    1  C1  UNL     1      22.649  32.922   8.110  1.00  0.00     0.157 C
HETATM    2  N1  UNL     1      21.772  33.466   7.063  1.00  0.00    -0.348 N
HETATM    3  C2  UNL     1      22.119  33.795   5.807  1.00  0.00     0.108 A
HETATM    4  C3  UNL     1      20.992  34.262   5.170  1.00  0.00     0.106 A
HETATM    5  N2  UNL     1      19.985  34.206   6.055  1.00  0.00    -0.353 N
ATOM      6  H2  UNL     1      19.020  34.486   5.879  1.00  0.00     0.166 HD
HETATM    7  C4  UNL     1      20.460  33.720   7.210  1.00  0.00     0.108 A
ENDROOT
BRANCH   7   8
HETATM    8  C5  UNL     1      19.688  33.496   8.445  1.00  0.00     0.305 C
BRANCH   8   9
HETATM    9  N3  UNL     1      19.013  32.200   8.434  1.00  0.00    -0.073 N
ATOM     10  H33 UNL     1      19.624  31.460   8.778  1.00  0.00     0.274 HD
ATOM     11  H32 UNL     1      18.287  32.153   9.149  1.00  0.00     0.274 HD
ATOM     12  H31 UNL     1      18.641  31.976   7.511  1.00  0.00     0.274 HD
ENDBRANCH   8   9
ENDBRANCH   7   8
TORSDOF 2
ENDMDL