MODEL 2
REMARK VINA RESULT: -2.229828029      1.749      3.944
REMARK  1 active torsions:
REMARK  status: ('A' for Active; 'I' for Inactive)
REMARK    1  A    between atoms: C2_2  and  C3_3
ROOT
HETATM    1  C3  UNL     1      21.645  33.865   5.415  1.00  0.00     0.027 A
HETATM    2  C4  UNL     1      21.040  34.655   6.385  1.00  0.00     0.118 A
HETATM    3  N1  UNL     1      21.022  33.979   7.548  1.00  0.00    -0.334 N
HETATM    4  C5  UNL     1      20.464  34.500   8.784  1.00  0.00     0.158 C
HETATM    5  C6  UNL     1      21.599  32.780   7.345  1.00  0.00     0.194 A
HETATM    6  N2  UNL     1      21.787  31.747   8.324  1.00  0.00    -0.063 NA
HETATM    7  N3  UNL     1      21.971  32.727   6.047  1.00  0.00    -0.333 N
ATOM      8  H3  UNL     1      22.435  31.932   5.608  1.00  0.00     0.168 HD
ENDROOT
BRANCH   1   9
HETATM    9  C2  UNL     1      21.869  34.229   3.986  1.00  0.00     0.054 C
HETATM   10  C1  UNL     1      22.656  33.207   3.240  1.00  0.00     0.011 C
ENDBRANCH   1   9
TORSDOF 1
ENDMDL