MODEL 2
REMARK VINA RESULT: -2.320176840      8.653      9.129
REMARK  2 active torsions:
REMARK  status: ('A' for Active; 'I' for Inactive)
REMARK    1  A    between atoms: N1_1  and  N2_4
REMARK    2  A    between atoms: C1_6  and  N3_7
ROOT
HETATM    1  N3  UNL     1      21.266  33.031   7.661  1.00  0.00    -0.312 N
HETATM    2  C2  UNL     1      22.223  33.497   8.465  1.00  0.00     0.115 A
HETATM    3  C3  UNL     1      22.835  32.417   9.113  1.00  0.00     0.106 A
HETATM    4  N4  UNL     1      22.221  31.326   8.673  1.00  0.00    -0.360 N
ATOM      5  H4  UNL     1      22.432  30.368   8.952  1.00  0.00     0.166 HD
HETATM    6  C4  UNL     1      21.270  31.701   7.793  1.00  0.00     0.188 A
ENDROOT
BRANCH   1   7
HETATM    7  C1  UNL     1      20.423  33.798   6.840  1.00  0.00     0.204 C
HETATM    8  N2  UNL     1      20.514  33.815   5.546  1.00  0.00    -0.302 N
ATOM      9  H2  UNL     1      21.234  33.244   5.103  1.00  0.00     0.187 HD
BRANCH   8  10
HETATM   10  N1  UNL     1      19.681  34.572   4.739  1.00  0.00    -0.344 N
ATOM     11  H12 UNL     1      18.746  34.776   5.091  1.00  0.00     0.176 HD
ATOM     12  H11 UNL     1      19.963  34.925   3.824  1.00  0.00     0.176 HD
ENDBRANCH   8  10
ENDBRANCH   1   7
TORSDOF 2
ENDMDL