MODEL 1
REMARK VINA RESULT: -0.709292247      0.000      0.000
REMARK  2 active torsions:
REMARK  status: ('A' for Active; 'I' for Inactive)
REMARK    1  A    between atoms: C4_7  and  C5_8
REMARK    2  A    between atoms: C5_8  and  N3_9
ROOT
HETATM    1  C1  UNL     1      15.900  35.281  11.612  1.00  0.00     0.177 C
HETATM    2  N1  UNL     1      15.553  35.253  13.040  1.00  0.00    -0.299 N
HETATM    3  N2  UNL     1      14.712  34.448  13.654  1.00  0.00    -0.310 N
ATOM      4  H2  UNL     1      14.173  33.713  13.198  1.00  0.00     0.186 HD
HETATM    5  C2  UNL     1      14.665  34.732  14.964  1.00  0.00     0.109 A
HETATM    6  C3  UNL     1      15.534  35.781  15.170  1.00  0.00     0.047 A
HETATM    7  C4  UNL     1      16.078  36.090  13.946  1.00  0.00     0.054 A
ENDROOT
BRANCH   7   8
HETATM    8  C5  UNL     1      17.068  37.152  13.670  1.00  0.00     0.288 C
BRANCH   8   9
HETATM    9  N3  UNL     1      18.397  36.600  13.409  1.00  0.00    -0.074 N
ATOM     10  H33 UNL     1      18.350  35.801  12.776  1.00  0.00     0.274 HD
ATOM     11  H32 UNL     1      18.954  37.229  12.831  1.00  0.00     0.274 HD
ATOM     12  H31 UNL     1      18.884  36.362  14.274  1.00  0.00     0.274 HD
ENDBRANCH   8   9
ENDBRANCH   7   8
TORSDOF 2
ENDMDL