MODEL 5
REMARK VINA RESULT: 0.832235673      8.358      8.854
REMARK  0 active torsions:
REMARK  status: ('A' for Active; 'I' for Inactive)
ROOT
HETATM    1  C1  UNL     1      20.901  31.001   7.638  1.00  0.00     0.047 C
HETATM    2  C2  UNL     1      21.304  32.226   7.899  1.00  0.00     0.069 A
HETATM    3  C3  UNL     1      20.750  33.463   7.303  1.00  0.00     0.126 A
HETATM    4  N1  UNL     1      19.793  33.557   6.441  1.00  0.00    -0.384 N
ATOM      5  H11 UNL     1      19.411  34.409   6.031  1.00  0.00     0.157 HD
ATOM      6  H12 UNL     1      19.246  32.809   6.015  1.00  0.00     0.157 HD
HETATM    7  N2  UNL     1      21.513  34.508   7.898  1.00  0.00    -0.337 N
ATOM      8  H2  UNL     1      21.404  35.505   7.718  1.00  0.00     0.168 HD
HETATM    9  C4  UNL     1      22.450  33.920   8.782  1.00  0.00     0.184 A
HETATM   10  N3  UNL     1      22.346  32.634   8.794  1.00  0.00    -0.345 N
HETATM   11  C5  UNL     1      23.153  31.705   9.590  1.00  0.00     0.157 C
ENDROOT
TORSDOF 0
ENDMDL