MODEL 1
REMARK VINA RESULT: -0.775412643      0.000      0.000
REMARK  0 active torsions:
REMARK  status: ('A' for Active; 'I' for Inactive)
ROOT
HETATM    1  C1  UNL     1      20.515  34.143   6.660  1.00  0.00     0.179 C
HETATM    2  N1  UNL     1      21.138  33.035   7.386  1.00  0.00    -0.282 N
HETATM    3  N2  UNL     1      20.926  31.742   7.214  1.00  0.00    -0.307 N
ATOM      4  H2  UNL     1      20.281  31.343   6.532  1.00  0.00     0.186 HD
HETATM    5  C2  UNL     1      21.682  31.027   8.068  1.00  0.00     0.137 A
HETATM    6  C3  UNL     1      22.424  31.907   8.831  1.00  0.00     0.105 A
HETATM    7  N3  UNL     1      23.360  31.623   9.859  1.00  0.00    -0.097 NA
HETATM    8  C4  UNL     1      22.055  33.166   8.373  1.00  0.00     0.158 A
HETATM    9  N4  UNL     1      22.577  34.406   8.883  1.00  0.00    -0.079 NA
ENDROOT
TORSDOF 0
ENDMDL