MODEL 3
REMARK VINA RESULT: -0.452583033      1.173      3.126
REMARK  2 active torsions:
REMARK  status: ('A' for Active; 'I' for Inactive)
REMARK    1  A    between atoms: C3_8  and  C4_9
REMARK    2  A    between atoms: C4_9  and  N4_10
ROOT
HETATM    1  C1  UNL     1      17.820  36.897  13.736  1.00  0.00     0.179 C
HETATM    2  N1  UNL     1      16.798  36.135  13.047  1.00  0.00    -0.282 N
HETATM    3  N2  UNL     1      16.733  36.031  11.730  1.00  0.00    -0.293 N
ATOM      4  H2  UNL     1      17.378  36.464  11.069  1.00  0.00     0.188 HD
HETATM    5  C2  UNL     1      15.663  35.251  11.398  1.00  0.00     0.199 A
HETATM    6  N3  UNL     1      15.111  34.907  12.578  1.00  0.00    -0.338 N
ATOM      7  H3  UNL     1      14.283  34.319  12.678  1.00  0.00     0.168 HD
HETATM    8  C3  UNL     1      15.793  35.439  13.603  1.00  0.00     0.124 A
ENDROOT
BRANCH   8   9
HETATM    9  C4  UNL     1      15.483  35.280  15.063  1.00  0.00     0.307 C
BRANCH   9  10
HETATM   10  N4  UNL     1      14.306  34.437  15.169  1.00  0.00    -0.073 N
ATOM     11  H43 UNL     1      13.776  34.599  16.026  1.00  0.00     0.274 HD
ATOM     12  H42 UNL     1      13.573  34.693  14.509  1.00  0.00     0.274 HD
ATOM     13  H41 UNL     1      14.613  33.469  15.069  1.00  0.00     0.274 HD
ENDBRANCH   9  10
ENDBRANCH   8   9
TORSDOF 2
ENDMDL