MODEL 5
REMARK VINA RESULT: 0.202436865      8.275      8.841
REMARK  1 active torsions:
REMARK  status: ('A' for Active; 'I' for Inactive)
REMARK    1  A    between atoms: C4_5  and  N2_6
ROOT
HETATM    1  C1  UNL     1      18.360  37.285  12.871  1.00  0.00     0.156 C
HETATM    2  N1  UNL     1      17.224  36.478  13.297  1.00  0.00    -0.357 N
HETATM    3  C2  UNL     1      16.775  36.509  14.565  1.00  0.00     0.095 A
HETATM    4  C3  UNL     1      15.694  35.735  14.951  1.00  0.00     0.065 A
HETATM    5  C4  UNL     1      15.047  34.912  14.050  1.00  0.00     0.100 A
HETATM    6  N3  UNL     1      15.525  34.907  12.792  1.00  0.00    -0.339 N
ATOM      7  H3  UNL     1      15.080  34.314  12.091  1.00  0.00     0.168 HD
HETATM    8  C5  UNL     1      16.578  35.668  12.439  1.00  0.00     0.183 A
ENDROOT
BRANCH   5   9
HETATM    9  N2  UNL     1      14.024  34.173  14.399  1.00  0.00    -0.385 N
ATOM     10  H22 UNL     1      13.552  34.301  15.295  1.00  0.00     0.157 HD
ATOM     11  H21 UNL     1      13.654  33.442  13.792  1.00  0.00     0.157 HD
ENDBRANCH   5   9
TORSDOF 1
ENDMDL