MODEL 2
REMARK VINA RESULT: -2.312082203      1.251      3.122
REMARK  1 active torsions:
REMARK  status: ('A' for Active; 'I' for Inactive)
REMARK    1  A    between atoms: C2_2  and  N1_3
ROOT
HETATM    1  N1  UNL     1      21.324  32.568   7.592  1.00  0.00    -0.288 N
HETATM    2  C3  UNL     1      20.812  33.741   8.017  1.00  0.00     0.130 A
HETATM    3  C4  UNL     1      20.442  34.459   6.900  1.00  0.00     0.127 A
HETATM    4  N2  UNL     1      20.747  33.689   5.830  1.00  0.00    -0.296 N
ATOM      5  H2  UNL     1      20.597  33.935   4.852  1.00  0.00     0.187 HD
HETATM    6  N3  UNL     1      21.278  32.554   6.279  1.00  0.00    -0.241 N
ATOM      7  H3  UNL     1      21.602  31.786   5.691  1.00  0.00     0.208 HD
ENDROOT
BRANCH   1   8
HETATM    8  C2  UNL     1      21.824  31.542   8.502  1.00  0.00     0.145 C
HETATM    9  C1  UNL     1      23.027  32.009   9.267  1.00  0.00     0.028 C
ENDBRANCH   1   8
TORSDOF 1
ENDMDL