MODEL 4
REMARK VINA RESULT: -1.496270165      8.245      9.029
REMARK  2 active torsions:
REMARK  status: ('A' for Active; 'I' for Inactive)
REMARK    1  A    between atoms: C2_5  and  C3_6
REMARK    2  A    between atoms: C3_6  and  N3_7
ROOT
HETATM    1  C1  UNL     1      22.597  31.572   8.700  1.00  0.00     0.200 C
HETATM    2  N1  UNL     1      21.837  32.689   8.171  1.00  0.00    -0.239 N
HETATM    3  N2  UNL     1      21.316  32.690   6.957  1.00  0.00    -0.286 N
ATOM      4  H2  UNL     1      21.400  31.921   6.293  1.00  0.00     0.188 HD
HETATM    5  C2  UNL     1      20.662  33.838   6.712  1.00  0.00     0.069 A
HETATM    6  C4  UNL     1      20.792  34.588   7.858  1.00  0.00     0.137 A
HETATM    7  N4  UNL     1      21.517  33.833   8.706  1.00  0.00    -0.294 N
ATOM      8  H4  UNL     1      21.782  34.120   9.648  1.00  0.00     0.187 HD
ENDROOT
BRANCH   5   9
HETATM    9  C3  UNL     1      19.975  34.140   5.443  1.00  0.00     0.289 C
BRANCH   9  10
HETATM   10  N3  UNL     1      20.904  34.067   4.378  1.00  0.00    -0.074 N
ATOM     11  H33 UNL     1      21.760  34.585   4.575  1.00  0.00     0.274 HD
ATOM     12  H32 UNL     1      21.315  33.138   4.288  1.00  0.00     0.274 HD
ATOM     13  H31 UNL     1      20.455  34.375   3.516  1.00  0.00     0.274 HD
ENDBRANCH   9  10
ENDBRANCH   5   9
TORSDOF 2
ENDMDL