MODEL 5
REMARK VINA RESULT: -0.389830630      7.991      8.932
REMARK  2 active torsions:
REMARK  status: ('A' for Active; 'I' for Inactive)
REMARK    1  A    between atoms: C3_4  and  C4_5
REMARK    2  A    between atoms: C4_5  and  N2_6
ROOT
HETATM    1  C1  UNL     1      22.727  31.541   9.063  1.00  0.00     0.177 C
HETATM    2  N1  UNL     1      21.980  32.605   8.418  1.00  0.00    -0.308 N
HETATM    3  C2  UNL     1      21.334  32.516   7.240  1.00  0.00     0.119 A
HETATM    4  C3  UNL     1      20.748  33.727   6.965  1.00  0.00     0.001 A
HETATM    5  C5  UNL     1      21.058  34.560   8.019  1.00  0.00     0.117 A
HETATM    6  N3  UNL     1      21.815  33.833   8.887  1.00  0.00    -0.310 N
ATOM      7  H3  UNL     1      22.197  34.182   9.766  1.00  0.00     0.186 HD
ENDROOT
BRANCH   4   8
HETATM    8  C4  UNL     1      19.944  34.077   5.782  1.00  0.00     0.271 C
BRANCH   8   9
HETATM    9  N2  UNL     1      20.776  34.156   4.643  1.00  0.00    -0.075 N
ATOM     10  H23 UNL     1      20.658  35.037   4.143  1.00  0.00     0.274 HD
ATOM     11  H22 UNL     1      21.760  34.257   4.894  1.00  0.00     0.274 HD
ATOM     12  H21 UNL     1      20.615  33.350   4.040  1.00  0.00     0.274 HD
ENDBRANCH   8   9
ENDBRANCH   4   8
TORSDOF 2
ENDMDL