MODEL 4
REMARK VINA RESULT: -1.480107450      1.481      3.000
REMARK  2 active torsions:
REMARK  status: ('A' for Active; 'I' for Inactive)
REMARK    1  A    between atoms: C2_2  and  N1_3
REMARK    2  A    between atoms: C4_6  and  N3_7
ROOT
HETATM    1  N1  UNL     1      21.115  33.596   7.769  1.00  0.00     0.055 N
HETATM    2  C3  UNL     1      22.195  33.919   8.718  1.00  0.00     0.302 C
HETATM    3  N2  UNL     1      20.059  32.942   8.352  1.00  0.00     0.021 NA
HETATM    4  C4  UNL     1      20.914  32.281   7.343  1.00  0.00     0.524 A
ENDROOT
BRANCH   4   5
HETATM    5  N3  UNL     1      21.552  31.132   7.820  1.00  0.00    -0.032 N
ATOM      6  H33 UNL     1      21.658  30.515   7.016  1.00  0.00     0.278 HD
ATOM      7  H32 UNL     1      22.510  31.411   8.032  1.00  0.00     0.278 HD
ATOM      8  H31 UNL     1      21.254  30.539   8.594  1.00  0.00     0.278 HD
ENDBRANCH   4   5
BRANCH   1   9
HETATM    9  C2  UNL     1      20.907  34.668   6.831  1.00  0.00     0.260 C
HETATM   10  C1  UNL     1      20.234  34.213   5.561  1.00  0.00     0.036 C
ENDBRANCH   1   9
TORSDOF 2
ENDMDL