MODEL 1
REMARK VINA RESULT: -8.068038678      0.000      0.000
REMARK  11 active torsions:
REMARK  status: ('A' for Active; 'I' for Inactive)
REMARK    1  A    between atoms: C2_2  and  O1_3
REMARK    2  A    between atoms: C2_2  and  C3_5
REMARK    3  A    between atoms: C3_5  and  O2_6
REMARK    4  A    between atoms: C3_5  and  C4_8
REMARK    5  A    between atoms: C4_8  and  O3_9
REMARK    6  A    between atoms: C4_8  and  C5_11
REMARK    7  A    between atoms: C5_11  and  O4_12
REMARK    8  A    between atoms: C5_11  and  N1_14
REMARK    9  A    between atoms: N1_14  and  C6_16
REMARK   10  A    between atoms: C8_21  and  S1_22
REMARK   11  A    between atoms: S1_22  and  N4_23
ROOT
HETATM    1  C6  UNL     1     -15.791  -6.950  23.053  1.00  0.00     0.682 A
HETATM    2  N2  UNL     1     -16.243  -6.210  24.059  1.00  0.00    -0.177 N
ATOM      3  H2  UNL     1     -15.572  -5.702  24.634  1.00  0.00     0.185 HD
HETATM    4  C7  UNL     1     -17.555  -6.103  24.348  1.00  0.00     0.158 A
HETATM    5  N3  UNL     1     -18.032  -5.310  25.425  1.00  0.00    -0.080 NA
HETATM    6  C8  UNL     1     -18.437  -6.807  23.543  1.00  0.00     0.159 A
HETATM    7  C9  UNL     1     -17.959  -7.566  22.509  1.00  0.00     0.143 A
HETATM    8  S2  UNL     1     -18.995  -8.397  21.559  1.00  0.00    -0.058 SA
HETATM    9  N5  UNL     1     -16.639  -7.630  22.275  1.00  0.00    -0.180 N
ATOM     10  H5  UNL     1     -16.283  -8.196  21.505  1.00  0.00     0.185 HD
ENDROOT
BRANCH   1  11
HETATM   11  N1  UNL     1     -14.533  -7.049  22.778  1.00  0.00    -0.197 N
ATOM     12  H1  UNL     1     -14.207  -7.809  22.179  1.00  0.00     0.180 HD
BRANCH  11  13
HETATM   13  C5  UNL     1     -13.553  -6.076  23.319  1.00  0.00     0.266 C
BRANCH  13  14
HETATM   14  C4  UNL     1     -12.854  -6.835  24.414  1.00  0.00     0.198 C
BRANCH  14  15
HETATM   15  C3  UNL     1     -13.097  -8.332  24.418  1.00  0.00     0.179 C
BRANCH  15  16
HETATM   16  C2  UNL     1     -12.527  -9.055  25.610  1.00  0.00     0.145 C
HETATM   17  C1  UNL     1     -13.143  -8.723  26.922  1.00  0.00     0.042 C
BRANCH  16  18
HETATM   18  O1  UNL     1     -11.147  -9.097  25.581  1.00  0.00    -0.393 OA
ATOM     19  H1  UNL     1     -10.761  -9.796  25.066  1.00  0.00     0.210 HD
ENDBRANCH  16  18
ENDBRANCH  15  16
BRANCH  15  20
HETATM   20  O2  UNL     1     -12.357  -8.761  23.260  1.00  0.00    -0.390 OA
ATOM     21  H2  UNL     1     -11.688  -8.108  23.093  1.00  0.00     0.210 HD
ENDBRANCH  15  20
ENDBRANCH  14  15
BRANCH  14  22
HETATM   22  O3  UNL     1     -11.470  -6.747  24.043  1.00  0.00    -0.389 OA
ATOM     23  H3  UNL     1     -11.149  -7.620  24.238  1.00  0.00     0.210 HD
ENDBRANCH  14  22
ENDBRANCH  13  14
BRANCH  13  24
HETATM   24  O4  UNL     1     -12.737  -5.820  22.211  1.00  0.00    -0.373 OA
ATOM     25  H4  UNL     1     -12.177  -5.060  22.321  1.00  0.00     0.212 HD
ENDBRANCH  13  24
ENDBRANCH  11  13
ENDBRANCH   1  11
BRANCH   6  26
HETATM   26  S1  UNL     1     -20.141  -6.732  23.838  1.00  0.00     0.263 S
HETATM   27  O5  UNL     1     -20.511  -7.669  24.960  1.00  0.00    -0.201 OA
HETATM   28  O6  UNL     1     -20.888  -7.191  22.613  1.00  0.00    -0.201 OA
BRANCH  26  29
HETATM   29  N4  UNL     1     -20.666  -5.162  24.259  1.00  0.00    -0.324 N
ATOM     30  H42 UNL     1     -21.645  -4.880  24.228  1.00  0.00     0.169 HD
ATOM     31  H41 UNL     1     -19.897  -4.553  24.538  1.00  0.00     0.169 HD
ENDBRANCH  26  29
ENDBRANCH   6  26
TORSDOF 11
ENDMDL