MODEL 4
REMARK VINA RESULT: -7.624246790      2.400      7.092
REMARK  9 active torsions:
REMARK  status: ('A' for Active; 'I' for Inactive)
REMARK    1  A    between atoms: N1_2  and  C2_4
REMARK    2  A    between atoms: C3_7  and  N3_8
REMARK    3  A    between atoms: N3_8  and  N4_10
REMARK    4  A    between atoms: N4_10  and  C4_12
REMARK    5  A    between atoms: C4_12  and  O1_13
REMARK    6  A    between atoms: O1_13  and  C5_14
REMARK    7  A    between atoms: C5_14  and  C6_16
REMARK    8  A    between atoms: C6_16  and  N5_17
REMARK    9  A    between atoms: C10_30  and  N9_31
ROOT
HETATM    1  C2  UNL     1     -18.862  -6.718  23.936  1.00  0.00     0.681 A
HETATM    2  N2  UNL     1     -18.342  -7.062  22.746  1.00  0.00    -0.173 N
ATOM      3  H2  UNL     1     -18.922  -6.966  21.912  1.00  0.00     0.186 HD
HETATM    4  C3  UNL     1     -17.087  -7.528  22.611  1.00  0.00     0.167 A
HETATM    5  C7  UNL     1     -16.321  -7.652  23.742  1.00  0.00     0.152 A
HETATM    6  C8  UNL     1     -16.844  -7.298  24.993  1.00  0.00     0.168 A
HETATM    7  N6  UNL     1     -18.111  -6.840  25.034  1.00  0.00    -0.174 N
ATOM      8  H6  UNL     1     -18.511  -6.577  25.935  1.00  0.00     0.186 HD
HETATM    9  N7  UNL     1     -15.915  -7.505  25.943  1.00  0.00    -0.172 N
ATOM     10  H7  UNL     1     -16.010  -7.339  26.945  1.00  0.00     0.186 HD
HETATM   11  C9  UNL     1     -14.832  -7.979  25.297  1.00  0.00     0.709 A
HETATM   12  N8  UNL     1     -13.623  -8.348  25.780  1.00  0.00    -0.022 N
ATOM     13  H8  UNL     1     -13.431  -8.285  26.779  1.00  0.00     0.203 HD
HETATM   14  C10 UNL     1     -12.678  -8.797  24.941  1.00  0.00     0.694 A
HETATM   15  N10 UNL     1     -12.910  -8.889  23.629  1.00  0.00    -0.140 N
ATOM     16  H10 UNL     1     -12.177  -9.234  23.007  1.00  0.00     0.189 HD
HETATM   17  C11 UNL     1     -14.125  -8.523  23.113  1.00  0.00     0.360 A
HETATM   18  O3  UNL     1     -14.261  -8.639  21.867  1.00  0.00    -0.245 OA
HETATM   19  N11 UNL     1     -15.049  -8.078  23.969  1.00  0.00    -0.087 N
ENDROOT
BRANCH   4  20
HETATM   20  N3  UNL     1     -16.729  -7.816  21.430  1.00  0.00    -0.285 N
ATOM     21  H3  UNL     1     -16.896  -8.768  21.106  1.00  0.00     0.188 HD
BRANCH  20  22
HETATM   22  N4  UNL     1     -16.128  -6.935  20.547  1.00  0.00    -0.311 N
ATOM     23  H4  UNL     1     -15.405  -6.308  20.901  1.00  0.00     0.182 HD
BRANCH  22  24
HETATM   24  C4  UNL     1     -16.477  -6.861  19.140  1.00  0.00     0.318 C
BRANCH  24  25
HETATM   25  O1  UNL     1     -17.078  -5.639  18.809  1.00  0.00    -0.299 OA
BRANCH  25  26
HETATM   26  C5  UNL     1     -18.309  -5.350  19.378  1.00  0.00     0.286 C
HETATM   27  O2  UNL     1     -18.391  -5.020  20.605  1.00  0.00    -0.263 OA
BRANCH  26  28
HETATM   28  C6  UNL     1     -19.574  -5.406  18.607  1.00  0.00     0.340 C
BRANCH  28  29
HETATM   29  N5  UNL     1     -20.146  -4.078  18.506  1.00  0.00    -0.070 N
ATOM     30  H53 UNL     1     -20.485  -3.877  17.564  1.00  0.00     0.274 HD
ATOM     31  H52 UNL     1     -21.035  -4.005  19.001  1.00  0.00     0.274 HD
ATOM     32  H51 UNL     1     -19.471  -3.385  18.826  1.00  0.00     0.274 HD
ENDBRANCH  28  29
ENDBRANCH  26  28
ENDBRANCH  25  26
ENDBRANCH  24  25
ENDBRANCH  22  24
ENDBRANCH  20  22
ENDBRANCH   4  20
BRANCH   1  33
HETATM   33  N1  UNL     1     -20.090  -6.266  24.022  1.00  0.00    -0.230 N
HETATM   34  C1  UNL     1     -20.401  -4.876  24.100  1.00  0.00     0.165 C
ATOM     35  H1  UNL     1     -20.856  -6.939  24.035  1.00  0.00     0.177 HD
ENDBRANCH   1  33
BRANCH  14  36
HETATM   36  N9  UNL     1     -11.495  -9.165  25.367  1.00  0.00    -0.234 N
ATOM     37  H92 UNL     1     -10.685  -8.738  24.917  1.00  0.00     0.174 HD
ATOM     38  H91 UNL     1     -11.381  -9.848  26.115  1.00  0.00     0.174 HD
ENDBRANCH  14  36
TORSDOF 9
ENDMDL