MODEL 2
REMARK VINA RESULT: -8.426336607      1.224      1.229
REMARK  8 active torsions:
REMARK  status: ('A' for Active; 'I' for Inactive)
REMARK    1  A    between atoms: N1_1  and  C1_4
REMARK    2  A    between atoms: C2_7  and  N3_8
REMARK    3  A    between atoms: N3_8  and  C3_10
REMARK    4  A    between atoms: C3_10  and  C4_11
REMARK    5  A    between atoms: C4_11  and  O1_12
REMARK    6  A    between atoms: N5_21  and  C8_22
REMARK    7  A    between atoms: C10_24  and  C11_25
REMARK    8  A    between atoms: C11_25  and  O4_26
ROOT
HETATM    1  C1  UNL     1     -17.717  -5.182  22.666  1.00  0.00     0.679 A
HETATM    2  N2  UNL     1     -18.878  -5.452  22.008  1.00  0.00    -0.176 N
ATOM      3  H2  UNL     1     -19.690  -4.855  22.163  1.00  0.00     0.186 HD
HETATM    4  C2  UNL     1     -18.979  -6.488  21.157  1.00  0.00     0.136 A
HETATM    5  C5  UNL     1     -17.873  -7.283  20.960  1.00  0.00     0.121 A
HETATM    6  C6  UNL     1     -17.930  -8.351  20.100  1.00  0.00     0.267 A
HETATM    7  O2  UNL     1     -19.005  -8.582  19.506  1.00  0.00    -0.267 OA
HETATM    8  N4  UNL     1     -16.812  -9.120  19.928  1.00  0.00    -0.274 N
ATOM      9  H4  UNL     1     -16.842  -9.917  19.292  1.00  0.00     0.173 HD
HETATM   10  C7  UNL     1     -15.683  -8.840  20.583  1.00  0.00     0.333 A
HETATM   11  O3  UNL     1     -14.680  -9.548  20.414  1.00  0.00    -0.246 OA
HETATM   12  N5  UNL     1     -15.619  -7.799  21.422  1.00  0.00    -0.254 N
HETATM   13  C13 UNL     1     -16.689  -6.991  21.644  1.00  0.00     0.149 A
HETATM   14  N7  UNL     1     -16.632  -5.949  22.484  1.00  0.00    -0.175 N
ATOM     15  H7  UNL     1     -15.767  -5.738  22.981  1.00  0.00     0.186 HD
ENDROOT
BRANCH  12  16
HETATM   16  C8  UNL     1     -14.385  -7.554  22.091  1.00  0.00     0.259 C
HETATM   17  C9  UNL     1     -14.350  -8.013  23.528  1.00  0.00     0.064 C
HETATM   18  C10 UNL     1     -12.920  -7.813  24.006  1.00  0.00     0.030 C
HETATM   19  C12 UNL     1     -12.635  -6.337  23.921  1.00  0.00     0.149 C
HETATM   20  N6  UNL     1     -12.858  -5.923  22.551  1.00  0.00    -0.098 NA
HETATM   21  O5  UNL     1     -14.078  -6.167  22.103  1.00  0.00    -0.260 OA
BRANCH  18  22
HETATM   22  C11 UNL     1     -12.712  -8.369  25.394  1.00  0.00     0.170 C
BRANCH  22  23
HETATM   23  O4  UNL     1     -11.451  -8.869  25.592  1.00  0.00    -0.400 OA
ATOM     24  H4  UNL     1     -11.168  -9.456  24.902  1.00  0.00     0.209 HD
ENDBRANCH  22  23
ENDBRANCH  18  22
ENDBRANCH  12  16
BRANCH   4  25
HETATM   25  N3  UNL     1     -20.048  -6.791  20.508  1.00  0.00    -0.373 N
ATOM     26  H3  UNL     1     -19.925  -7.116  19.549  1.00  0.00     0.161 HD
BRANCH  25  27
HETATM   27  C3  UNL     1     -21.390  -6.719  20.994  1.00  0.00     0.147 C
BRANCH  27  28
HETATM   28  C4  UNL     1     -22.071  -5.547  20.276  1.00  0.00     0.183 C
BRANCH  28  29
HETATM   29  O1  UNL     1     -23.431  -5.670  20.513  1.00  0.00    -0.399 OA
ATOM     30  H1  UNL     1     -23.642  -6.592  20.428  1.00  0.00     0.209 HD
ENDBRANCH  28  29
ENDBRANCH  27  28
ENDBRANCH  25  27
ENDBRANCH   4  25
BRANCH   1  31
HETATM   31  N1  UNL     1     -17.698  -4.158  23.476  1.00  0.00    -0.234 N
ATOM     32  H12 UNL     1     -16.940  -3.476  23.451  1.00  0.00     0.174 HD
ATOM     33  H11 UNL     1     -18.466  -4.058  24.139  1.00  0.00     0.174 HD
ENDBRANCH   1  31
TORSDOF 8
ENDMDL