MODEL 2
REMARK VINA RESULT: -9.496037398      2.496      3.644
REMARK  7 active torsions:
REMARK  status: ('A' for Active; 'I' for Inactive)
REMARK    1  A    between atoms: C4_9  and  O3_10
REMARK    2  A    between atoms: C4_9  and  C5_12
REMARK    3  A    between atoms: C5_12  and  C6_13
REMARK    4  A    between atoms: C6_13  and  N3_14
REMARK    5  A    between atoms: C6_13  and  C8_23
REMARK    6  A    between atoms: N3_14  and  N4_16
REMARK       I    between atoms: N4_16  and  C7_18
REMARK    7  A    between atoms: C10_29  and  O6_30
ROOT
HETATM    1  C6  UNL     1     -14.776  -7.808  23.644  1.00  0.00     0.086 C
ENDROOT
BRANCH   1   2
HETATM    2  C5  UNL     1     -16.143  -7.493  23.904  1.00  0.00     0.064 C
BRANCH   2   3
HETATM    3  C4  UNL     1     -16.793  -6.217  23.541  1.00  0.00     0.241 C
HETATM    4  C3  UNL     1     -18.013  -6.611  22.712  1.00  0.00     0.274 C
HETATM    5  N2  UNL     1     -18.881  -5.591  22.286  1.00  0.00    -0.276 N
HETATM    6  O2  UNL     1     -18.219  -7.839  22.424  1.00  0.00    -0.269 OA
HETATM    7  C2  UNL     1     -18.968  -4.399  23.049  1.00  0.00     0.331 C
ATOM      8  H2  UNL     1     -19.440  -5.706  21.441  1.00  0.00     0.173 HD
HETATM    9  N1  UNL     1     -18.173  -4.277  24.212  1.00  0.00    -0.271 N
HETATM   10  O1  UNL     1     -19.752  -3.508  22.649  1.00  0.00    -0.246 OA
HETATM   11  C1  UNL     1     -18.271  -3.050  25.018  1.00  0.00     0.164 C
HETATM   12  C11 UNL     1     -17.276  -5.351  24.621  1.00  0.00     0.276 C
HETATM   13  O7  UNL     1     -17.023  -5.404  25.832  1.00  0.00    -0.269 OA
BRANCH   3  14
HETATM   14  O3  UNL     1     -16.083  -5.370  22.682  1.00  0.00    -0.368 OA
ATOM     15  H3  UNL     1     -15.817  -5.948  21.978  1.00  0.00     0.212 HD
ENDBRANCH   3  14
ENDBRANCH   2   3
ENDBRANCH   1   2
BRANCH   1  16
HETATM   16  N3  UNL     1     -14.349  -7.591  22.413  1.00  0.00    -0.296 N
ATOM     17  H3  UNL     1     -13.372  -7.320  22.303  1.00  0.00     0.187 HD
BRANCH  16  18
HETATM   18  N4  UNL     1     -15.090  -7.695  21.282  1.00  0.00    -0.273 N
HETATM   19  C7  UNL     1     -15.257  -8.960  20.583  1.00  0.00     0.200 C
HETATM   20  N5  UNL     1     -14.281  -9.795  20.626  1.00  0.00    -0.372 N
HETATM   21  N6  UNL     1     -16.444  -9.266  19.880  1.00  0.00    -0.062 NA
ATOM     22  H52 UNL     1     -13.424  -9.574  21.134  1.00  0.00     0.158 HD
ATOM     23  H51 UNL     1     -14.398 -10.682  20.136  1.00  0.00     0.158 HD
ATOM     24  H4  UNL     1     -15.543  -6.861  20.909  1.00  0.00     0.189 HD
ENDBRANCH  16  18
ENDBRANCH   1  16
BRANCH   1  25
HETATM   25  C8  UNL     1     -13.733  -8.358  24.493  1.00  0.00     0.159 A
HETATM   26  O4  UNL     1     -13.595  -8.058  25.780  1.00  0.00    -0.254 OA
HETATM   27  C9  UNL     1     -12.588  -8.660  26.325  1.00  0.00     0.372 A
HETATM   28  O5  UNL     1     -12.170  -8.604  27.521  1.00  0.00    -0.238 OA
HETATM   29  N7  UNL     1     -11.990  -9.414  25.394  1.00  0.00    -0.280 N
HETATM   30  C10 UNL     1     -12.707  -9.227  24.247  1.00  0.00     0.181 A
ATOM     31  H7  UNL     1     -11.168 -10.006  25.516  1.00  0.00     0.173 HD
BRANCH  30  32
HETATM   32  O6  UNL     1     -12.374  -9.864  23.091  1.00  0.00    -0.344 OA
ATOM     33  H6  UNL     1     -11.571  -9.814  22.585  1.00  0.00     0.219 HD
ENDBRANCH  30  32
ENDBRANCH   1  25
TORSDOF 7
ENDMDL