MODEL 2
REMARK VINA RESULT: -8.346252457      2.112      3.688
REMARK  6 active torsions:
REMARK  status: ('A' for Active; 'I' for Inactive)
REMARK       I    between atoms: C2_2  and  N1_4
REMARK    1  A    between atoms: N1_4  and  C3_6
REMARK    2  A    between atoms: C4_7  and  N2_8
REMARK    3  A    between atoms: N2_8  and  C5_10
REMARK    4  A    between atoms: C8_19  and  N5_20
REMARK    5  A    between atoms: C11_25  and  N7_26
REMARK    6  A    between atoms: N8_29  and  N9_30
ROOT
HETATM    1  C3  UNL     1     -17.538  -6.531  23.842  1.00  0.00     0.150 A
HETATM    2  C4  UNL     1     -17.252  -6.685  22.500  1.00  0.00     0.151 A
HETATM    3  N6  UNL     1     -16.117  -7.350  22.229  1.00  0.00    -0.173 N
ATOM      4  H6  UNL     1     -15.854  -7.494  21.254  1.00  0.00     0.186 HD
HETATM    5  C11 UNL     1     -15.305  -7.839  23.202  1.00  0.00     0.701 A
HETATM    6  N8  UNL     1     -15.586  -7.687  24.520  1.00  0.00    -0.052 N
HETATM    7  C12 UNL     1     -16.712  -7.027  24.828  1.00  0.00     0.312 A
HETATM    8  O4  UNL     1     -16.983  -6.882  26.049  1.00  0.00    -0.263 OA
ENDROOT
BRANCH   2   9
HETATM    9  N2  UNL     1     -18.088  -6.175  21.476  1.00  0.00    -0.350 N
ATOM     10  H2  UNL     1     -17.948  -5.189  21.251  1.00  0.00     0.163 HD
BRANCH   9  11
HETATM   11  C5  UNL     1     -19.080  -6.830  20.726  1.00  0.00     0.219 C
HETATM   12  N3  UNL     1     -19.159  -8.254  21.104  1.00  0.00    -0.319 N
HETATM   13  C6  UNL     1     -20.015  -9.144  20.436  1.00  0.00     0.324 C
ATOM     14  H3  UNL     1     -18.579  -8.600  21.868  1.00  0.00     0.166 HD
HETATM   15  O2  UNL     1     -20.160 -10.309  20.872  1.00  0.00    -0.247 OA
HETATM   16  N4  UNL     1     -20.676  -8.645  19.275  1.00  0.00    -0.277 N
HETATM   17  C7  UNL     1     -20.460  -7.320  18.849  1.00  0.00     0.252 C
ATOM     18  H4  UNL     1     -21.308  -9.250  18.752  1.00  0.00     0.173 HD
HETATM   19  O3  UNL     1     -21.328  -6.741  18.172  1.00  0.00    -0.271 OA
HETATM   20  C8  UNL     1     -19.150  -6.715  19.271  1.00  0.00     0.214 C
BRANCH  20  21
HETATM   21  N5  UNL     1     -18.910  -5.485  18.630  1.00  0.00    -0.406 N
HETATM   22  C9  UNL     1     -17.569  -5.191  18.238  1.00  0.00     0.143 C
HETATM   23  C10 UNL     1     -19.508  -4.327  19.195  1.00  0.00     0.143 C
ENDBRANCH  20  21
ENDBRANCH   9  11
ENDBRANCH   2   9
BRANCH   1  24
HETATM   24  N1  UNL     1     -18.706  -5.848  24.251  1.00  0.00    -0.320 N
HETATM   25  C2  UNL     1     -19.930  -6.537  24.304  1.00  0.00     0.218 C
HETATM   26  C1  UNL     1     -21.168  -5.851  24.728  1.00  0.00     0.117 C
HETATM   27  O1  UNL     1     -20.013  -7.758  23.992  1.00  0.00    -0.274 OA
ATOM     28  H1  UNL     1     -18.660  -4.862  24.507  1.00  0.00     0.169 HD
ENDBRANCH   1  24
BRANCH   5  29
HETATM   29  N7  UNL     1     -14.220  -8.474  22.916  1.00  0.00    -0.233 N
ATOM     30  H72 UNL     1     -13.837  -8.322  21.983  1.00  0.00     0.174 HD
ATOM     31  H71 UNL     1     -13.774  -9.095  23.591  1.00  0.00     0.174 HD
ENDBRANCH   5  29
BRANCH   6  32
HETATM   32  N9  UNL     1     -14.725  -8.204  25.504  1.00  0.00    -0.321 N
ATOM     33  H92 UNL     1     -14.094  -7.611  26.042  1.00  0.00     0.178 HD
ATOM     34  H91 UNL     1     -14.707  -9.203  25.710  1.00  0.00     0.178 HD
ENDBRANCH   6  32
TORSDOF 6
ENDMDL