MODEL 1
REMARK VINA RESULT: -7.988992978      0.000      0.000
REMARK  8 active torsions:
REMARK  status: ('A' for Active; 'I' for Inactive)
REMARK    1  A    between atoms: C2_3  and  O1_4
REMARK    2  A    between atoms: C3_6  and  O2_7
REMARK    3  A    between atoms: C4_9  and  N2_10
REMARK    4  A    between atoms: N2_10  and  S1_12
REMARK    5  A    between atoms: S1_12  and  O5_15
REMARK    6  A    between atoms: O5_15  and  N3_16
REMARK    7  A    between atoms: C7_24  and  N6_25
REMARK    8  A    between atoms: N6_25  and  N7_26
ROOT
HETATM    1  S1  UNL     1     -15.926  -6.917  22.026  1.00  0.00     0.384 S
HETATM    2  O3  UNL     1     -15.507  -5.685  22.817  1.00  0.00    -0.174 OA
HETATM    3  O4  UNL     1     -16.022  -6.635  20.560  1.00  0.00    -0.174 OA
ENDROOT
BRANCH   1   4
HETATM    4  N2  UNL     1     -14.793  -8.160  22.399  1.00  0.00    -0.243 N
ATOM      5  H2  UNL     1     -14.394  -8.733  21.655  1.00  0.00     0.182 HD
BRANCH   4   6
HETATM    6  C4  UNL     1     -14.455  -8.358  23.621  1.00  0.00     0.158 A
HETATM    7  C3  UNL     1     -13.193  -8.924  23.837  1.00  0.00     0.162 A
HETATM    8  C2  UNL     1     -12.784  -9.156  25.127  1.00  0.00     0.183 A
HETATM    9  N1  UNL     1     -13.566  -8.853  26.170  1.00  0.00    -0.282 N
HETATM   10  C1  UNL     1     -13.151  -9.090  27.551  1.00  0.00     0.163 C
HETATM   11  C8  UNL     1     -14.768  -8.312  25.950  1.00  0.00     0.329 A
HETATM   12  N8  UNL     1     -15.193  -8.075  24.694  1.00  0.00    -0.291 N
HETATM   13  O6  UNL     1     -15.519  -8.020  26.939  1.00  0.00    -0.246 OA
ATOM     14  H8  UNL     1     -16.115  -7.662  24.559  1.00  0.00     0.172 HD
BRANCH   7  15
HETATM   15  O2  UNL     1     -12.384  -9.237  22.737  1.00  0.00    -0.354 OA
ATOM     16  H2  UNL     1     -11.644  -8.697  22.488  1.00  0.00     0.218 HD
ENDBRANCH   7  15
BRANCH   8  17
HETATM   17  O1  UNL     1     -11.532  -9.717  25.337  1.00  0.00    -0.344 OA
ATOM     18  H1  UNL     1     -10.807  -9.488  24.768  1.00  0.00     0.219 HD
ENDBRANCH   8  17
ENDBRANCH   4   6
ENDBRANCH   1   4
BRANCH   1  19
HETATM   19  O5  UNL     1     -17.467  -7.388  22.525  1.00  0.00    -0.127 OA
BRANCH  19  20
HETATM   20  N3  UNL     1     -18.261  -6.348  22.797  1.00  0.00    -0.185 N
HETATM   21  C5  UNL     1     -18.715  -5.353  21.889  1.00  0.00     0.198 C
HETATM   22  N4  UNL     1     -18.574  -5.387  20.607  1.00  0.00    -0.370 N
HETATM   23  N5  UNL     1     -19.347  -4.326  22.652  1.00  0.00    -0.357 N
ATOM     24  H42 UNL     1     -18.122  -6.121  20.061  1.00  0.00     0.159 HD
ATOM     25  H41 UNL     1     -18.899  -4.673  19.954  1.00  0.00     0.159 HD
HETATM   26  C6  UNL     1     -18.943  -4.531  24.041  1.00  0.00     0.169 C
ATOM     27  H5  UNL     1     -19.960  -3.593  22.297  1.00  0.00     0.162 HD
HETATM   28  C7  UNL     1     -18.828  -6.027  24.109  1.00  0.00     0.249 C
BRANCH  28  29
HETATM   29  N6  UNL     1     -17.879  -6.472  25.110  1.00  0.00    -0.118 NA
BRANCH  29  30
HETATM   30  N7  UNL     1     -17.049  -5.462  25.550  1.00  0.00    -0.346 N
ATOM     31  H72 UNL     1     -17.131  -4.499  25.222  1.00  0.00     0.172 HD
ATOM     32  H71 UNL     1     -16.357  -5.783  26.228  1.00  0.00     0.172 HD
ENDBRANCH  29  30
ENDBRANCH  28  29
ENDBRANCH  19  20
ENDBRANCH   1  19
TORSDOF 8
ENDMDL