MODEL 4
REMARK VINA RESULT: -7.853770086      2.745      4.937
REMARK  8 active torsions:
REMARK  status: ('A' for Active; 'I' for Inactive)
REMARK    1  A    between atoms: C3_8  and  N4_9
REMARK    2  A    between atoms: N4_9  and  C4_11
REMARK    3  A    between atoms: C4_11  and  C5_12
REMARK    4  A    between atoms: C5_12  and  N5_13
REMARK    5  A    between atoms: N5_13  and  C6_15
REMARK    6  A    between atoms: C8_19  and  C9_20
REMARK    7  A    between atoms: C9_20  and  O2_21
REMARK    8  A    between atoms: C9_20  and  O3_23
ROOT
HETATM    1  N4  UNL     1     -15.384  -7.156  21.346  1.00  0.00    -0.369 N
ATOM      2  H4  UNL     1     -14.771  -7.200  20.531  1.00  0.00     0.161 HD
ENDROOT
BRANCH   1   3
HETATM    3  C3  UNL     1     -16.573  -7.485  21.101  1.00  0.00     0.187 A
HETATM    4  C2  UNL     1     -17.634  -6.641  20.901  1.00  0.00     0.313 A
HETATM    5  N3  UNL     1     -18.889  -7.113  20.640  1.00  0.00    -0.191 N
HETATM    6  O1  UNL     1     -17.496  -5.416  20.950  1.00  0.00    -0.262 OA
HETATM    7  N2  UNL     1     -19.898  -6.264  20.451  1.00  0.00    -0.262 N
HETATM    8  C10 UNL     1     -19.116  -8.438  20.572  1.00  0.00     0.214 A
HETATM    9  C1  UNL     1     -21.141  -6.660  20.194  1.00  0.00     0.210 A
ATOM     10  H2  UNL     1     -19.709  -5.264  20.506  1.00  0.00     0.190 HD
HETATM   11  N1  UNL     1     -22.194  -5.713  19.997  1.00  0.00    -0.062 NA
HETATM   12  N10 UNL     1     -21.383  -7.985  20.122  1.00  0.00    -0.293 N
HETATM   13  C11 UNL     1     -20.397  -8.884  20.305  1.00  0.00     0.295 A
ATOM     14  H10 UNL     1     -22.329  -8.312  19.925  1.00  0.00     0.172 HD
HETATM   15  O4  UNL     1     -20.615 -10.119  20.240  1.00  0.00    -0.264 OA
HETATM   16  N9  UNL     1     -18.076  -9.248  20.768  1.00  0.00    -0.278 N
HETATM   17  N8  UNL     1     -16.850  -8.820  21.022  1.00  0.00    -0.279 N
ATOM     18  H9  UNL     1     -18.234 -10.254  20.718  1.00  0.00     0.189 HD
ATOM     19  H8  UNL     1     -16.101  -9.498  21.162  1.00  0.00     0.189 HD
ENDBRANCH   1   3
BRANCH   1  20
HETATM   20  C4  UNL     1     -14.730  -6.738  22.520  1.00  0.00     0.141 C
BRANCH  20  21
HETATM   21  C5  UNL     1     -15.318  -7.507  23.712  1.00  0.00     0.157 C
BRANCH  21  22
HETATM   22  N5  UNL     1     -15.905  -6.532  24.591  1.00  0.00    -0.224 N
ATOM     23  H5  UNL     1     -15.341  -6.161  25.356  1.00  0.00     0.177 HD
BRANCH  22  24
HETATM   24  C6  UNL     1     -17.117  -6.107  24.451  1.00  0.00     0.678 A
HETATM   25  N6  UNL     1     -17.583  -4.903  24.120  1.00  0.00    -0.200 N
HETATM   26  C7  UNL     1     -18.932  -4.914  24.093  1.00  0.00     0.136 A
ATOM     27  H6  UNL     1     -17.003  -4.089  23.916  1.00  0.00     0.183 HD
HETATM   28  C8  UNL     1     -19.326  -6.193  24.425  1.00  0.00     0.096 A
HETATM   29  N7  UNL     1     -18.197  -6.898  24.637  1.00  0.00    -0.189 N
ATOM     30  H7  UNL     1     -18.162  -7.883  24.901  1.00  0.00     0.184 HD
BRANCH  28  31
HETATM   31  C9  UNL     1     -20.733  -6.717  24.533  1.00  0.00     0.307 C
BRANCH  31  32
HETATM   32  O2  UNL     1     -20.788  -7.844  25.346  1.00  0.00    -0.366 OA
ATOM     33  H2  UNL     1     -21.412  -8.478  25.011  1.00  0.00     0.213 HD
ENDBRANCH  31  32
BRANCH  31  34
HETATM   34  O3  UNL     1     -21.153  -7.116  23.248  1.00  0.00    -0.366 OA
ATOM     35  H3  UNL     1     -20.650  -6.629  22.606  1.00  0.00     0.213 HD
ENDBRANCH  31  34
ENDBRANCH  28  31
ENDBRANCH  22  24
ENDBRANCH  21  22
ENDBRANCH  20  21
ENDBRANCH   1  20
TORSDOF 8
ENDMDL