MODEL 5
REMARK VINA RESULT: -7.961145703      4.811      8.518
REMARK  9 active torsions:
REMARK  status: ('A' for Active; 'I' for Inactive)
REMARK    1  A    between atoms: C1_4  and  N2_5
REMARK    2  A    between atoms: C4_12  and  O1_13
REMARK    3  A    between atoms: C5_15  and  N5_16
REMARK    4  A    between atoms: N6_21  and  C7_22
REMARK    5  A    between atoms: C9_24  and  N7_25
REMARK    6  A    between atoms: N7_25  and  C10_27
REMARK    7  A    between atoms: C10_27  and  C11_28
REMARK    8  A    between atoms: C11_28  and  O2_29
REMARK    9  A    between atoms: C12_33  and  N9_34
ROOT
HETATM    1  N2  UNL     1     -17.103  -7.514  19.519  1.00  0.00    -0.237 N
HETATM    2  N3  UNL     1     -16.318  -6.735  18.790  1.00  0.00    -0.235 N
ATOM      3  H3  UNL     1     -15.351  -6.948  18.546  1.00  0.00     0.209 HD
HETATM    4  N4  UNL     1     -16.961  -5.652  18.426  1.00  0.00    -0.286 N
ATOM      5  H4  UNL     1     -16.584  -4.892  17.861  1.00  0.00     0.188 HD
HETATM    6  C2  UNL     1     -18.194  -5.720  18.927  1.00  0.00     0.072 A
HETATM    7  C3  UNL     1     -18.292  -6.901  19.623  1.00  0.00     0.093 A
HETATM    8  C4  UNL     1     -19.421  -7.467  20.362  1.00  0.00     0.204 C
HETATM    9  C5  UNL     1     -20.144  -6.552  21.279  1.00  0.00     0.236 C
HETATM   10  C6  UNL     1     -19.767  -5.113  21.234  1.00  0.00     0.160 C
HETATM   11  N6  UNL     1     -19.991  -4.486  19.955  1.00  0.00    -0.359 N
HETATM   12  C13 UNL     1     -19.253  -4.681  18.736  1.00  0.00     0.185 C
ENDROOT
BRANCH  11  13
HETATM   13  C7  UNL     1     -21.038  -3.546  19.832  1.00  0.00     0.123 A
HETATM   14  C8  UNL     1     -21.781  -3.056  20.871  1.00  0.00     0.097 A
HETATM   15  C9  UNL     1     -22.804  -2.111  20.690  1.00  0.00     0.120 A
HETATM   16  N8  UNL     1     -23.059  -1.681  19.464  1.00  0.00    -0.177 N
HETATM   17  C12 UNL     1     -22.311  -2.178  18.427  1.00  0.00     0.679 A
ATOM     18  H8  UNL     1     -23.795  -0.995  19.294  1.00  0.00     0.185 HD
HETATM   19  N10 UNL     1     -21.338  -3.076  18.611  1.00  0.00    -0.177 N
ATOM     20  H10 UNL     1     -20.811  -3.412  17.805  1.00  0.00     0.185 HD
BRANCH  15  21
HETATM   21  N7  UNL     1     -23.445  -1.708  21.707  1.00  0.00    -0.374 N
ATOM     22  H7  UNL     1     -23.393  -0.712  21.919  1.00  0.00     0.161 HD
BRANCH  21  23
HETATM   23  C10 UNL     1     -24.228  -2.509  22.577  1.00  0.00     0.147 C
BRANCH  23  24
HETATM   24  C11 UNL     1     -23.768  -2.307  24.019  1.00  0.00     0.183 C
BRANCH  24  25
HETATM   25  O2  UNL     1     -23.733  -3.565  24.602  1.00  0.00    -0.399 OA
ATOM     26  H2  UNL     1     -23.677  -3.427  25.540  1.00  0.00     0.209 HD
ENDBRANCH  24  25
ENDBRANCH  23  24
ENDBRANCH  21  23
ENDBRANCH  15  21
BRANCH  17  27
HETATM   27  N9  UNL     1     -22.623  -1.716  17.246  1.00  0.00    -0.234 N
ATOM     28  H92 UNL     1     -23.589  -1.633  16.928  1.00  0.00     0.174 HD
ATOM     29  H91 UNL     1     -21.832  -1.438  16.666  1.00  0.00     0.174 HD
ENDBRANCH  17  27
ENDBRANCH  11  13
BRANCH   9  30
HETATM   30  N5  UNL     1     -19.945  -7.050  22.647  1.00  0.00    -0.071 N
ATOM     31  H53 UNL     1     -20.817  -7.317  23.104  1.00  0.00     0.274 HD
ATOM     32  H52 UNL     1     -19.494  -7.965  22.675  1.00  0.00     0.274 HD
ATOM     33  H51 UNL     1     -19.428  -6.337  23.161  1.00  0.00     0.274 HD
ENDBRANCH   9  30
BRANCH   8  34
HETATM   34  O1  UNL     1     -20.362  -7.963  19.428  1.00  0.00    -0.387 OA
ATOM     35  H1  UNL     1     -20.032  -8.782  19.078  1.00  0.00     0.210 HD
ENDBRANCH   8  34
BRANCH   1  36
HETATM   36  C1  UNL     1     -16.682  -8.783  20.068  1.00  0.00     0.201 C
HETATM   37  N1  UNL     1     -15.398  -8.933  20.175  1.00  0.00    -0.394 N
ATOM     38  H12 UNL     1     -14.748  -8.201  19.889  1.00  0.00     0.156 HD
ATOM     39  H11 UNL     1     -15.101  -9.829  20.562  1.00  0.00     0.156 HD
ENDBRANCH   1  36
TORSDOF 9
ENDMDL