MODEL 3
REMARK VINA RESULT: -8.772552907      4.523      7.982
REMARK  8 active torsions:
REMARK  status: ('A' for Active; 'I' for Inactive)
REMARK    1  A    between atoms: N1_2  and  C2_3
REMARK    2  A    between atoms: N1_2  and  C7_20
REMARK    3  A    between atoms: C2_3  and  C3_4
REMARK    4  A    between atoms: C4_8  and  C5_9
REMARK    5  A    between atoms: C5_9  and  O1_10
REMARK    6  A    between atoms: C6_12  and  N3_13
REMARK    7  A    between atoms: C6_12  and  O2_17
REMARK    8  A    between atoms: C9_26  and  N6_27
ROOT
HETATM    1  C7  UNL     1     -20.512  -5.282  22.699  1.00  0.00     0.686 A
HETATM    2  N4  UNL     1     -21.560  -5.558  21.888  1.00  0.00    -0.175 N
ATOM      3  H4  UNL     1     -21.755  -6.537  21.679  1.00  0.00     0.186 HD
HETATM    4  C8  UNL     1     -22.357  -4.633  21.342  1.00  0.00     0.158 A
HETATM    5  N5  UNL     1     -23.404  -4.990  20.534  1.00  0.00    -0.175 N
ATOM      6  H5  UNL     1     -23.577  -5.976  20.340  1.00  0.00     0.186 HD
HETATM    7  C9  UNL     1     -24.204  -4.057  19.993  1.00  0.00     0.680 A
HETATM    8  N7  UNL     1     -23.949  -2.767  20.267  1.00  0.00    -0.155 N
ATOM      9  H7  UNL     1     -24.553  -2.053  19.859  1.00  0.00     0.187 HD
HETATM   10  C10 UNL     1     -22.925  -2.372  21.062  1.00  0.00     0.279 A
HETATM   11  O4  UNL     1     -22.690  -1.176  21.316  1.00  0.00    -0.266 OA
HETATM   12  C11 UNL     1     -22.094  -3.310  21.624  1.00  0.00     0.146 A
HETATM   13  C12 UNL     1     -21.033  -3.011  22.448  1.00  0.00     0.281 A
HETATM   14  O5  UNL     1     -20.787  -1.802  22.708  1.00  0.00    -0.266 OA
HETATM   15  N8  UNL     1     -20.254  -3.994  22.976  1.00  0.00    -0.151 N
HETATM   16  C13 UNL     1     -19.141  -3.631  23.836  1.00  0.00     0.179 C
ENDROOT
BRANCH   1  17
HETATM   17  N1  UNL     1     -19.711  -6.366  23.227  1.00  0.00    -0.217 N
HETATM   18  C1  UNL     1     -20.247  -6.996  24.417  1.00  0.00     0.169 C
BRANCH  17  19
HETATM   19  C2  UNL     1     -18.497  -6.802  22.647  1.00  0.00     0.202 C
BRANCH  19  20
HETATM   20  C3  UNL     1     -18.557  -7.740  21.489  1.00  0.00     0.344 C
HETATM   21  N2  UNL     1     -18.359  -7.202  20.212  1.00  0.00    -0.034 N
HETATM   22  C4  UNL     1     -19.446  -7.619  19.349  1.00  0.00     0.304 C
ATOM     23  H22 UNL     1     -18.246  -6.189  20.231  1.00  0.00     0.281 HD
ATOM     24  H21 UNL     1     -17.445  -7.441  19.827  1.00  0.00     0.281 HD
HETATM   25  C6  UNL     1     -20.334  -8.390  20.262  1.00  0.00     0.366 C
HETATM   26  O3  UNL     1     -19.834  -8.320  21.527  1.00  0.00    -0.296 OA
BRANCH  22  27
HETATM   27  C5  UNL     1     -20.171  -6.423  18.755  1.00  0.00     0.205 C
BRANCH  27  28
HETATM   28  O1  UNL     1     -20.796  -6.789  17.551  1.00  0.00    -0.399 OA
ATOM     29  H1  UNL     1     -20.205  -7.312  17.022  1.00  0.00     0.209 HD
ENDBRANCH  27  28
ENDBRANCH  22  27
BRANCH  25  30
HETATM   30  N3  UNL     1     -20.467  -9.772  19.773  1.00  0.00    -0.019 N
ATOM     31  H33 UNL     1     -19.569 -10.171  19.500  1.00  0.00     0.281 HD
ATOM     32  H32 UNL     1     -20.696 -10.425  20.524  1.00  0.00     0.281 HD
ATOM     33  H31 UNL     1     -21.149  -9.805  19.015  1.00  0.00     0.281 HD
ENDBRANCH  25  30
BRANCH  25  34
HETATM   34  O2  UNL     1     -21.614  -7.836  20.266  1.00  0.00    -0.342 OA
ATOM     35  H2  UNL     1     -21.564  -6.899  20.419  1.00  0.00     0.215 HD
ENDBRANCH  25  34
ENDBRANCH  19  20
ENDBRANCH  17  19
ENDBRANCH   1  17
BRANCH   7  36
HETATM   36  N6  UNL     1     -25.214  -4.382  19.227  1.00  0.00    -0.234 N
ATOM     37  H62 UNL     1     -25.277  -5.319  18.829  1.00  0.00     0.174 HD
ATOM     38  H61 UNL     1     -25.951  -3.713  19.003  1.00  0.00     0.174 HD
ENDBRANCH   7  36
TORSDOF 8
ENDMDL