MODEL 4
REMARK VINA RESULT: -8.120045936      3.684      4.946
REMARK  9 active torsions:
REMARK  status: ('A' for Active; 'I' for Inactive)
REMARK    1  A    between atoms: N1_1  and  C1_4
REMARK    2  A    between atoms: C2_7  and  S1_8
REMARK    3  A    between atoms: S1_8  and  N3_11
REMARK    4  A    between atoms: N3_11  and  N4_13
REMARK    5  A    between atoms: C3_18  and  N6_19
REMARK    6  A    between atoms: N6_19  and  C4_21
REMARK    7  A    between atoms: C4_21  and  C5_22
REMARK    8  A    between atoms: C5_22  and  N7_23
REMARK    9  A    between atoms: C8_28  and  N9_29
ROOT
HETATM    1  C1  UNL     1     -15.537  -8.006  21.347  1.00  0.00     0.692 A
HETATM    2  N2  UNL     1     -14.433  -7.978  22.115  1.00  0.00    -0.163 N
ATOM      3  H2  UNL     1     -13.710  -8.687  21.991  1.00  0.00     0.186 HD
HETATM    4  C2  UNL     1     -14.281  -7.030  23.036  1.00  0.00     0.254 A
HETATM    5  N5  UNL     1     -15.249  -6.111  23.177  1.00  0.00    -0.163 N
ATOM      6  H5  UNL     1     -15.138  -5.381  23.881  1.00  0.00     0.186 HD
HETATM    7  C3  UNL     1     -16.355  -6.121  22.423  1.00  0.00     0.694 A
HETATM    8  N12 UNL     1     -16.495  -7.081  21.502  1.00  0.00    -0.023 N
ATOM      9  H12 UNL     1     -17.330  -7.108  20.917  1.00  0.00     0.203 HD
ENDROOT
BRANCH   7  10
HETATM   10  N6  UNL     1     -17.252  -5.229  22.590  1.00  0.00    -0.224 N
ATOM     11  H6  UNL     1     -16.943  -4.276  22.783  1.00  0.00     0.177 HD
BRANCH  10  12
HETATM   12  C4  UNL     1     -18.669  -5.473  22.524  1.00  0.00     0.158 C
BRANCH  12  13
HETATM   13  C5  UNL     1     -19.257  -4.923  21.249  1.00  0.00     0.151 C
BRANCH  13  14
HETATM   14  N7  UNL     1     -20.208  -3.882  21.471  1.00  0.00    -0.326 N
HETATM   15  C6  UNL     1     -20.473  -3.166  22.590  1.00  0.00     0.185 A
HETATM   16  N8  UNL     1     -21.455  -2.279  22.355  1.00  0.00    -0.346 N
HETATM   17  C7  UNL     1     -21.829  -2.419  21.081  1.00  0.00     0.122 A
ATOM     18  H8  UNL     1     -21.844  -1.618  23.028  1.00  0.00     0.167 HD
HETATM   19  C8  UNL     1     -22.784  -1.761  20.339  1.00  0.00     0.131 A
HETATM   20  C10 UNL     1     -21.051  -3.420  20.522  1.00  0.00     0.140 A
HETATM   21  N10 UNL     1     -22.939  -2.124  19.054  1.00  0.00    -0.337 N
HETATM   22  C9  UNL     1     -22.199  -3.097  18.474  1.00  0.00     0.183 A
ATOM     23  H10 UNL     1     -23.643  -1.646  18.493  1.00  0.00     0.168 HD
HETATM   24  N11 UNL     1     -21.274  -3.719  19.228  1.00  0.00    -0.336 N
ATOM     25  H11 UNL     1     -20.713  -4.454  18.797  1.00  0.00     0.168 HD
BRANCH  19  26
HETATM   26  N9  UNL     1     -23.509  -0.827  20.858  1.00  0.00    -0.383 N
ATOM     27  H92 UNL     1     -23.609  -0.742  21.869  1.00  0.00     0.157 HD
ATOM     28  H91 UNL     1     -23.999  -0.151  20.273  1.00  0.00     0.157 HD
ENDBRANCH  19  26
ENDBRANCH  13  14
ENDBRANCH  12  13
ENDBRANCH  10  12
ENDBRANCH   7  10
BRANCH   4  29
HETATM   29  S1  UNL     1     -12.891  -6.898  24.085  1.00  0.00     0.308 S
HETATM   30  O1  UNL     1     -13.174  -5.807  25.083  1.00  0.00    -0.196 OA
HETATM   31  O2  UNL     1     -12.636  -8.162  24.836  1.00  0.00    -0.196 OA
BRANCH  29  32
HETATM   32  N3  UNL     1     -11.474  -6.459  23.213  1.00  0.00    -0.227 N
ATOM     33  H3  UNL     1     -10.603  -6.988  23.256  1.00  0.00     0.199 HD
BRANCH  32  34
HETATM   34  N4  UNL     1     -11.633  -5.320  22.450  1.00  0.00    -0.336 N
ATOM     35  H42 UNL     1     -11.719  -4.392  22.863  1.00  0.00     0.177 HD
ATOM     36  H41 UNL     1     -11.655  -5.506  21.448  1.00  0.00     0.177 HD
ENDBRANCH  32  34
ENDBRANCH  29  32
ENDBRANCH   4  29
BRANCH   1  37
HETATM   37  N1  UNL     1     -15.618  -8.964  20.466  1.00  0.00    -0.234 N
ATOM     38  H12 UNL     1     -15.747  -9.942  20.725  1.00  0.00     0.174 HD
ATOM     39  H11 UNL     1     -15.545  -8.695  19.485  1.00  0.00     0.174 HD
ENDBRANCH   1  37
TORSDOF 9
ENDMDL