MODEL 2
REMARK VINA RESULT: -7.902744390      0.991      1.138
REMARK  7 active torsions:
REMARK  status: ('A' for Active; 'I' for Inactive)
REMARK    1  A    between atoms: C2_2  and  C3_3
REMARK    2  A    between atoms: C2_2  and  C28_34
REMARK    3  A    between atoms: C4_4  and  C5_5
REMARK    4  A    between atoms: C6_6  and  C7_7
REMARK    5  A    between atoms: C10_10  and  C11_11
REMARK    6  A    between atoms: C11_11  and  C12_12
REMARK    7  A    between atoms: C19_21  and  O1_22
ROOT
HETATM    1  C7  UNL     1      -3.929   2.614  20.506  1.00  0.00    -0.018 A
HETATM    2  C8  UNL     1      -5.309   2.517  20.341  1.00  0.00    -0.038 A
HETATM    3  C9  UNL     1      -6.063   3.713  19.919  1.00  0.00     0.050 C
HETATM    4  C10 UNL     1      -5.997   1.374  20.549  1.00  0.00     0.007 A
HETATM    5  C19 UNL     1      -5.276   0.267  20.942  1.00  0.00     0.086 A
HETATM    6  C20 UNL     1      -3.867   0.327  21.114  1.00  0.00    -0.000 A
HETATM    7  C21 UNL     1      -3.338  -0.789  21.471  1.00  0.00     0.027 C
HETATM    8  C22 UNL     1      -3.164   1.544  20.880  1.00  0.00    -0.009 A
HETATM    9  C23 UNL     1      -1.898   1.446  20.591  1.00  0.00    -0.041 C
HETATM   10  C24 UNL     1      -1.083   2.450  19.759  1.00  0.00     0.139 C
HETATM   11  C25 UNL     1      -0.205   1.453  18.956  1.00  0.00     0.223 C
HETATM   12  O2  UNL     1       0.295   1.683  17.863  1.00  0.00    -0.273 OA
HETATM   13  N2  UNL     1      -0.118   0.277  19.737  1.00  0.00    -0.352 N
HETATM   14  C26 UNL     1       0.461  -0.988  19.386  1.00  0.00     0.152 C
HETATM   15  C27 UNL     1      -0.754   0.591  21.034  1.00  0.00     0.161 C
ENDROOT
BRANCH   4  16
HETATM   16  C11 UNL     1      -7.441   1.289  20.370  1.00  0.00     0.044 C
BRANCH  16  17
HETATM   17  C12 UNL     1      -8.022   1.214  19.199  1.00  0.00     0.040 A
HETATM   18  N1  UNL     1      -7.713   0.401  18.157  1.00  0.00    -0.356 N
HETATM   19  C13 UNL     1      -8.564   0.653  17.150  1.00  0.00     0.029 A
ATOM     20  H1  UNL     1      -6.960  -0.286  18.142  1.00  0.00     0.166 HD
HETATM   21  C14 UNL     1      -8.523   0.012  15.971  1.00  0.00     0.043 C
HETATM   22  C15 UNL     1      -9.453   1.640  17.510  1.00  0.00    -0.028 A
HETATM   23  C16 UNL     1     -10.535   2.173  16.644  1.00  0.00     0.051 C
HETATM   24  C17 UNL     1      -9.101   1.983  18.798  1.00  0.00    -0.027 A
HETATM   25  C18 UNL     1      -9.818   3.028  19.576  1.00  0.00     0.051 C
ENDBRANCH  16  17
ENDBRANCH   4  16
BRANCH   5  26
HETATM   26  O1  UNL     1      -5.999  -0.887  21.157  1.00  0.00    -0.359 OA
ATOM     27  H1  UNL     1      -6.729  -0.819  21.761  1.00  0.00     0.217 HD
ENDBRANCH   5  26
BRANCH   1  28
HETATM   28  C6  UNL     1      -3.461   4.007  20.454  1.00  0.00     0.013 C
HETATM   29  C5  UNL     1      -3.238   4.849  21.387  1.00  0.00     0.001 C
BRANCH  29  30
HETATM   30  C4  UNL     1      -2.756   6.216  21.045  1.00  0.00     0.001 C
HETATM   31  C3  UNL     1      -3.431   6.981  20.257  1.00  0.00     0.016 C
BRANCH  31  32
HETATM   32  C2  UNL     1      -3.129   8.296  19.826  1.00  0.00     0.019 C
HETATM   33  C1  UNL     1      -4.067   9.254  20.038  1.00  0.00     0.028 C
BRANCH  32  34
HETATM   34  C28 UNL     1      -1.937   8.781  19.174  1.00  0.00     0.264 C
HETATM   35  N3  UNL     1      -1.253   9.913  19.600  1.00  0.00    -0.057 NA
HETATM   36  O3  UNL     1      -1.480   8.152  18.160  1.00  0.00    -0.271 OA
ENDBRANCH  32  34
ENDBRANCH  31  32
ENDBRANCH  29  30
ENDBRANCH   1  28
TORSDOF 7
ENDMDL