MODEL 1
REMARK VINA RESULT: -6.861531841      0.000      0.000
REMARK  8 active torsions:
REMARK  status: ('A' for Active; 'I' for Inactive)
REMARK    1  A    between atoms: C2_2  and  C3_3
REMARK    2  A    between atoms: C2_2  and  N8_36
REMARK    3  A    between atoms: C3_3  and  O1_4
REMARK    4  A    between atoms: C3_3  and  N1_6
REMARK    5  A    between atoms: C16_26  and  N6_27
REMARK    6  A    between atoms: N6_27  and  C17_29
REMARK    7  A    between atoms: N7_30  and  C18_32
REMARK    8  A    between atoms: C18_32  and  C20_34
ROOT
HETATM    1  N1  UNL     1      -0.909   2.108  23.092  1.00  0.00    -0.328 N
HETATM    2  C4  UNL     1      -2.272   1.992  23.515  1.00  0.00     0.158 C
HETATM    3  C5  UNL     1      -2.689   2.653  24.775  1.00  0.00     0.050 C
HETATM    4  C6  UNL     1      -3.704   1.708  25.455  1.00  0.00     0.040 C
HETATM    5  C7  UNL     1      -3.479   3.932  24.541  1.00  0.00     0.037 C
HETATM    6  C8  UNL     1      -3.662   4.780  25.760  1.00  0.00     0.042 C
HETATM    7  C9  UNL     1      -2.666   4.644  26.814  1.00  0.00    -0.021 C
HETATM    8  C10 UNL     1      -2.250   5.685  27.477  1.00  0.00     0.115 C
HETATM    9  N2  UNL     1      -1.276   5.583  28.521  1.00  0.00    -0.198 N
HETATM   10  C11 UNL     1      -0.838   6.766  29.223  1.00  0.00     0.174 C
HETATM   11  C12 UNL     1      -0.735   4.292  28.867  1.00  0.00     0.677 C
HETATM   12  N3  UNL     1       0.151   4.168  29.800  1.00  0.00    -0.234 N
ATOM     13  H31 UNL     1       0.534   3.255  30.045  1.00  0.00     0.174 HD
ATOM     14  H32 UNL     1       0.504   4.967  30.327  1.00  0.00     0.174 HD
HETATM   15  N4  UNL     1      -1.226   3.179  28.134  1.00  0.00    -0.197 N
HETATM   16  C13 UNL     1      -0.801   1.870  28.610  1.00  0.00     0.171 C
HETATM   17  C14 UNL     1      -2.100   3.268  27.043  1.00  0.00     0.238 C
HETATM   18  N5  UNL     1      -1.651   2.895  25.738  1.00  0.00    -0.312 N
HETATM   19  C15 UNL     1      -0.311   2.812  25.339  1.00  0.00     0.265 C
HETATM   20  O2  UNL     1       0.624   2.658  26.134  1.00  0.00    -0.269 OA
HETATM   21  C16 UNL     1       0.050   2.911  23.889  1.00  0.00     0.281 C
ENDROOT
BRANCH   1  22
HETATM   22  C3  UNL     1      -0.412   1.493  21.946  1.00  0.00     0.174 C
BRANCH  22  23
HETATM   23  C2  UNL     1      -0.486   0.140  21.490  1.00  0.00     0.176 C
HETATM   24  C1  UNL     1      -1.437  -0.412  20.828  1.00  0.00     0.055 C
BRANCH  23  25
HETATM   25  N8  UNL     1       0.638  -0.756  21.803  1.00  0.00    -0.045 N
HETATM   26  C22 UNL     1       0.167  -2.128  21.846  1.00  0.00     0.278 C
HETATM   27  C23 UNL     1       1.217  -0.466  23.091  1.00  0.00     0.278 C
HETATM   28  C24 UNL     1       1.685  -0.663  20.831  1.00  0.00     0.278 C
ENDBRANCH  23  25
ENDBRANCH  22  23
BRANCH  22  29
HETATM   29  O1  UNL     1       0.236   2.346  21.170  1.00  0.00    -0.344 OA
ATOM     30  H1  UNL     1       0.025   2.325  20.244  1.00  0.00     0.219 HD
ENDBRANCH  22  29
ENDBRANCH   1  22
BRANCH  21  31
HETATM   31  N6  UNL     1       0.098   4.281  23.473  1.00  0.00    -0.357 N
ATOM     32  H6  UNL     1       0.861   4.844  23.848  1.00  0.00     0.162 HD
BRANCH  31  33
HETATM   33  C17 UNL     1      -0.793   4.934  22.604  1.00  0.00     0.173 C
HETATM   34  N7  UNL     1      -0.528   5.188  21.368  1.00  0.00    -0.382 N
ATOM     35  H7  UNL     1       0.381   4.895  21.008  1.00  0.00     0.160 HD
BRANCH  34  36
HETATM   36  C18 UNL     1      -1.414   5.850  20.465  1.00  0.00     0.077 C
HETATM   37  C19 UNL     1      -2.716   6.127  21.206  1.00  0.00     0.032 C
BRANCH  36  38
HETATM   38  C20 UNL     1      -0.886   7.198  20.011  1.00  0.00     0.020 C
HETATM   39  C21 UNL     1      -1.757   7.795  18.955  1.00  0.00     0.007 C
ENDBRANCH  36  38
ENDBRANCH  34  36
ENDBRANCH  31  33
ENDBRANCH  21  31
TORSDOF 8
ENDMDL