MODEL 5
REMARK VINA RESULT: -6.441843397      2.529      3.987
REMARK  7 active torsions:
REMARK  status: ('A' for Active; 'I' for Inactive)
REMARK    1  A    between atoms: C3_3  and  N1_4
REMARK    2  A    between atoms: C9_11  and  C10_12
REMARK    3  A    between atoms: C12_15  and  N3_16
REMARK       I    between atoms: N3_16  and  C13_18
REMARK    4  A    between atoms: C13_18  and  C14_20
REMARK       I    between atoms: C14_20  and  N4_22
REMARK    5  A    between atoms: N4_22  and  C15_24
REMARK    6  A    between atoms: C24_33  and  C25_34
REMARK    7  A    between atoms: C25_34  and  N5_35
ROOT
HETATM    1  C1  UNL     1      -3.544   8.277  19.763  1.00  0.00     0.013 C
HETATM    2  C2  UNL     1      -3.760   7.095  19.771  1.00  0.00    -0.089 C
HETATM    3  C3  UNL     1      -4.036   5.648  19.758  1.00  0.00     0.333 C
ENDROOT
BRANCH   3   4
HETATM    4  N1  UNL     1      -4.165   5.068  21.054  1.00  0.00    -0.018 N
HETATM    5  C4  UNL     1      -5.019   5.798  21.972  1.00  0.00     0.269 C
HETATM    6  C5  UNL     1      -5.309   4.778  23.020  1.00  0.00     0.268 C
HETATM    7  N2  UNL     1      -4.941   3.466  22.474  1.00  0.00    -0.032 N
HETATM    8  C6  UNL     1      -6.120   2.621  22.755  1.00  0.00     0.276 C
HETATM    9  C7  UNL     1      -3.892   2.826  23.195  1.00  0.00     0.241 C
HETATM   10  C24 UNL     1      -4.732   3.735  21.094  1.00  0.00     0.320 C
HETATM   11  C8  UNL     1      -2.510   3.195  23.034  1.00  0.00     0.048 C
HETATM   12  C9  UNL     1      -2.110   3.860  21.758  1.00  0.00     0.059 C
HETATM   13  C11 UNL     1      -2.849   5.138  21.662  1.00  0.00     0.260 C
HETATM   14  C12 UNL     1      -2.352   3.056  20.535  1.00  0.00     0.106 C
HETATM   15  C23 UNL     1      -3.784   2.688  20.478  1.00  0.00     0.099 C
BRANCH  12  16
HETATM   16  C10 UNL     1      -0.637   4.151  21.843  1.00  0.00     0.244 C
HETATM   17  O1  UNL     1       0.033   3.435  22.536  1.00  0.00    -0.306 OA
ENDBRANCH  12  16
BRANCH  14  18
HETATM   18  N3  UNL     1      -1.524   1.874  20.460  1.00  0.00    -0.347 N
HETATM   19  C13 UNL     1      -0.569   1.662  19.428  1.00  0.00     0.309 C
HETATM   20  O2  UNL     1      -0.455   2.554  18.555  1.00  0.00    -0.262 OA
ATOM     21  H3  UNL     1      -1.630   1.158  21.179  1.00  0.00     0.163 HD
BRANCH  19  22
HETATM   22  C14 UNL     1       0.263   0.487  19.340  1.00  0.00     0.309 C
HETATM   23  O3  UNL     1      -0.074  -0.428  18.551  1.00  0.00    -0.262 OA
HETATM   24  N4  UNL     1       1.414   0.358  20.107  1.00  0.00    -0.348 N
ATOM     25  H4  UNL     1       1.643   1.130  20.733  1.00  0.00     0.163 HD
BRANCH  24  26
HETATM   26  C15 UNL     1       2.316  -0.768  20.098  1.00  0.00     0.092 C
HETATM   27  C16 UNL     1       2.282  -1.406  18.738  1.00  0.00     0.026 C
HETATM   28  C17 UNL     1       3.298  -2.514  18.658  1.00  0.00     0.002 C
HETATM   29  C18 UNL     1       3.212  -3.476  19.814  1.00  0.00     0.001 C
HETATM   30  C19 UNL     1       3.245  -2.754  21.142  1.00  0.00     0.011 C
HETATM   31  C20 UNL     1       2.073  -1.764  21.166  1.00  0.00    -0.027 C
HETATM   32  C21 UNL     1       2.049  -1.157  22.533  1.00  0.00     0.017 C
HETATM   33  C22 UNL     1       0.825  -2.576  20.982  1.00  0.00     0.017 C
ENDBRANCH  24  26
ENDBRANCH  19  22
ENDBRANCH  14  18
BRANCH  10  34
HETATM   34  C25 UNL     1      -5.961   3.591  20.251  1.00  0.00     0.300 C
BRANCH  34  35
HETATM   35  N5  UNL     1      -6.064   2.530  19.342  1.00  0.00    -0.075 N
ATOM     36  H53 UNL     1      -5.572   1.724  19.728  1.00  0.00     0.274 HD
ATOM     37  H52 UNL     1      -7.028   2.199  19.339  1.00  0.00     0.274 HD
ATOM     38  H51 UNL     1      -5.763   2.659  18.375  1.00  0.00     0.274 HD
ENDBRANCH  34  35
ENDBRANCH  10  34
ENDBRANCH   3   4
TORSDOF 7
ENDMDL