MODEL 5
REMARK VINA RESULT: -6.344038791      1.090      1.147
REMARK  9 active torsions:
REMARK  status: ('A' for Active; 'I' for Inactive)
REMARK    1  A    between atoms: N1_5  and  C5_6
REMARK    2  A    between atoms: C5_6  and  N2_8
REMARK    3  A    between atoms: N2_8  and  C7_10
REMARK    4  A    between atoms: C7_10  and  C8_11
REMARK    5  A    between atoms: C8_11  and  N4_15
REMARK    6  A    between atoms: N5_18  and  C12_20
REMARK    7  A    between atoms: C12_20  and  C13_21
REMARK    8  A    between atoms: C20_29  and  N7_30
REMARK    9  A    between atoms: N7_30  and  N8_31
ROOT
HETATM    1  N4  UNL     1      -2.254   4.315  25.918  1.00  0.00    -0.287 N
HETATM    2  C9  UNL     1      -1.133   3.504  26.147  1.00  0.00     0.102 C
HETATM    3  C10 UNL     1      -1.379   2.687  27.386  1.00  0.00     0.289 C
HETATM    4  N5  UNL     1      -2.021   3.378  28.477  1.00  0.00    -0.028 N
HETATM    5  C11 UNL     1      -0.981   3.144  29.575  1.00  0.00     0.280 C
HETATM    6  C14 UNL     1      -2.227   4.768  28.327  1.00  0.00     0.207 C
HETATM    7  C15 UNL     1      -0.979   5.541  28.032  1.00  0.00     0.049 C
HETATM    8  C16 UNL     1      -0.863   6.853  28.838  1.00  0.00     0.003 C
HETATM    9  C17 UNL     1      -1.030   6.563  30.310  1.00  0.00     0.000 C
HETATM   10  C18 UNL     1      -2.459   6.180  30.472  1.00  0.00     0.003 C
HETATM   11  C19 UNL     1      -3.066   5.510  29.274  1.00  0.00     0.049 C
HETATM   12  C20 UNL     1      -3.039   4.893  26.951  1.00  0.00     0.226 C
ENDROOT
BRANCH   1  13
HETATM   13  C8  UNL     1      -2.734   4.567  24.540  1.00  0.00     0.101 C
HETATM   14  N3  UNL     1      -3.114   5.727  24.216  1.00  0.00    -0.387 N
ATOM     15  H32 UNL     1      -3.445   5.901  23.267  1.00  0.00     0.157 HD
ATOM     16  H31 UNL     1      -3.137   6.519  24.859  1.00  0.00     0.157 HD
BRANCH  13  17
HETATM   17  C7  UNL     1      -2.702   3.448  23.631  1.00  0.00     0.201 C
BRANCH  17  18
HETATM   18  N2  UNL     1      -1.907   3.585  22.411  1.00  0.00    -0.355 N
HETATM   19  C6  UNL     1      -0.490   3.707  22.493  1.00  0.00     0.152 C
BRANCH  18  20
HETATM   20  C5  UNL     1      -2.612   3.587  21.160  1.00  0.00     0.172 C
HETATM   21  S1  UNL     1      -3.316   2.095  20.802  1.00  0.00    -0.041 SA
BRANCH  20  22
HETATM   22  N1  UNL     1      -2.815   4.584  20.236  1.00  0.00    -0.358 N
HETATM   23  C4  UNL     1      -1.615   5.022  19.414  1.00  0.00     0.125 C
HETATM   24  C3  UNL     1      -1.237   6.391  19.956  1.00  0.00     0.024 C
HETATM   25  C2  UNL     1      -2.412   7.227  20.350  1.00  0.00    -0.015 C
HETATM   26  C1  UNL     1      -2.165   8.642  19.789  1.00  0.00     0.010 C
HETATM   27  C22 UNL     1      -3.732   6.801  19.785  1.00  0.00     0.024 C
HETATM   28  C21 UNL     1      -3.979   5.312  19.803  1.00  0.00     0.125 C
ENDBRANCH  20  22
ENDBRANCH  18  20
ENDBRANCH  17  18
ENDBRANCH  13  17
ENDBRANCH   1  13
BRANCH  12  29
HETATM   29  N7  UNL     1      -4.072   5.403  26.941  1.00  0.00    -0.293 NA
BRANCH  29  30
HETATM   30  N8  UNL     1      -5.244   5.975  26.913  1.00  0.00    -0.181 N
HETATM   31  N9  UNL     1      -5.611   7.139  27.290  1.00  0.00    -0.320 N
ATOM     32  H92 UNL     1      -4.850   7.700  27.673  1.00  0.00     0.179 HD
ATOM     33  H91 UNL     1      -6.527   7.587  27.267  1.00  0.00     0.179 HD
ATOM     34  H8  UNL     1      -5.991   5.397  26.527  1.00  0.00     0.223 HD
ENDBRANCH  29  30
ENDBRANCH  12  29
BRANCH   4  35
HETATM   35  C12 UNL     1      -3.054   2.555  28.993  1.00  0.00     0.218 C
BRANCH  35  36
HETATM   36  C13 UNL     1      -3.821   1.566  28.241  1.00  0.00     0.125 C
HETATM   37  N6  UNL     1      -4.927   1.877  27.459  1.00  0.00    -0.114 NA
ENDBRANCH  35  36
ENDBRANCH   4  35
TORSDOF 9
ENDMDL