MODEL 3
REMARK VINA RESULT: -6.536750778      1.675      2.680
REMARK  17 active torsions:
REMARK  status: ('A' for Active; 'I' for Inactive)
REMARK    1  A    between atoms: N1_2  and  C3_4
REMARK    2  A    between atoms: C3_4  and  O1_5
REMARK    3  A    between atoms: N2_7  and  C4_9
REMARK    4  A    between atoms: C4_9  and  C5_10
REMARK    5  A    between atoms: C4_9  and  N5_36
REMARK    6  A    between atoms: C6_11  and  C7_12
REMARK    7  A    between atoms: C8_13  and  C9_14
REMARK    8  A    between atoms: C9_14  and  N3_15
REMARK    9  A    between atoms: N3_15  and  C12_18
REMARK   10  A    between atoms: C12_18  and  C13_19
REMARK   11  A    between atoms: C14_20  and  C15_21
REMARK   12  A    between atoms: C19_25  and  S1_26
REMARK   13  A    between atoms: S1_26  and  N4_29
REMARK   14  A    between atoms: N4_29  and  C20_31
REMARK   15  A    between atoms: C20_31  and  C21_32
REMARK   16  A    between atoms: C21_32  and  O4_33
REMARK   17  A    between atoms: N5_36  and  N6_37
ROOT
HETATM    1  N3  UNL     1       0.709   1.125  26.306  1.00  0.00    -0.055 N
HETATM    2  C10 UNL     1      -0.646   0.882  25.899  1.00  0.00     0.274 C
HETATM    3  C11 UNL     1       1.512  -0.019  25.930  1.00  0.00     0.274 C
ENDROOT
BRANCH   1   4
HETATM    4  C9  UNL     1       0.762   1.270  27.768  1.00  0.00     0.332 C
BRANCH   4   5
HETATM    5  C8  UNL     1       0.100   2.523  28.175  1.00  0.00    -0.065 C
HETATM    6  C7  UNL     1      -0.442   3.555  28.493  1.00  0.00    -0.013 C
BRANCH   6   7
HETATM    7  C6  UNL     1      -1.082   4.759  28.885  1.00  0.00    -0.005 C
HETATM    8  C5  UNL     1      -1.620   5.786  29.220  1.00  0.00     0.001 C
BRANCH   8   9
HETATM    9  C4  UNL     1      -2.242   7.018  29.614  1.00  0.00     0.261 C
BRANCH   9  10
HETATM   10  N2  UNL     1      -3.572   7.258  29.185  1.00  0.00    -0.288 N
HETATM   11  C3  UNL     1      -4.539   6.972  29.974  1.00  0.00     0.221 C
ATOM     12  H2  UNL     1      -3.755   7.653  28.263  1.00  0.00     0.172 HD
BRANCH  11  13
HETATM   13  N1  UNL     1      -5.883   7.203  29.568  1.00  0.00    -0.356 N
HETATM   14  C1  UNL     1      -6.187   7.713  28.237  1.00  0.00     0.152 C
HETATM   15  C2  UNL     1      -6.936   6.911  30.532  1.00  0.00     0.152 C
ENDBRANCH  11  13
BRANCH  11  16
HETATM   16  O1  UNL     1      -4.273   6.439  31.220  1.00  0.00    -0.332 OA
ATOM     17  H1  UNL     1      -4.788   5.711  31.547  1.00  0.00     0.220 HD
ENDBRANCH  11  16
ENDBRANCH   9  10
BRANCH   9  18
HETATM   18  N5  UNL     1      -1.642   7.860  30.314  1.00  0.00    -0.304 NA
BRANCH  18  19
HETATM   19  N6  UNL     1      -0.851   8.628  30.888  1.00  0.00    -0.278 N
ATOM     20  H62 UNL     1      -0.290   8.676  30.039  1.00  0.00     0.191 HD
ATOM     21  H61 UNL     1      -0.323   9.237  31.513  1.00  0.00     0.191 HD
ENDBRANCH  18  19
ENDBRANCH   9  18
ENDBRANCH   8   9
ENDBRANCH   6   7
ENDBRANCH   4   5
ENDBRANCH   1   4
BRANCH   1  22
HETATM   22  C12 UNL     1       1.252   2.346  25.756  1.00  0.00     0.331 C
BRANCH  22  23
HETATM   23  C13 UNL     1       0.612   2.628  24.483  1.00  0.00    -0.073 C
HETATM   24  C14 UNL     1       0.074   2.845  23.448  1.00  0.00    -0.065 C
BRANCH  24  25
HETATM   25  C15 UNL     1      -0.603   3.093  22.184  1.00  0.00     0.019 A
HETATM   26  C16 UNL     1      -0.577   2.151  21.175  1.00  0.00     0.021 A
HETATM   27  C17 UNL     1      -1.234   2.424  19.980  1.00  0.00     0.003 A
HETATM   28  C18 UNL     1      -1.910   3.606  19.775  1.00  0.00     0.025 A
HETATM   29  C19 UNL     1      -1.940   4.556  20.780  1.00  0.00     0.080 A
HETATM   30  C22 UNL     1      -1.283   4.268  21.958  1.00  0.00     0.045 A
BRANCH  29  31
HETATM   31  S1  UNL     1      -2.778   6.085  20.599  1.00  0.00     0.258 S
HETATM   32  O2  UNL     1      -3.500   6.464  21.855  1.00  0.00    -0.201 OA
HETATM   33  O3  UNL     1      -3.756   5.899  19.453  1.00  0.00    -0.201 OA
BRANCH  31  34
HETATM   34  N4  UNL     1      -1.599   7.280  20.206  1.00  0.00    -0.313 N
ATOM     35  H4  UNL     1      -0.686   7.381  20.651  1.00  0.00     0.172 HD
BRANCH  34  36
HETATM   36  C20 UNL     1      -2.115   8.122  19.137  1.00  0.00     0.158 C
BRANCH  36  37
HETATM   37  C21 UNL     1      -2.921   9.241  19.798  1.00  0.00     0.184 C
BRANCH  37  38
HETATM   38  O4  UNL     1      -2.913  10.336  18.938  1.00  0.00    -0.399 OA
ATOM     39  H4  UNL     1      -3.777  10.406  18.550  1.00  0.00     0.209 HD
ENDBRANCH  37  38
ENDBRANCH  36  37
ENDBRANCH  34  36
ENDBRANCH  31  34
ENDBRANCH  29  31
ENDBRANCH  24  25
ENDBRANCH  22  23
ENDBRANCH   1  22
TORSDOF 17
ENDMDL