MODEL 3
REMARK VINA RESULT: -7.326030402      1.454      2.052
REMARK  9 active torsions:
REMARK  status: ('A' for Active; 'I' for Inactive)
REMARK    1  A    between atoms: C2_2  and  N2_6
REMARK    2  A    between atoms: N2_6  and  C4_8
REMARK    3  A    between atoms: C5_9  and  O1_10
REMARK    4  A    between atoms: C8_14  and  C9_15
REMARK    5  A    between atoms: C9_15  and  C10_16
REMARK    6  A    between atoms: N3_17  and  C11_19
REMARK    7  A    between atoms: N4_25  and  C17_26
REMARK    8  A    between atoms: C17_26  and  C18_27
REMARK    9  A    between atoms: C18_27  and  C19_28
ROOT
HETATM    1  C19 UNL     1      -1.770   4.036  20.625  1.00  0.00    -0.024 A
HETATM    2  C20 UNL     1      -2.919   3.299  20.497  1.00  0.00     0.010 A
HETATM    3  C21 UNL     1      -4.123   3.847  20.116  1.00  0.00     0.003 A
HETATM    4  C22 UNL     1      -4.167   5.197  19.854  1.00  0.00     0.032 A
HETATM    5  C23 UNL     1      -3.016   5.945  19.979  1.00  0.00     0.063 A
HETATM    6  C24 UNL     1      -1.792   5.384  20.366  1.00  0.00     0.068 A
HETATM    7  N5  UNL     1      -0.871   6.374  20.396  1.00  0.00    -0.331 N
ATOM      8  H5  UNL     1       0.114   6.273  20.643  1.00  0.00     0.168 HD
HETATM    9  C25 UNL     1      -1.485   7.515  20.042  1.00  0.00     0.191 A
HETATM   10  C26 UNL     1      -0.812   8.776  19.965  1.00  0.00     0.137 C
HETATM   11  N6  UNL     1      -0.284   9.802  19.899  1.00  0.00    -0.188 NA
HETATM   12  N7  UNL     1      -2.776   7.261  19.790  1.00  0.00    -0.327 N
HETATM   13  C27 UNL     1      -3.795   8.220  19.381  1.00  0.00     0.159 C
ENDROOT
BRANCH   1  14
HETATM   14  C18 UNL     1      -0.498   3.362  21.043  1.00  0.00     0.086 C
BRANCH  14  15
HETATM   15  C17 UNL     1      -0.717   2.014  21.583  1.00  0.00     0.075 C
BRANCH  15  16
HETATM   16  N4  UNL     1      -0.501   1.692  22.933  1.00  0.00    -0.320 N
HETATM   17  C4  UNL     1       0.080   0.544  23.341  1.00  0.00     0.148 C
HETATM   18  C5  UNL     1       1.129   0.548  24.307  1.00  0.00     0.117 C
HETATM   19  C6  UNL     1       1.092   1.206  25.526  1.00  0.00    -0.018 C
HETATM   20  C7  UNL     1       2.044   0.697  26.575  1.00  0.00     0.052 C
HETATM   21  C8  UNL     1       0.311   2.271  25.905  1.00  0.00    -0.043 C
HETATM   22  C15 UNL     1      -0.532   3.009  25.069  1.00  0.00     0.025 C
HETATM   23  C16 UNL     1      -0.939   2.666  23.804  1.00  0.00     0.098 C
BRANCH  17  24
HETATM   24  N2  UNL     1      -0.205  -0.556  22.872  1.00  0.00    -0.325 N
HETATM   25  C3  UNL     1      -0.895  -1.666  23.455  1.00  0.00     0.159 C
BRANCH  24  26
HETATM   26  C2  UNL     1       0.269  -0.908  21.526  1.00  0.00     0.074 C
HETATM   27  C1  UNL     1      -0.635  -1.458  20.500  1.00  0.00     0.088 C
HETATM   28  N1  UNL     1       1.518  -0.775  21.261  1.00  0.00    -0.389 N
ATOM     29  H12 UNL     1       1.847  -1.018  20.326  1.00  0.00     0.157 HD
ATOM     30  H11 UNL     1       2.143  -0.394  21.971  1.00  0.00     0.157 HD
ENDBRANCH  24  26
ENDBRANCH  17  24
BRANCH  18  31
HETATM   31  O1  UNL     1       2.268  -0.151  24.003  1.00  0.00    -0.357 OA
ATOM     32  H1  UNL     1       2.174  -0.921  23.453  1.00  0.00     0.218 HD
ENDBRANCH  18  31
BRANCH  21  33
HETATM   33  C9  UNL     1       0.353   2.680  27.312  1.00  0.00     0.083 C
BRANCH  33  34
HETATM   34  C10 UNL     1      -0.892   3.379  27.748  1.00  0.00     0.065 C
HETATM   35  N3  UNL     1      -0.809   4.596  28.178  1.00  0.00    -0.378 N
ATOM     36  H3  UNL     1       0.095   5.066  28.217  1.00  0.00     0.164 HD
BRANCH  35  37
HETATM   37  C11 UNL     1      -1.981   5.271  28.593  1.00  0.00     0.089 C
HETATM   38  C12 UNL     1      -1.886   6.450  29.156  1.00  0.00    -0.072 C
HETATM   39  C13 UNL     1      -0.560   7.083  29.361  1.00  0.00     0.044 C
HETATM   40  C14 UNL     1      -3.100   7.165  29.594  1.00  0.00     0.044 C
ENDBRANCH  35  37
ENDBRANCH  33  34
ENDBRANCH  21  33
ENDBRANCH  15  16
ENDBRANCH  14  15
ENDBRANCH   1  14
TORSDOF 9
ENDMDL