MODEL 4
REMARK VINA RESULT: -6.062595656      2.216      3.546
REMARK  8 active torsions:
REMARK  status: ('A' for Active; 'I' for Inactive)
REMARK    1  A    between atoms: N2_12  and  N3_14
REMARK       I    between atoms: N3_14  and  C11_16
REMARK    2  A    between atoms: N4_21  and  C15_22
REMARK    3  A    between atoms: C15_22  and  C16_23
REMARK    4  A    between atoms: C16_23  and  C17_24
REMARK    5  A    between atoms: C18_25  and  C19_26
REMARK    6  A    between atoms: C19_26  and  O2_27
REMARK    7  A    between atoms: C20_29  and  N5_30
REMARK       I    between atoms: N5_30  and  C23_33
REMARK    8  A    between atoms: C23_33  and  C24_35
ROOT
HETATM    1  C1  UNL     1      -1.626   6.047  28.365  1.00  0.00     0.044 C
HETATM    2  C2  UNL     1      -2.074   5.601  27.195  1.00  0.00     0.033 A
HETATM    3  N1  UNL     1      -3.120   6.102  26.538  1.00  0.00    -0.365 N
ATOM      4  H1  UNL     1      -3.702   6.882  26.843  1.00  0.00     0.165 HD
HETATM    5  C3  UNL     1      -3.274   5.394  25.390  1.00  0.00     0.099 A
HETATM    6  C4  UNL     1      -2.298   4.412  25.313  1.00  0.00     0.014 A
HETATM    7  C5  UNL     1      -1.569   4.559  26.445  1.00  0.00    -0.001 A
HETATM    8  C6  UNL     1      -0.571   3.773  26.664  1.00  0.00     0.028 C
HETATM    9  C7  UNL     1      -0.232   2.726  25.706  1.00  0.00     0.165 C
HETATM   10  C8  UNL     1       1.028   3.102  25.033  1.00  0.00     0.053 C
HETATM   11  C9  UNL     1       0.121   1.529  26.629  1.00  0.00     0.053 C
HETATM   12  N2  UNL     1      -1.346   2.308  24.829  1.00  0.00     0.041 N
HETATM   13  C10 UNL     1      -0.614   1.456  23.848  1.00  0.00     0.305 C
HETATM   14  C13 UNL     1      -1.985   3.393  24.214  1.00  0.00     0.243 C
HETATM   15  C14 UNL     1      -1.053   4.225  23.329  1.00  0.00     0.170 C
HETATM   16  N4  UNL     1      -2.176   4.497  22.504  1.00  0.00    -0.379 N
HETATM   17  C20 UNL     1      -2.923   3.488  23.149  1.00  0.00     0.341 C
ENDROOT
BRANCH  12  18
HETATM   18  N3  UNL     1      -2.012   1.388  25.596  1.00  0.00    -0.183 N
HETATM   19  C11 UNL     1      -3.198   1.267  26.306  1.00  0.00     0.237 C
HETATM   20  C12 UNL     1      -3.598   0.022  27.079  1.00  0.00     0.119 C
HETATM   21  O1  UNL     1      -4.095   2.107  26.431  1.00  0.00    -0.272 OA
ATOM     22  H3  UNL     1      -1.468   0.529  25.668  1.00  0.00     0.197 HD
ENDBRANCH  12  18
BRANCH  17  23
HETATM   23  N5  UNL     1      -3.399   2.618  22.130  1.00  0.00     0.011 N
HETATM   24  C21 UNL     1      -2.511   2.384  21.011  1.00  0.00     0.285 C
HETATM   25  C22 UNL     1      -4.513   3.383  21.452  1.00  0.00     0.285 C
HETATM   26  C23 UNL     1      -4.103   1.451  22.504  1.00  0.00     0.319 C
HETATM   27  O3  UNL     1      -4.893   1.553  23.417  1.00  0.00    -0.265 OA
BRANCH  26  28
HETATM   28  C24 UNL     1      -3.964   0.127  21.883  1.00  0.00     0.107 C
HETATM   29  C25 UNL     1      -3.359  -0.924  22.816  1.00  0.00     0.014 C
ENDBRANCH  26  28
ENDBRANCH  17  23
BRANCH  16  30
HETATM   30  C15 UNL     1      -2.448   5.727  22.032  1.00  0.00     0.131 C
BRANCH  30  31
HETATM   31  C16 UNL     1      -1.771   5.830  20.629  1.00  0.00     0.113 C
BRANCH  31  32
HETATM   32  C17 UNL     1      -1.782   7.214  20.179  1.00  0.00    -0.103 C
HETATM   33  C18 UNL     1      -1.800   8.362  19.825  1.00  0.00    -0.081 C
BRANCH  33  34
HETATM   34  C19 UNL     1      -1.827   9.787  19.414  1.00  0.00     0.257 C
BRANCH  34  35
HETATM   35  O2  UNL     1      -3.115  10.163  19.039  1.00  0.00    -0.389 OA
ATOM     36  H2  UNL     1      -3.180  10.231  18.093  1.00  0.00     0.210 HD
ENDBRANCH  34  35
ENDBRANCH  33  34
ENDBRANCH  31  32
ENDBRANCH  30  31
ENDBRANCH  16  30
TORSDOF 8
ENDMDL