MODEL 4
REMARK VINA RESULT: -6.968545964      4.229      7.701
REMARK  10 active torsions:
REMARK  status: ('A' for Active; 'I' for Inactive)
REMARK    1  A    between atoms: C2_2  and  O1_3
REMARK    2  A    between atoms: O1_3  and  C3_4
REMARK    3  A    between atoms: C3_4  and  C4_5
REMARK    4  A    between atoms: C5_6  and  C6_7
REMARK    5  A    between atoms: C6_7  and  C7_8
REMARK    6  A    between atoms: C7_8  and  N1_9
REMARK    7  A    between atoms: C10_14  and  N3_15
REMARK       I    between atoms: N3_15  and  C11_17
REMARK       I    between atoms: C11_17  and  N5_21
REMARK    8  A    between atoms: N5_21  and  C12_23
REMARK    9  A    between atoms: C16_29  and  N7_30
REMARK       I    between atoms: N7_30  and  C17_32
REMARK   10  A    between atoms: C17_32  and  C18_34
ROOT
HETATM    1  N1  UNL     1      -3.958   3.158  21.365  1.00  0.00    -0.170 N
HETATM    2  C8  UNL     1      -4.081   2.506  22.525  1.00  0.00     0.112 A
HETATM    3  C9  UNL     1      -4.940   1.306  22.714  1.00  0.00     0.090 C
HETATM    4  N2  UNL     1      -3.403   3.028  23.594  1.00  0.00    -0.179 N
ATOM      5  H2  UNL     1      -3.463   2.566  24.501  1.00  0.00     0.185 HD
HETATM    6  C10 UNL     1      -2.659   4.138  23.467  1.00  0.00     0.712 A
HETATM    7  N6  UNL     1      -2.540   4.791  22.299  1.00  0.00    -0.021 N
ATOM      8  H6  UNL     1      -1.973   5.635  22.213  1.00  0.00     0.203 HD
HETATM    9  C16 UNL     1      -3.199   4.283  21.257  1.00  0.00     0.703 A
ENDROOT
BRANCH   6  10
HETATM   10  N3  UNL     1      -2.008   4.646  24.473  1.00  0.00    -0.022 N
HETATM   11  C11 UNL     1      -0.643   4.286  24.622  1.00  0.00     0.686 C
HETATM   12  N4  UNL     1       0.111   4.270  23.596  1.00  0.00    -0.234 N
HETATM   13  N5  UNL     1      -0.198   3.958  25.931  1.00  0.00    -0.218 N
ATOM     14  H42 UNL     1      -0.209   4.505  22.656  1.00  0.00     0.174 HD
ATOM     15  H41 UNL     1       1.091   4.011  23.702  1.00  0.00     0.174 HD
ATOM     16  H5  UNL     1      -0.018   4.690  26.618  1.00  0.00     0.178 HD
ATOM     17  H3  UNL     1      -2.462   5.280  25.131  1.00  0.00     0.203 HD
BRANCH  13  18
HETATM   18  C12 UNL     1      -0.005   2.578  26.268  1.00  0.00     0.036 C
HETATM   19  C13 UNL     1      -1.062   1.676  25.679  1.00  0.00     0.038 C
HETATM   20  C14 UNL     1      -0.122   2.465  27.786  1.00  0.00     0.038 C
HETATM   21  C15 UNL     1       1.343   2.061  25.832  1.00  0.00     0.038 C
ENDBRANCH  13  18
ENDBRANCH   6  10
BRANCH   9  22
HETATM   22  N7  UNL     1      -3.099   4.891  20.128  1.00  0.00    -0.154 N
HETATM   23  C17 UNL     1      -2.114   5.843  19.824  1.00  0.00     0.271 C
HETATM   24  O2  UNL     1      -0.948   5.488  19.578  1.00  0.00    -0.267 OA
ATOM     25  H7  UNL     1      -3.782   4.665  19.404  1.00  0.00     0.187 HD
BRANCH  23  26
HETATM   26  C18 UNL     1      -2.414   7.290  19.783  1.00  0.00     0.048 A
HETATM   27  C19 UNL     1      -3.710   7.736  19.696  1.00  0.00     0.020 A
HETATM   28  C20 UNL     1      -3.954   9.083  19.659  1.00  0.00     0.018 A
HETATM   29  C21 UNL     1      -2.894   9.959  19.711  1.00  0.00     0.090 A
HETATM   30  N8  UNL     1      -1.641   9.533  19.794  1.00  0.00    -0.370 N
HETATM   31  C22 UNL     1      -0.567  10.530  19.845  1.00  0.00     0.154 C
HETATM   32  C23 UNL     1      -1.400   8.222  19.830  1.00  0.00     0.107 A
ENDBRANCH  23  26
ENDBRANCH   9  22
BRANCH   1  33
HETATM   33  C7  UNL     1      -4.563   2.688  20.158  1.00  0.00     0.161 C
BRANCH  33  34
HETATM   34  C6  UNL     1      -5.889   3.331  19.882  1.00  0.00     0.115 C
BRANCH  34  35
HETATM   35  C5  UNL     1      -6.763   2.660  18.953  1.00  0.00    -0.103 C
HETATM   36  C4  UNL     1      -7.517   2.126  18.178  1.00  0.00    -0.081 C
BRANCH  36  37
HETATM   37  C3  UNL     1      -8.427   1.492  17.218  1.00  0.00     0.261 C
BRANCH  37  38
HETATM   38  O1  UNL     1      -9.039   2.392  16.382  1.00  0.00    -0.380 OA
BRANCH  38  39
HETATM   39  C2  UNL     1     -10.024   3.140  16.990  1.00  0.00     0.164 C
HETATM   40  C1  UNL     1     -11.348   2.391  17.018  1.00  0.00     0.033 C
ENDBRANCH  38  39
ENDBRANCH  37  38
ENDBRANCH  36  37
ENDBRANCH  34  35
ENDBRANCH  33  34
ENDBRANCH   1  33
TORSDOF 10
ENDMDL