MODEL 1
REMARK VINA RESULT: -6.329116635      0.000      0.000
REMARK  12 active torsions:
REMARK  status: ('A' for Active; 'I' for Inactive)
REMARK    1  A    between atoms: C2_2  and  C4_4
REMARK    2  A    between atoms: N2_9  and  C8_10
REMARK    3  A    between atoms: C8_10  and  C9_11
REMARK    4  A    between atoms: C8_10  and  C26_32
REMARK    5  A    between atoms: C10_12  and  C11_13
REMARK    6  A    between atoms: C12_14  and  C13_15
REMARK    7  A    between atoms: C14_16  and  C15_17
REMARK    8  A    between atoms: C16_18  and  C17_19
REMARK       I    between atoms: C17_19  and  N3_21
REMARK    9  A    between atoms: N3_21  and  C18_23
REMARK   10  A    between atoms: C18_23  and  C19_24
REMARK   11  A    between atoms: C19_24  and  N4_25
REMARK   12  A    between atoms: C26_32  and  O2_33
ROOT
HETATM    1  C11 UNL     1      -0.701   2.668  23.295  1.00  0.00    -0.001 C
HETATM    2  C12 UNL     1      -0.784   3.292  24.324  1.00  0.00    -0.000 C
ENDROOT
BRANCH   1   3
HETATM    3  C10 UNL     1      -0.605   1.882  22.117  1.00  0.00    -0.012 C
HETATM    4  C9  UNL     1      -0.535   1.184  21.134  1.00  0.00    -0.063 C
BRANCH   4   5
HETATM    5  C8  UNL     1      -0.459   0.289  19.946  1.00  0.00     0.205 C
BRANCH   5   6
HETATM    6  N2  UNL     1      -0.018  -0.981  20.338  1.00  0.00    -0.312 N
HETATM    7  N1  UNL     1      -0.826  -2.050  20.153  1.00  0.00    -0.333 N
HETATM    8  C6  UNL     1      -0.533  -2.980  19.130  1.00  0.00     0.142 C
HETATM    9  C7  UNL     1      -1.670  -2.462  21.211  1.00  0.00     0.170 C
HETATM   10  C5  UNL     1       0.903  -3.367  18.975  1.00  0.00     0.026 C
HETATM   11  C4  UNL     1       1.880  -2.376  19.570  1.00  0.00    -0.008 C
HETATM   12  C28 UNL     1       1.764  -2.354  21.087  1.00  0.00     0.026 C
HETATM   13  C27 UNL     1       0.922  -1.095  21.396  1.00  0.00     0.144 C
BRANCH  11  14
HETATM   14  C2  UNL     1       3.279  -2.860  19.248  1.00  0.00    -0.019 C
HETATM   15  C1  UNL     1       4.306  -1.850  19.678  1.00  0.00     0.010 C
HETATM   16  C3  UNL     1       3.580  -4.141  20.013  1.00  0.00     0.010 C
ENDBRANCH  11  14
ENDBRANCH   5   6
BRANCH   5  17
HETATM   17  C26 UNL     1       0.604   0.964  19.065  1.00  0.00     0.203 C
BRANCH  17  18
HETATM   18  O2  UNL     1      -0.031   2.028  18.373  1.00  0.00    -0.398 OA
ATOM     19  H2  UNL     1      -0.061   2.773  18.962  1.00  0.00     0.209 HD
ENDBRANCH  17  18
ENDBRANCH   5  17
ENDBRANCH   4   5
ENDBRANCH   1   3
BRANCH   2  20
HETATM   20  C13 UNL     1      -0.885   3.968  25.558  1.00  0.00    -0.000 C
HETATM   21  C14 UNL     1      -1.017   4.579  26.588  1.00  0.00    -0.001 C
BRANCH  21  22
HETATM   22  C15 UNL     1      -1.228   5.345  27.774  1.00  0.00    -0.004 C
HETATM   23  C16 UNL     1      -1.386   6.047  28.737  1.00  0.00     0.009 C
BRANCH  23  24
HETATM   24  C17 UNL     1      -1.553   6.962  29.849  1.00  0.00     0.297 C
HETATM   25  O1  UNL     1      -2.650   7.630  29.836  1.00  0.00    -0.258 OA
HETATM   26  N3  UNL     1      -0.591   7.113  30.853  1.00  0.00    -0.349 N
ATOM     27  H3  UNL     1       0.259   6.548  30.855  1.00  0.00     0.163 HD
BRANCH  26  28
HETATM   28  C18 UNL     1      -0.841   8.109  31.909  1.00  0.00     0.151 C
BRANCH  28  29
HETATM   29  C19 UNL     1      -1.677   7.423  32.956  1.00  0.00     0.257 C
BRANCH  29  30
HETATM   30  N4  UNL     1      -1.402   7.879  34.257  1.00  0.00    -0.065 N
HETATM   31  C20 UNL     1      -0.848   6.909  35.182  1.00  0.00     0.238 C
HETATM   32  C21 UNL     1      -0.904   7.587  36.536  1.00  0.00     0.034 C
HETATM   33  C22 UNL     1      -1.709   8.811  36.263  1.00  0.00     0.015 C
HETATM   34  C23 UNL     1      -0.787   9.790  35.554  1.00  0.00     0.034 C
HETATM   35  C25 UNL     1      -2.524   8.363  35.036  1.00  0.00     0.242 C
HETATM   36  C24 UNL     1      -0.495   9.020  34.284  1.00  0.00     0.238 C
ENDBRANCH  29  30
ENDBRANCH  28  29
ENDBRANCH  26  28
ENDBRANCH  23  24
ENDBRANCH  21  22
ENDBRANCH   2  20
TORSDOF 12
ENDMDL