MODEL 3
REMARK VINA RESULT: -6.620725706      3.140      5.702
REMARK  12 active torsions:
REMARK  status: ('A' for Active; 'I' for Inactive)
REMARK    1  A    between atoms: C2_2  and  C4_4
REMARK    2  A    between atoms: C4_4  and  C5_5
REMARK       I    between atoms: C5_5  and  N1_7
REMARK    3  A    between atoms: C6_9  and  C7_10
REMARK    4  A    between atoms: C7_10  and  C8_11
REMARK    5  A    between atoms: N3_18  and  C14_19
REMARK    6  A    between atoms: C14_19  and  N4_21
REMARK    7  A    between atoms: N4_21  and  C15_23
REMARK    8  A    between atoms: C15_23  and  C16_24
REMARK    9  A    between atoms: C17_25  and  C18_26
REMARK   10  A    between atoms: C18_26  and  O2_27
REMARK   11  A    between atoms: O2_27  and  C19_28
REMARK   12  A    between atoms: C19_28  and  N6_32
ROOT
HETATM    1  C8  UNL     1      -1.234   3.023  24.254  1.00  0.00     0.117 C
HETATM    2  C9  UNL     1       0.104   2.292  24.169  1.00  0.00     0.262 C
HETATM    3  N2  UNL     1       0.143   1.121  24.976  1.00  0.00    -0.071 N
HETATM    4  C10 UNL     1       0.170   1.383  26.391  1.00  0.00     0.272 C
HETATM    5  C11 UNL     1       1.417   0.448  24.655  1.00  0.00     0.272 C
HETATM    6  C12 UNL     1      -0.887   0.194  24.565  1.00  0.00     0.256 C
HETATM    7  C13 UNL     1      -2.226   0.802  24.401  1.00  0.00     0.154 C
HETATM    8  N3  UNL     1      -2.302   2.172  23.884  1.00  0.00    -0.350 N
ENDROOT
BRANCH   8   9
HETATM    9  C14 UNL     1      -3.472   2.492  23.155  1.00  0.00     0.171 C
HETATM   10  S1  UNL     1      -4.874   2.597  24.108  1.00  0.00    -0.041 SA
BRANCH   9  11
HETATM   11  N4  UNL     1      -3.752   2.681  21.811  1.00  0.00    -0.357 N
ATOM     12  H4  UNL     1      -4.361   3.487  21.665  1.00  0.00     0.162 HD
BRANCH  11  13
HETATM   13  C15 UNL     1      -3.419   2.054  20.589  1.00  0.00     0.216 C
BRANCH  13  14
HETATM   14  C16 UNL     1      -2.005   1.534  20.660  1.00  0.00    -0.085 C
HETATM   15  C17 UNL     1      -0.886   1.106  20.742  1.00  0.00    -0.078 C
BRANCH  15  16
HETATM   16  C18 UNL     1       0.466   0.565  20.861  1.00  0.00     0.272 C
BRANCH  16  17
HETATM   17  O2  UNL     1       1.279   1.227  19.895  1.00  0.00    -0.310 OA
BRANCH  17  18
HETATM   18  C19 UNL     1       1.513   0.515  18.729  1.00  0.00     0.215 C
HETATM   19  N5  UNL     1       1.314   0.997  17.547  1.00  0.00    -0.365 N
ATOM     20  H52 UNL     1       0.965   1.953  17.478  1.00  0.00     0.159 HD
ATOM     21  H51 UNL     1       1.486   0.473  16.689  1.00  0.00     0.159 HD
BRANCH  18  22
HETATM   22  N6  UNL     1       1.998  -0.813  18.826  1.00  0.00    -0.348 N
HETATM   23  C20 UNL     1       3.180  -1.443  19.382  1.00  0.00     0.128 C
HETATM   24  C21 UNL     1       2.922  -2.718  18.616  1.00  0.00     0.040 C
HETATM   25  C22 UNL     1       1.542  -2.139  18.410  1.00  0.00     0.128 C
ENDBRANCH  18  22
ENDBRANCH  17  18
ENDBRANCH  16  17
ENDBRANCH  15  16
ENDBRANCH  13  14
ENDBRANCH  11  13
ENDBRANCH   9  11
ENDBRANCH   8   9
BRANCH   1  26
HETATM   26  C7  UNL     1      -1.012   4.343  23.602  1.00  0.00     0.071 C
BRANCH  26  27
HETATM   27  C6  UNL     1      -0.262   4.308  22.350  1.00  0.00     0.066 C
HETATM   28  N1  UNL     1      -0.607   4.840  21.254  1.00  0.00    -0.341 N
HETATM   29  C5  UNL     1      -1.777   5.580  21.006  1.00  0.00     0.221 C
ATOM     30  H1  UNL     1       0.031   4.720  20.467  1.00  0.00     0.167 HD
HETATM   31  O1  UNL     1      -2.762   5.568  21.802  1.00  0.00    -0.273 OA
BRANCH  29  32
HETATM   32  C4  UNL     1      -1.924   6.429  19.781  1.00  0.00     0.106 C
BRANCH  32  33
HETATM   33  C2  UNL     1      -2.442   7.801  20.099  1.00  0.00    -0.014 C
HETATM   34  C1  UNL     1      -3.800   8.002  19.465  1.00  0.00     0.010 C
HETATM   35  C3  UNL     1      -1.482   8.883  19.680  1.00  0.00     0.010 C
ENDBRANCH  32  33
ENDBRANCH  29  32
ENDBRANCH  26  27
ENDBRANCH   1  26
TORSDOF 12
ENDMDL