MODEL 1
REMARK VINA RESULT: -8.287812433      0.000      0.000
REMARK  5 active torsions:
REMARK  status: ('A' for Active; 'I' for Inactive)
REMARK       I    between atoms: N2_6  and  C5_7
REMARK    1  A    between atoms: C5_7  and  C6_9
REMARK    2  A    between atoms: C6_9  and  N3_10
REMARK    3  A    between atoms: N4_13  and  C9_14
REMARK    4  A    between atoms: C9_14  and  C10_15
REMARK    5  A    between atoms: C20_25  and  N5_26
REMARK       I    between atoms: N5_26  and  C21_28
ROOT
HETATM    1  N3  UNL     1      -2.170   3.731  23.449  1.00  0.00    -0.052 N
HETATM    2  C7  UNL     1      -2.236   2.427  24.034  1.00  0.00     0.266 C
HETATM    3  C8  UNL     1      -2.618   2.597  25.502  1.00  0.00     0.268 C
HETATM    4  N4  UNL     1      -2.214   3.912  25.977  1.00  0.00    -0.038 N
HETATM    5  C18 UNL     1      -0.881   4.129  25.425  1.00  0.00     0.268 C
HETATM    6  C19 UNL     1      -1.029   4.428  23.940  1.00  0.00     0.266 C
HETATM    7  C20 UNL     1      -3.063   4.917  25.410  1.00  0.00     0.317 C
HETATM    8  C22 UNL     1      -3.351   4.461  23.971  1.00  0.00     0.293 C
ENDROOT
BRANCH   1   9
HETATM    9  C6  UNL     1      -2.348   3.758  22.019  1.00  0.00     0.340 C
BRANCH   9  10
HETATM   10  C5  UNL     1      -1.367   4.511  21.259  1.00  0.00     0.246 C
HETATM   11  N2  UNL     1      -1.642   5.838  20.868  1.00  0.00    -0.349 N
HETATM   12  C4  UNL     1      -0.606   6.511  20.124  1.00  0.00     0.127 C
HETATM   13  C23 UNL     1      -2.919   6.406  21.235  1.00  0.00     0.145 C
HETATM   14  C3  UNL     1      -0.967   7.932  19.793  1.00  0.00     0.039 C
HETATM   15  C2  UNL     1      -2.062   7.955  18.748  1.00  0.00     0.118 C
HETATM   16  N1  UNL     1      -3.373   7.884  19.314  1.00  0.00    -0.415 N
HETATM   17  C1  UNL     1      -3.796   9.060  20.006  1.00  0.00     0.143 C
HETATM   18  C24 UNL     1      -3.686   6.654  19.956  1.00  0.00     0.136 C
HETATM   19  O1  UNL     1      -0.272   4.001  20.939  1.00  0.00    -0.272 OA
ENDBRANCH   9  10
ENDBRANCH   1   9
BRANCH   7  20
HETATM   20  N5  UNL     1      -4.244   5.246  26.123  1.00  0.00    -0.335 N
HETATM   21  C21 UNL     1      -5.495   4.602  26.091  1.00  0.00     0.183 C
HETATM   22  N6  UNL     1      -5.936   3.967  27.115  1.00  0.00    -0.374 N
HETATM   23  N7  UNL     1      -6.332   4.630  24.947  1.00  0.00    -0.064 NA
ATOM     24  H62 UNL     1      -5.335   3.946  27.939  1.00  0.00     0.158 HD
ATOM     25  H61 UNL     1      -6.843   3.500  27.093  1.00  0.00     0.158 HD
ATOM     26  H5  UNL     1      -4.178   6.055  26.740  1.00  0.00     0.164 HD
ENDBRANCH   7  20
BRANCH   4  27
HETATM   27  C9  UNL     1      -2.193   3.863  27.413  1.00  0.00     0.267 C
BRANCH  27  28
HETATM   28  C10 UNL     1      -1.284   4.857  28.018  1.00  0.00     0.004 C
HETATM   29  C11 UNL     1      -1.741   5.702  28.920  1.00  0.00    -0.077 C
HETATM   30  C12 UNL     1      -0.887   6.743  29.585  1.00  0.00     0.039 C
HETATM   31  C16 UNL     1      -3.084   5.890  29.516  1.00  0.00     0.014 C
HETATM   32  C13 UNL     1      -1.834   7.524  30.470  1.00  0.00    -0.010 C
HETATM   33  C14 UNL     1      -2.223   6.676  31.634  1.00  0.00     0.005 C
HETATM   34  C17 UNL     1      -3.111   7.427  29.615  1.00  0.00     0.014 C
HETATM   35  C15 UNL     1      -3.026   5.547  30.986  1.00  0.00     0.009 C
ENDBRANCH  27  28
ENDBRANCH   4  27
TORSDOF 5
ENDMDL