MODEL 3
REMARK VINA RESULT: -6.540109386      2.866      5.980
REMARK  8 active torsions:
REMARK  status: ('A' for Active; 'I' for Inactive)
REMARK    1  A    between atoms: C2_2  and  N1_3
REMARK    2  A    between atoms: C2_2  and  C3_7
REMARK       I    between atoms: C3_7  and  N2_9
REMARK    3  A    between atoms: N2_9  and  C4_11
REMARK    4  A    between atoms: C4_11  and  C5_12
REMARK    5  A    between atoms: C4_11  and  C21_36
REMARK       I    between atoms: C5_12  and  N3_14
REMARK    6  A    between atoms: N3_14  and  C6_16
REMARK    7  A    between atoms: N4_21  and  O3_22
REMARK    8  A    between atoms: C12_25  and  N5_27
ROOT
HETATM    1  C6  UNL     1      -0.541   1.972  21.601  1.00  0.00     0.123 C
HETATM    2  C7  UNL     1       0.027   0.612  21.219  1.00  0.00     0.054 C
HETATM    3  C8  UNL     1       0.477   0.494  19.814  1.00  0.00     0.033 C
HETATM    4  C9  UNL     1       0.091  -0.882  19.299  1.00  0.00     0.034 C
HETATM    5  C10 UNL     1       1.993   0.584  19.643  1.00  0.00     0.034 C
HETATM    6  N4  UNL     1      -0.083   1.563  19.041  1.00  0.00    -0.188 NA
HETATM    7  C11 UNL     1      -1.507   1.651  19.418  1.00  0.00     0.162 C
HETATM    8  C12 UNL     1      -1.506   2.558  20.671  1.00  0.00     0.160 C
HETATM    9  C13 UNL     1      -0.975   3.874  20.116  1.00  0.00     0.050 C
ENDROOT
BRANCH   1  10
HETATM   10  N3  UNL     1      -0.826   1.895  22.996  1.00  0.00    -0.352 N
HETATM   11  C5  UNL     1      -0.293   2.822  23.975  1.00  0.00     0.241 C
HETATM   12  O2  UNL     1       0.441   3.727  23.525  1.00  0.00    -0.271 OA
ATOM     13  H3  UNL     1      -1.437   1.147  23.322  1.00  0.00     0.163 HD
BRANCH  11  14
HETATM   14  C4  UNL     1      -0.568   2.760  25.405  1.00  0.00     0.180 C
BRANCH  14  15
HETATM   15  N2  UNL     1      -0.934   4.100  25.870  1.00  0.00    -0.346 N
HETATM   16  C3  UNL     1      -2.315   4.364  26.082  1.00  0.00     0.248 C
HETATM   17  O1  UNL     1      -3.176   3.464  25.881  1.00  0.00    -0.271 OA
ATOM     18  H2  UNL     1      -0.226   4.815  26.036  1.00  0.00     0.163 HD
BRANCH  16  19
HETATM   19  C2  UNL     1      -2.838   5.673  26.537  1.00  0.00     0.270 C
HETATM   20  C1  UNL     1      -2.119   6.040  27.825  1.00  0.00     0.050 C
BRANCH  19  21
HETATM   21  N1  UNL     1      -4.262   5.604  26.678  1.00  0.00    -0.067 N
ATOM     22  H13 UNL     1      -4.709   5.471  25.771  1.00  0.00     0.275 HD
ATOM     23  H12 UNL     1      -4.538   4.733  27.133  1.00  0.00     0.275 HD
ATOM     24  H11 UNL     1      -4.662   6.407  27.163  1.00  0.00     0.275 HD
ENDBRANCH  19  21
ENDBRANCH  16  19
ENDBRANCH  14  15
BRANCH  14  25
HETATM   25  C21 UNL     1       0.672   2.392  26.213  1.00  0.00     0.009 C
HETATM   26  C22 UNL     1       1.406   1.221  25.645  1.00  0.00     0.012 C
HETATM   27  C23 UNL     1       0.381   2.175  27.659  1.00  0.00     0.012 C
ENDBRANCH  14  25
ENDBRANCH  11  14
ENDBRANCH   1  10
BRANCH   8  28
HETATM   28  N5  UNL     1      -2.869   2.767  21.055  1.00  0.00    -0.056 N
HETATM   29  C14 UNL     1      -3.711   1.600  20.777  1.00  0.00     0.273 C
HETATM   30  C15 UNL     1      -3.113   3.256  22.359  1.00  0.00     0.266 C
HETATM   31  C16 UNL     1      -3.525   4.698  22.489  1.00  0.00     0.264 C
HETATM   32  N6  UNL     1      -4.671   5.072  21.754  1.00  0.00    -0.071 N
HETATM   33  C17 UNL     1      -5.910   4.983  22.525  1.00  0.00     0.272 C
HETATM   34  C18 UNL     1      -4.541   6.466  21.367  1.00  0.00     0.272 C
HETATM   35  C19 UNL     1      -4.785   4.263  20.573  1.00  0.00     0.264 C
HETATM   36  C20 UNL     1      -3.420   3.776  20.134  1.00  0.00     0.266 C
ENDBRANCH   8  28
BRANCH   6  37
HETATM   37  O3  UNL     1      -0.075   1.150  17.740  1.00  0.00    -0.312 OA
ATOM     38  H3  UNL     1      -0.865   1.495  17.340  1.00  0.00     0.237 HD
ENDBRANCH   6  37
TORSDOF 8
ENDMDL