MODEL 1
REMARK VINA RESULT: -8.035873636      0.000      0.000
REMARK  5 active torsions:
REMARK  status: ('A' for Active; 'I' for Inactive)
REMARK    1  A    between atoms: N2_5  and  C3_6
REMARK    2  A    between atoms: C6_9  and  N3_10
REMARK    3  A    between atoms: N3_10  and  C7_12
REMARK    4  A    between atoms: C7_12  and  C8_16
REMARK    5  A    between atoms: C8_16  and  N5_17
REMARK       I    between atoms: N7_33  and  C23_35
ROOT
HETATM    1  C3  UNL     1      -1.463   0.622  19.718  1.00  0.00     0.089 C
HETATM    2  C4  UNL     1      -1.152   2.091  19.396  1.00  0.00     0.027 C
HETATM    3  C5  UNL     1      -1.530   2.869  20.628  1.00  0.00     0.027 C
HETATM    4  C6  UNL     1      -2.947   2.721  21.036  1.00  0.00     0.083 C
HETATM    5  C15 UNL     1      -3.486   1.322  20.946  1.00  0.00     0.027 C
HETATM    6  C16 UNL     1      -2.973   0.547  19.781  1.00  0.00     0.027 C
ENDROOT
BRANCH   1   7
HETATM    7  N2  UNL     1      -0.895  -0.263  18.761  1.00  0.00    -0.327 N
HETATM    8  C2  UNL     1       0.401  -0.780  19.132  1.00  0.00     0.327 C
HETATM    9  N1  UNL     1       1.189  -1.707  18.347  1.00  0.00    -0.269 N
HETATM   10  O1  UNL     1       0.867  -0.384  20.226  1.00  0.00    -0.247 OA
HETATM   11  C1  UNL     1       2.610  -1.709  18.705  1.00  0.00     0.164 C
HETATM   12  C22 UNL     1       0.749  -2.564  17.315  1.00  0.00     0.293 C
HETATM   13  N6  UNL     1      -0.203  -2.226  16.294  1.00  0.00    -0.004 N
HETATM   14  N7  UNL     1       1.201  -3.729  17.272  1.00  0.00    -0.276 N
HETATM   15  C18 UNL     1      -0.651  -0.885  16.406  1.00  0.00     0.267 C
HETATM   16  C19 UNL     1      -1.228  -3.243  16.183  1.00  0.00     0.249 C
HETATM   17  C21 UNL     1       0.258  -2.621  14.963  1.00  0.00     0.249 C
HETATM   18  C17 UNL     1      -1.596  -0.587  17.530  1.00  0.00     0.156 C
HETATM   19  C20 UNL     1      -0.524  -3.894  15.012  1.00  0.00     0.057 C
HETATM   20  C23 UNL     1       2.081  -4.485  18.008  1.00  0.00     0.335 C
ATOM     21  H7  UNL     1       0.817  -4.255  16.487  1.00  0.00     0.173 HD
HETATM   22  N8  UNL     1       1.822  -4.871  19.373  1.00  0.00    -0.040 NA
HETATM   23  O2  UNL     1       3.172  -4.888  17.524  1.00  0.00    -0.251 OA
ENDBRANCH   1   7
BRANCH   4  24
HETATM   24  N3  UNL     1      -3.123   3.283  22.349  1.00  0.00    -0.374 N
ATOM     25  H3  UNL     1      -3.287   2.642  23.125  1.00  0.00     0.161 HD
BRANCH  24  26
HETATM   26  C7  UNL     1      -3.083   4.673  22.629  1.00  0.00     0.099 C
HETATM   27  N4  UNL     1      -2.390   5.163  23.612  1.00  0.00    -0.388 N
ATOM     28  H42 UNL     1      -1.868   4.498  24.183  1.00  0.00     0.157 HD
ATOM     29  H41 UNL     1      -2.361   6.162  23.814  1.00  0.00     0.157 HD
BRANCH  26  30
HETATM   30  C8  UNL     1      -3.842   5.638  21.801  1.00  0.00     0.347 C
BRANCH  30  31
HETATM   31  N5  UNL     1      -3.150   6.039  20.606  1.00  0.00     0.095 N
HETATM   32  C9  UNL     1      -1.803   6.371  20.922  1.00  0.00     0.273 C
HETATM   33  C10 UNL     1      -1.018   6.992  19.818  1.00  0.00     0.030 C
HETATM   34  C11 UNL     1      -1.121   8.502  19.784  1.00  0.00     0.002 C
HETATM   35  C12 UNL     1      -2.448   8.945  19.226  1.00  0.00     0.002 C
HETATM   36  C13 UNL     1      -3.527   8.418  20.163  1.00  0.00     0.030 C
HETATM   37  C14 UNL     1      -3.840   6.980  19.803  1.00  0.00     0.273 C
ENDBRANCH  30  31
ENDBRANCH  26  30
ENDBRANCH  24  26
ENDBRANCH   4  24
TORSDOF 5
ENDMDL