MODEL 3
REMARK VINA RESULT: -6.266587705      0.957      2.169
REMARK  13 active torsions:
REMARK  status: ('A' for Active; 'I' for Inactive)
REMARK    1  A    between atoms: C2_2  and  C3_3
REMARK    2  A    between atoms: C3_3  and  C4_4
REMARK    3  A    between atoms: C4_4  and  C5_5
REMARK    4  A    between atoms: C5_5  and  C6_6
REMARK    5  A    between atoms: C6_6  and  C7_7
REMARK    6  A    between atoms: C7_7  and  C8_8
REMARK    7  A    between atoms: C9_9  and  C10_10
REMARK    8  A    between atoms: C10_10  and  O1_11
REMARK    9  A    between atoms: C16_18  and  O2_19
REMARK   10  A    between atoms: C17_21  and  O3_22
REMARK   11  A    between atoms: C22_27  and  C23_28
REMARK   12  A    between atoms: C24_29  and  C25_30
REMARK   13  A    between atoms: C26_31  and  C27_32
ROOT
HETATM    1  C10 UNL     1      -0.918   3.547  21.181  1.00  0.00     0.145 C
HETATM    2  C11 UNL     1      -1.855   3.729  20.036  1.00  0.00     0.051 A
HETATM    3  C12 UNL     1      -2.898   2.830  20.222  1.00  0.00     0.012 A
HETATM    4  C13 UNL     1      -2.903   2.560  21.745  1.00  0.00     0.017 C
HETATM    5  C14 UNL     1      -4.297   3.071  22.012  1.00  0.00     0.015 C
HETATM    6  C15 UNL     1      -4.281   4.257  21.147  1.00  0.00     0.035 C
HETATM    7  C16 UNL     1      -3.509   5.424  21.692  1.00  0.00     0.094 C
HETATM    8  C17 UNL     1      -3.232   5.578  20.181  1.00  0.00     0.165 C
HETATM    9  C19 UNL     1      -3.237   4.165  20.092  1.00  0.00     0.008 A
HETATM   10  C20 UNL     1      -2.392   4.931  22.518  1.00  0.00     0.044 C
HETATM   11  C21 UNL     1      -2.719   5.272  23.974  1.00  0.00     0.015 C
HETATM   12  C22 UNL     1      -1.935   3.541  22.337  1.00  0.00     0.077 C
ENDROOT
BRANCH   1  13
HETATM   13  C9  UNL     1      -0.312   2.214  21.099  1.00  0.00    -0.066 C
HETATM   14  C8  UNL     1       0.178   1.114  21.016  1.00  0.00    -0.098 C
BRANCH  14  15
HETATM   15  C7  UNL     1       0.812  -0.236  20.914  1.00  0.00     0.146 C
BRANCH  15  16
HETATM   16  C6  UNL     1       0.622  -0.854  19.609  1.00  0.00    -0.007 C
HETATM   17  N1  UNL     1       0.290  -0.049  18.629  1.00  0.00    -0.400 N
HETATM   18  C30 UNL     1       0.082  -0.541  17.297  1.00  0.00     0.145 C
ATOM     19  H1  UNL     1       0.177   0.947  18.816  1.00  0.00     0.158 HD
BRANCH  16  20
HETATM   20  C5  UNL     1       0.761  -2.258  19.252  1.00  0.00     0.053 C
BRANCH  20  21
HETATM   21  C4  UNL     1       2.066  -2.948  19.365  1.00  0.00     0.009 C
BRANCH  21  22
HETATM   22  C3  UNL     1       3.182  -2.276  18.661  1.00  0.00     0.026 C
BRANCH  22  23
HETATM   23  C2  UNL     1       4.226  -1.912  19.713  1.00  0.00    -0.037 C
HETATM   24  C1  UNL     1       5.098  -2.839  20.056  1.00  0.00     0.007 C
ENDBRANCH  22  23
ENDBRANCH  21  22
ENDBRANCH  20  21
ENDBRANCH  16  20
ENDBRANCH  15  16
ENDBRANCH  14  15
ENDBRANCH   1  13
BRANCH   1  25
HETATM   25  O1  UNL     1       0.007   4.553  21.328  1.00  0.00    -0.375 OA
ATOM     26  H1  UNL     1      -0.383   5.419  21.351  1.00  0.00     0.211 HD
ENDBRANCH   1  25
BRANCH  12  27
HETATM   27  C23 UNL     1      -1.292   3.018  23.542  1.00  0.00    -0.077 C
HETATM   28  C24 UNL     1      -0.744   2.598  24.547  1.00  0.00    -0.014 C
BRANCH  28  29
HETATM   29  C25 UNL     1      -0.089   2.127  25.713  1.00  0.00    -0.010 C
HETATM   30  C26 UNL     1       0.463   1.740  26.722  1.00  0.00    -0.065 C
BRANCH  30  31
HETATM   31  C27 UNL     1       1.107   1.306  27.921  1.00  0.00     0.061 C
HETATM   32  C28 UNL     1       2.202   0.558  27.846  1.00  0.00    -0.022 C
HETATM   33  C29 UNL     1       2.777   0.158  26.549  1.00  0.00     0.036 C
ENDBRANCH  30  31
ENDBRANCH  28  29
ENDBRANCH  12  27
BRANCH   8  34
HETATM   34  O3  UNL     1      -2.166   6.391  19.927  1.00  0.00    -0.387 OA
HETATM   35  C18 UNL     1      -2.495   7.550  19.229  1.00  0.00     0.202 C
ENDBRANCH   8  34
BRANCH   7  36
HETATM   36  O2  UNL     1      -4.304   6.415  22.210  1.00  0.00    -0.386 OA
ATOM     37  H2  UNL     1      -3.831   7.213  22.418  1.00  0.00     0.210 HD
ENDBRANCH   7  36
TORSDOF 13
ENDMDL