MODEL 2
REMARK VINA RESULT: -6.609307766      4.684      8.092
REMARK  12 active torsions:
REMARK  status: ('A' for Active; 'I' for Inactive)
REMARK       I    between atoms: C2_2  and  N1_4
REMARK    1  A    between atoms: C8_12  and  N3_13
REMARK    2  A    between atoms: N3_13  and  C9_15
REMARK    3  A    between atoms: C9_15  and  C10_16
REMARK    4  A    between atoms: C10_16  and  N4_17
REMARK    5  A    between atoms: N4_17  and  C11_18
REMARK    6  A    between atoms: C11_18  and  C12_19
REMARK    7  A    between atoms: C13_20  and  C14_21
REMARK    8  A    between atoms: C15_22  and  C16_23
REMARK    9  A    between atoms: C17_24  and  C18_25
REMARK   10  A    between atoms: C19_26  and  C20_27
REMARK   11  A    between atoms: C21_28  and  C22_29
REMARK   12  A    between atoms: C22_29  and  O2_30
ROOT
HETATM    1  C9  UNL     1      -1.601   3.854  19.611  1.00  0.00     0.149 C
ENDROOT
BRANCH   1   2
HETATM    2  N3  UNL     1      -0.914   2.884  20.390  1.00  0.00    -0.374 N
ATOM      3  H3  UNL     1      -0.892   3.061  21.394  1.00  0.00     0.161 HD
BRANCH   2   4
HETATM    4  C8  UNL     1      -0.324   1.829  20.008  1.00  0.00     0.117 A
HETATM    5  N2  UNL     1       0.436   1.026  20.768  1.00  0.00    -0.342 N
HETATM    6  C7  UNL     1       1.020  -0.074  20.261  1.00  0.00     0.055 A
ATOM      7  H2  UNL     1       0.574   1.255  21.752  1.00  0.00     0.167 HD
HETATM    8  C6  UNL     1       1.794  -0.763  21.329  1.00  0.00     0.061 C
HETATM    9  C27 UNL     1       0.853  -0.403  18.952  1.00  0.00     0.133 A
HETATM   10  C5  UNL     1       2.467  -2.014  20.749  1.00  0.00     0.008 C
HETATM   11  C4  UNL     1       3.339  -1.651  19.582  1.00  0.00     0.021 C
HETATM   12  C3  UNL     1       2.672  -2.113  18.310  1.00  0.00     0.133 C
HETATM   13  N1  UNL     1       1.361  -1.489  18.210  1.00  0.00    -0.303 N
HETATM   14  C2  UNL     1       0.515  -2.086  17.238  1.00  0.00     0.221 C
HETATM   15  C1  UNL     1      -0.884  -1.715  16.967  1.00  0.00     0.117 C
HETATM   16  O1  UNL     1       1.008  -3.032  16.538  1.00  0.00    -0.273 OA
HETATM   17  N5  UNL     1       0.100   0.382  18.169  1.00  0.00    -0.347 N
HETATM   18  C26 UNL     1      -0.492   1.487  18.663  1.00  0.00     0.138 A
ATOM     19  H5  UNL     1      -0.027   0.139  17.187  1.00  0.00     0.167 HD
ENDBRANCH   2   4
ENDBRANCH   1   2
BRANCH   1  20
HETATM   20  C10 UNL     1      -2.845   4.421  20.172  1.00  0.00     0.258 C
BRANCH  20  21
HETATM   21  N4  UNL     1      -2.807   5.749  20.678  1.00  0.00    -0.056 N
HETATM   22  C23 UNL     1      -1.613   6.531  20.469  1.00  0.00     0.240 A
HETATM   23  C24 UNL     1      -2.317   7.573  19.657  1.00  0.00     0.056 A
HETATM   24  C25 UNL     1      -3.512   6.660  19.795  1.00  0.00     0.240 A
BRANCH  21  25
HETATM   25  C11 UNL     1      -3.360   5.902  22.028  1.00  0.00     0.331 C
BRANCH  25  26
HETATM   26  C12 UNL     1      -2.461   5.226  22.964  1.00  0.00    -0.074 C
HETATM   27  C13 UNL     1      -1.711   4.644  23.738  1.00  0.00    -0.076 C
BRANCH  27  28
HETATM   28  C14 UNL     1      -0.831   3.944  24.625  1.00  0.00     0.073 C
HETATM   29  C15 UNL     1      -0.949   4.014  25.937  1.00  0.00     0.074 C
BRANCH  29  30
HETATM   30  C16 UNL     1      -2.004   4.829  26.470  1.00  0.00    -0.064 C
HETATM   31  C17 UNL     1      -2.882   5.534  26.921  1.00  0.00    -0.009 C
BRANCH  31  32
HETATM   32  C18 UNL     1      -3.891   6.376  27.447  1.00  0.00    -0.001 C
HETATM   33  C19 UNL     1      -4.744   7.112  27.886  1.00  0.00    -0.001 C
BRANCH  33  34
HETATM   34  C20 UNL     1      -5.742   7.989  28.381  1.00  0.00    -0.012 C
HETATM   35  C21 UNL     1      -6.582   8.747  28.796  1.00  0.00    -0.067 C
BRANCH  35  36
HETATM   36  C22 UNL     1      -7.598   9.688  29.287  1.00  0.00     0.258 C
BRANCH  36  37
HETATM   37  O2  UNL     1      -7.616   9.743  30.684  1.00  0.00    -0.389 OA
ATOM     38  H2  UNL     1      -6.781  10.030  31.033  1.00  0.00     0.210 HD
ENDBRANCH  36  37
ENDBRANCH  35  36
ENDBRANCH  33  34
ENDBRANCH  31  32
ENDBRANCH  29  30
ENDBRANCH  27  28
ENDBRANCH  25  26
ENDBRANCH  21  25
ENDBRANCH  20  21
ENDBRANCH   1  20
TORSDOF 12
ENDMDL