MODEL 4
REMARK VINA RESULT: -7.848848888      2.034      2.547
REMARK  5 active torsions:
REMARK  status: ('A' for Active; 'I' for Inactive)
REMARK    1  A    between atoms: N1_2  and  C2_3
REMARK    2  A    between atoms: C2_3  and  C3_4
REMARK       I    between atoms: C3_4  and  N2_6
REMARK       I    between atoms: N3_9  and  C6_10
REMARK       I    between atoms: C6_10  and  N4_12
REMARK       I    between atoms: N4_12  and  C7_14
REMARK       I    between atoms: C7_14  and  N6_23
REMARK       I    between atoms: N5_15  and  C8_17
REMARK    3  A    between atoms: C8_17  and  C9_19
REMARK    4  A    between atoms: N6_23  and  C13_25
REMARK    5  A    between atoms: C13_25  and  C14_26
ROOT
HETATM    1  C3  UNL     1       0.627  -2.197  18.091  1.00  0.00     0.267 C
HETATM    2  O1  UNL     1       0.729  -2.373  16.852  1.00  0.00    -0.267 OA
HETATM    3  N2  UNL     1       0.180  -0.925  18.513  1.00  0.00    -0.344 N
HETATM    4  C4  UNL     1      -0.145   0.126  17.576  1.00  0.00     0.146 C
HETATM    5  C5  UNL     1      -0.003   1.496  18.208  1.00  0.00     0.147 C
HETATM    6  N3  UNL     1      -0.753   1.588  19.449  1.00  0.00    -0.330 N
HETATM    7  C6  UNL     1      -1.236   2.838  19.867  1.00  0.00     0.336 C
HETATM    8  O2  UNL     1      -1.017   3.855  19.176  1.00  0.00    -0.246 OA
HETATM    9  N4  UNL     1      -1.974   2.963  21.069  1.00  0.00    -0.141 N
ATOM     10  H4  UNL     1      -2.160   2.138  21.640  1.00  0.00     0.189 HD
HETATM   11  C7  UNL     1      -2.453   4.230  21.480  1.00  0.00     0.685 C
HETATM   12  N5  UNL     1      -3.109   4.366  22.548  1.00  0.00    -0.159 N
ATOM     13  H5  UNL     1      -3.402   5.324  22.742  1.00  0.00     0.187 HD
HETATM   14  C8  UNL     1      -3.504   3.442  23.506  1.00  0.00     0.240 C
HETATM   15  O3  UNL     1      -2.688   2.620  23.985  1.00  0.00    -0.272 OA
HETATM   16  N6  UNL     1      -2.197   5.380  20.682  1.00  0.00    -0.222 N
ATOM     17  H6  UNL     1      -1.277   5.819  20.711  1.00  0.00     0.178 HD
HETATM   18  C18 UNL     1      -0.990   0.415  20.230  1.00  0.00     0.147 C
HETATM   19  C19 UNL     1       0.043  -0.646  19.910  1.00  0.00     0.146 C
ENDROOT
BRANCH  16  20
HETATM   20  C13 UNL     1      -3.239   5.937  19.822  1.00  0.00     0.178 C
BRANCH  20  21
HETATM   21  C14 UNL     1      -3.041   7.395  19.638  1.00  0.00    -0.023 A
HETATM   22  C15 UNL     1      -3.876   8.382  20.108  1.00  0.00     0.027 A
HETATM   23  C16 UNL     1      -3.353   9.597  19.738  1.00  0.00     0.088 A
HETATM   24  N7  UNL     1      -2.221   9.352  19.055  1.00  0.00    -0.375 N
HETATM   25  C17 UNL     1      -2.009   8.036  18.980  1.00  0.00     0.096 A
ATOM     26  H7  UNL     1      -1.614  10.066  18.653  1.00  0.00     0.164 HD
ENDBRANCH  20  21
ENDBRANCH  16  20
BRANCH  14  27
HETATM   27  C9  UNL     1      -4.910   3.413  23.985  1.00  0.00     0.079 C
HETATM   28  C10 UNL     1      -5.756   4.376  23.188  1.00  0.00     0.014 C
HETATM   29  C11 UNL     1      -6.338   3.200  22.440  1.00  0.00     0.002 C
HETATM   30  C12 UNL     1      -5.752   2.281  23.486  1.00  0.00     0.014 C
ENDBRANCH  14  27
BRANCH   1  31
HETATM   31  C2  UNL     1       0.943  -3.220  19.068  1.00  0.00     0.275 C
BRANCH  31  32
HETATM   32  N1  UNL     1       2.311  -3.506  19.328  1.00  0.00    -0.046 N
HETATM   33  C1  UNL     1       2.705  -4.742  18.641  1.00  0.00     0.278 C
HETATM   34  C20 UNL     1       2.475  -3.791  20.740  1.00  0.00     0.243 C
HETATM   35  C21 UNL     1       3.698  -3.038  21.204  1.00  0.00     0.030 C
HETATM   36  C22 UNL     1       4.399  -2.715  19.927  1.00  0.00     0.030 C
HETATM   37  C23 UNL     1       3.254  -2.491  18.959  1.00  0.00     0.243 C
ENDBRANCH  31  32
ENDBRANCH   1  31
TORSDOF 5
ENDMDL