MODEL 4
REMARK VINA RESULT: -7.383880858      2.355      3.032
REMARK  6 active torsions:
REMARK  status: ('A' for Active; 'I' for Inactive)
REMARK    1  A    between atoms: N1_2  and  C2_3
REMARK    2  A    between atoms: C2_3  and  C3_4
REMARK    3  A    between atoms: C3_4  and  N3_8
REMARK       I    between atoms: N3_8  and  C4_10
REMARK       I    between atoms: C4_10  and  N5_14
REMARK    4  A    between atoms: C7_17  and  C8_18
REMARK       I    between atoms: C8_18  and  N6_20
REMARK    5  A    between atoms: N7_23  and  C12_25
REMARK    6  A    between atoms: C12_25  and  C13_26
ROOT
HETATM    1  N3  UNL     1      -4.826   5.349  30.145  1.00  0.00    -0.180 N
ATOM      2  H3  UNL     1      -3.933   5.599  30.570  1.00  0.00     0.185 HD
HETATM    3  C4  UNL     1      -4.854   4.624  28.927  1.00  0.00     0.675 C
HETATM    4  N4  UNL     1      -5.974   4.050  28.555  1.00  0.00    -0.235 N
ATOM      5  H41 UNL     1      -5.994   3.529  27.679  1.00  0.00     0.174 HD
ATOM      6  H42 UNL     1      -6.799   4.136  29.149  1.00  0.00     0.174 HD
HETATM    7  N5  UNL     1      -3.707   4.504  28.104  1.00  0.00    -0.218 N
HETATM    8  C5  UNL     1      -3.295   3.245  27.559  1.00  0.00     0.142 C
HETATM    9  C6  UNL     1      -3.313   3.379  26.047  1.00  0.00     0.034 C
HETATM   10  C7  UNL     1      -2.589   4.622  25.653  1.00  0.00     0.081 C
HETATM   11  C18 UNL     1      -1.829   5.237  26.823  1.00  0.00     0.034 C
HETATM   12  C19 UNL     1      -2.928   5.688  27.801  1.00  0.00     0.142 C
ENDROOT
BRANCH   1  13
HETATM   13  C3  UNL     1      -6.028   5.721  30.767  1.00  0.00     0.117 C
HETATM   14  N2  UNL     1      -6.716   4.851  31.403  1.00  0.00    -0.387 N
ATOM     15  H22 UNL     1      -7.589   5.122  31.855  1.00  0.00     0.157 HD
ATOM     16  H21 UNL     1      -6.393   3.885  31.462  1.00  0.00     0.157 HD
BRANCH  13  17
HETATM   17  C2  UNL     1      -6.491   7.111  30.683  1.00  0.00     0.313 C
BRANCH  17  18
HETATM   18  N1  UNL     1      -7.408   7.398  29.627  1.00  0.00    -0.064 N
HETATM   19  C1  UNL     1      -8.440   6.426  29.454  1.00  0.00     0.273 C
HETATM   20  C20 UNL     1      -6.760   7.647  28.375  1.00  0.00     0.237 C
HETATM   21  C21 UNL     1      -6.323   9.106  28.409  1.00  0.00     0.029 C
HETATM   22  C22 UNL     1      -7.461   9.737  29.163  1.00  0.00     0.029 C
HETATM   23  C23 UNL     1      -8.075   8.659  29.992  1.00  0.00     0.237 C
ENDBRANCH  17  18
ENDBRANCH  13  17
ENDBRANCH   1  13
BRANCH  10  24
HETATM   24  C8  UNL     1      -1.734   4.498  24.454  1.00  0.00     0.224 C
HETATM   25  O1  UNL     1      -0.569   3.967  24.574  1.00  0.00    -0.273 OA
HETATM   26  N6  UNL     1      -2.080   4.921  23.153  1.00  0.00    -0.349 N
HETATM   27  C9  UNL     1      -1.135   4.771  22.039  1.00  0.00     0.154 C
HETATM   28  C17 UNL     1      -3.344   5.504  22.780  1.00  0.00     0.154 C
HETATM   29  C10 UNL     1      -1.955   4.337  20.842  1.00  0.00     0.257 C
HETATM   30  N7  UNL     1      -2.814   5.419  20.388  1.00  0.00    -0.063 N
HETATM   31  C11 UNL     1      -4.023   4.929  19.788  1.00  0.00     0.273 C
HETATM   32  C16 UNL     1      -3.164   6.309  21.480  1.00  0.00     0.257 C
BRANCH  30  33
HETATM   33  C12 UNL     1      -2.079   6.187  19.413  1.00  0.00     0.295 C
BRANCH  33  34
HETATM   34  C13 UNL     1      -2.310   7.628  19.524  1.00  0.00     0.051 A
HETATM   35  C14 UNL     1      -1.379   8.610  19.758  1.00  0.00     0.115 A
HETATM   36  N8  UNL     1      -1.998   9.812  19.788  1.00  0.00    -0.360 N
HETATM   37  C15 UNL     1      -3.304   9.581  19.574  1.00  0.00     0.180 A
ATOM     38  H8  UNL     1      -1.558  10.718  19.943  1.00  0.00     0.166 HD
HETATM   39  N9  UNL     1      -3.493   8.247  19.413  1.00  0.00    -0.353 N
ATOM     40  H9  UNL     1      -4.388   7.791  19.236  1.00  0.00     0.166 HD
ENDBRANCH  33  34
ENDBRANCH  30  33
ENDBRANCH  10  24
TORSDOF 6
ENDMDL