MODEL 1
REMARK VINA RESULT: -7.633708069      0.000      0.000
REMARK  9 active torsions:
REMARK  status: ('A' for Active; 'I' for Inactive)
REMARK    1  A    between atoms: C4_4  and  C5_5
REMARK    2  A    between atoms: C5_5  and  N1_6
REMARK       I    between atoms: N1_6  and  C6_8
REMARK       I    between atoms: C6_8  and  N3_12
REMARK    3  A    between atoms: N3_12  and  C7_13
REMARK    4  A    between atoms: N3_12  and  C9_15
REMARK    5  A    between atoms: C9_15  and  C10_16
REMARK       I    between atoms: N4_18  and  C12_19
REMARK    6  A    between atoms: C12_19  and  C13_21
REMARK    7  A    between atoms: N6_26  and  C16_27
REMARK    8  A    between atoms: C16_27  and  O3_28
REMARK    9  A    between atoms: C16_27  and  N7_30
ROOT
HETATM    1  C1  UNL     1      -0.872   7.087  29.145  1.00  0.00     0.027 C
HETATM    2  C2  UNL     1      -1.664   6.424  28.504  1.00  0.00    -0.026 C
HETATM    3  C3  UNL     1      -2.610   5.646  27.775  1.00  0.00    -0.014 C
HETATM    4  C4  UNL     1      -3.411   4.968  27.168  1.00  0.00    -0.072 C
ENDROOT
BRANCH   4   5
HETATM    5  C5  UNL     1      -4.388   4.125  26.451  1.00  0.00     0.233 C
BRANCH   5   6
HETATM    6  N1  UNL     1      -4.869   4.859  25.309  1.00  0.00    -0.216 N
HETATM    7  C6  UNL     1      -6.042   4.543  24.586  1.00  0.00     0.670 C
HETATM    8  N2  UNL     1      -7.166   4.413  25.147  1.00  0.00    -0.235 N
HETATM    9  N3  UNL     1      -5.945   4.376  23.154  1.00  0.00    -0.218 N
ATOM     10  H22 UNL     1      -7.234   4.530  26.157  1.00  0.00     0.174 HD
ATOM     11  H21 UNL     1      -8.012   4.185  24.625  1.00  0.00     0.174 HD
ATOM     12  H1  UNL     1      -4.325   5.665  25.000  1.00  0.00     0.178 HD
BRANCH   9  13
HETATM   13  C7  UNL     1      -6.307   3.099  22.608  1.00  0.00     0.136 C
HETATM   14  C8  UNL     1      -7.187   3.208  21.361  1.00  0.00     0.027 C
ENDBRANCH   9  13
BRANCH   9  15
HETATM   15  C9  UNL     1      -5.504   5.512  22.433  1.00  0.00     0.149 C
BRANCH  15  16
HETATM   16  C10 UNL     1      -4.148   5.418  21.769  1.00  0.00     0.040 C
HETATM   17  C11 UNL     1      -4.226   5.588  20.296  1.00  0.00     0.134 C
HETATM   18  N4  UNL     1      -2.955   6.179  19.833  1.00  0.00    -0.342 N
HETATM   19  C12 UNL     1      -2.987   7.513  19.406  1.00  0.00     0.308 C
HETATM   20  C14 UNL     1      -1.702   5.477  19.798  1.00  0.00     0.146 C
HETATM   21  O1  UNL     1      -4.104   8.157  19.427  1.00  0.00    -0.263 OA
HETATM   22  C15 UNL     1      -1.922   4.011  20.181  1.00  0.00     0.146 C
HETATM   23  N6  UNL     1      -2.072   3.996  21.657  1.00  0.00    -0.345 N
HETATM   24  C22 UNL     1      -3.250   4.400  22.349  1.00  0.00     0.134 C
BRANCH  19  25
HETATM   25  C13 UNL     1      -1.857   8.252  18.937  1.00  0.00     0.322 C
HETATM   26  N5  UNL     1      -1.302   9.335  19.718  1.00  0.00    -0.053 NA
HETATM   27  O2  UNL     1      -1.307   7.994  17.839  1.00  0.00    -0.266 OA
ENDBRANCH  19  25
BRANCH  23  28
HETATM   28  C16 UNL     1      -0.909   3.560  22.318  1.00  0.00     0.217 C
BRANCH  28  29
HETATM   29  O3  UNL     1       0.185   4.134  21.865  1.00  0.00    -0.333 OA
ATOM     30  H3  UNL     1       0.789   3.518  21.467  1.00  0.00     0.220 HD
ENDBRANCH  28  29
BRANCH  28  31
HETATM   31  N7  UNL     1      -0.657   2.655  23.340  1.00  0.00    -0.348 N
HETATM   32  C17 UNL     1      -1.224   2.958  24.671  1.00  0.00     0.126 C
HETATM   33  C18 UNL     1      -0.132   3.066  25.699  1.00  0.00     0.020 C
HETATM   34  C19 UNL     1       1.134   2.368  25.237  1.00  0.00     0.003 C
HETATM   35  C20 UNL     1       0.762   1.071  24.548  1.00  0.00     0.020 C
HETATM   36  C21 UNL     1       0.160   1.480  23.186  1.00  0.00     0.126 C
ENDBRANCH  28  31
ENDBRANCH  23  28
ENDBRANCH  15  16
ENDBRANCH   9  15
ENDBRANCH   5   6
ENDBRANCH   4   5
TORSDOF 9
ENDMDL