MODEL 1
REMARK VINA RESULT: -9.441990265      0.000      0.000
REMARK  6 active torsions:
REMARK  status: ('A' for Active; 'I' for Inactive)
REMARK    1  A    between atoms: C1_2  and  C2_3
REMARK       I    between atoms: C1_2  and  N4_28
REMARK    2  A    between atoms: C2_3  and  N1_4
REMARK    3  A    between atoms: N2_7  and  C5_8
REMARK    4  A    between atoms: C5_8  and  C6_9
REMARK       I    between atoms: C6_9  and  N3_11
REMARK    5  A    between atoms: N3_11  and  C7_13
REMARK    6  A    between atoms: N4_28  and  C21_30
ROOT
HETATM    1  N1  UNL     1      -2.334   3.971  21.400  1.00  0.00    -0.032 N
HETATM    2  C3  UNL     1      -2.692   2.958  20.452  1.00  0.00     0.271 C
HETATM    3  C4  UNL     1      -1.442   2.096  20.196  1.00  0.00     0.302 C
HETATM    4  N2  UNL     1      -0.737   2.052  21.459  1.00  0.00     0.060 N
HETATM    5  C18 UNL     1      -1.674   1.993  22.562  1.00  0.00     0.302 C
HETATM    6  C19 UNL     1      -2.324   3.370  22.725  1.00  0.00     0.271 C
HETATM    7  O3  UNL     1      -0.120   3.281  21.592  1.00  0.00    -0.173 OA
HETATM    8  C20 UNL     1      -0.921   4.293  21.129  1.00  0.00     0.445 C
ENDROOT
BRANCH   4   9
HETATM    9  C5  UNL     1       0.301   1.085  21.540  1.00  0.00     0.375 C
BRANCH   9  10
HETATM   10  C6  UNL     1       0.805   0.550  20.278  1.00  0.00     0.246 C
HETATM   11  O2  UNL     1       1.741   1.108  19.625  1.00  0.00    -0.272 OA
HETATM   12  N3  UNL     1       0.280  -0.643  19.686  1.00  0.00    -0.355 N
ATOM     13  H3  UNL     1      -0.475  -1.134  20.165  1.00  0.00     0.162 HD
BRANCH  12  14
HETATM   14  C7  UNL     1       0.774  -1.184  18.436  1.00  0.00     0.084 C
HETATM   15  C8  UNL     1       0.245  -0.376  17.302  1.00  0.00     0.025 C
HETATM   16  C9  UNL     1      -1.213  -0.240  17.174  1.00  0.00     0.002 C
HETATM   17  C10 UNL     1      -1.918  -1.109  16.169  1.00  0.00     0.000 C
HETATM   18  C11 UNL     1      -1.399  -1.087  14.791  1.00  0.00     0.000 C
HETATM   19  C12 UNL     1      -0.886  -2.352  14.196  1.00  0.00     0.000 C
HETATM   20  C13 UNL     1      -1.238  -3.638  14.820  1.00  0.00     0.000 C
HETATM   21  C14 UNL     1      -0.434  -4.209  15.895  1.00  0.00     0.000 C
HETATM   22  C15 UNL     1       0.935  -3.716  16.137  1.00  0.00     0.000 C
HETATM   23  C16 UNL     1       1.317  -3.479  17.559  1.00  0.00     0.002 C
HETATM   24  C17 UNL     1       0.463  -2.652  18.410  1.00  0.00     0.025 C
ENDBRANCH  12  14
ENDBRANCH   9  10
ENDBRANCH   4   9
BRANCH   1  25
HETATM   25  C2  UNL     1      -3.089   5.181  21.330  1.00  0.00     0.342 C
BRANCH  25  26
HETATM   26  C1  UNL     1      -3.428   5.633  19.979  1.00  0.00     0.249 C
HETATM   27  O1  UNL     1      -4.309   5.084  19.312  1.00  0.00    -0.271 OA
HETATM   28  N4  UNL     1      -2.738   6.736  19.393  1.00  0.00    -0.311 N
ATOM     29  H4  UNL     1      -1.874   6.557  18.881  1.00  0.00     0.170 HD
BRANCH  28  30
HETATM   30  C21 UNL     1      -3.159   7.941  19.484  1.00  0.00     0.123 A
HETATM   31  C22 UNL     1      -2.341   9.028  19.697  1.00  0.00     0.068 A
HETATM   32  C23 UNL     1      -3.182  10.131  19.727  1.00  0.00     0.111 A
HETATM   33  N5  UNL     1      -4.439   9.716  19.541  1.00  0.00    -0.310 N
HETATM   34  N6  UNL     1      -4.442   8.385  19.390  1.00  0.00    -0.286 N
ATOM     35  H5  UNL     1      -5.264  10.316  19.517  1.00  0.00     0.186 HD
ATOM     36  H6  UNL     1      -5.265   7.803  19.231  1.00  0.00     0.188 HD
ENDBRANCH  28  30
ENDBRANCH  25  26
ENDBRANCH   1  25
TORSDOF 6
ENDMDL