MODEL 3
REMARK VINA RESULT: -7.759890909      0.737      1.681
REMARK  7 active torsions:
REMARK  status: ('A' for Active; 'I' for Inactive)
REMARK    1  A    between atoms: N2_7  and  C6_8
REMARK    2  A    between atoms: C6_8  and  C7_9
REMARK    3  A    between atoms: C7_9  and  C8_10
REMARK    4  A    between atoms: C8_10  and  N3_11
REMARK       I    between atoms: N3_11  and  C9_13
REMARK       I    between atoms: C9_13  and  N4_15
REMARK       I    between atoms: N5_18  and  C12_19
REMARK    5  A    between atoms: C12_19  and  C13_21
REMARK    6  A    between atoms: C14_22  and  C15_23
REMARK    7  A    between atoms: C18_26  and  N6_27
ROOT
HETATM    1  N3  UNL     1       0.602   1.229  27.310  1.00  0.00    -0.343 N
ATOM      2  H3  UNL     1       0.432   2.190  27.606  1.00  0.00     0.164 HD
HETATM    3  C9  UNL     1       0.522   0.882  25.948  1.00  0.00     0.319 C
HETATM    4  O1  UNL     1       0.731  -0.296  25.578  1.00  0.00    -0.247 OA
HETATM    5  N4  UNL     1       0.205   1.853  24.964  1.00  0.00    -0.316 N
HETATM    6  C10 UNL     1      -0.064   3.269  25.237  1.00  0.00     0.149 C
HETATM    7  C11 UNL     1      -0.951   3.664  24.103  1.00  0.00     0.148 C
HETATM    8  N5  UNL     1      -0.437   2.844  23.013  1.00  0.00    -0.323 N
HETATM    9  C12 UNL     1      -0.476   3.237  21.656  1.00  0.00     0.300 C
HETATM   10  O2  UNL     1      -0.009   2.467  20.792  1.00  0.00    -0.258 OA
HETATM   11  C20 UNL     1       0.098   1.613  23.554  1.00  0.00     0.257 C
ENDROOT
BRANCH   1  12
HETATM   12  C8  UNL     1       0.928   0.217  28.284  1.00  0.00     0.126 C
BRANCH  12  13
HETATM   13  C7  UNL     1       2.415   0.100  28.387  1.00  0.00     0.048 C
BRANCH  13  14
HETATM   14  C6  UNL     1       2.973  -1.251  28.587  1.00  0.00     0.239 C
BRANCH  14  15
HETATM   15  N2  UNL     1       3.696  -1.845  27.486  1.00  0.00    -0.064 N
HETATM   16  C5  UNL     1       2.958  -2.927  26.953  1.00  0.00     0.237 C
HETATM   17  C4  UNL     1       2.896  -3.119  25.491  1.00  0.00     0.029 C
HETATM   18  C3  UNL     1       4.079  -3.873  24.961  1.00  0.00     0.029 C
HETATM   19  C2  UNL     1       5.299  -3.043  24.766  1.00  0.00     0.237 C
HETATM   20  N1  UNL     1       5.928  -2.529  25.916  1.00  0.00    -0.068 N
HETATM   21  C1  UNL     1       7.382  -2.562  25.641  1.00  0.00     0.272 C
HETATM   22  C22 UNL     1       5.726  -3.225  27.142  1.00  0.00     0.265 C
HETATM   23  C24 UNL     1       5.641  -1.141  26.127  1.00  0.00     0.265 C
HETATM   24  C21 UNL     1       4.898  -2.436  28.130  1.00  0.00     0.265 C
HETATM   25  C23 UNL     1       4.209  -0.875  26.607  1.00  0.00     0.265 C
ENDBRANCH  14  15
ENDBRANCH  13  14
ENDBRANCH  12  13
ENDBRANCH   1  12
BRANCH   9  26
HETATM   26  C13 UNL     1      -1.032   4.485  21.244  1.00  0.00     0.000 C
HETATM   27  C14 UNL     1      -1.487   5.545  20.882  1.00  0.00    -0.055 C
BRANCH  27  28
HETATM   28  C15 UNL     1      -2.004   6.811  20.442  1.00  0.00     0.033 A
HETATM   29  C16 UNL     1      -3.340   7.136  20.530  1.00  0.00     0.026 A
HETATM   30  C17 UNL     1      -3.762   8.359  20.090  1.00  0.00     0.049 A
HETATM   31  C18 UNL     1      -2.892   9.287  19.558  1.00  0.00     0.098 A
HETATM   32  N7  UNL     1      -1.595   8.951  19.482  1.00  0.00    -0.351 N
HETATM   33  C19 UNL     1      -1.150   7.752  19.907  1.00  0.00     0.110 A
ATOM     34  H7  UNL     1      -0.930   9.619  19.092  1.00  0.00     0.166 HD
BRANCH  31  35
HETATM   35  N6  UNL     1      -3.270  10.436  19.142  1.00  0.00    -0.385 N
ATOM     36  H62 UNL     1      -3.452  10.576  18.149  1.00  0.00     0.157 HD
ATOM     37  H61 UNL     1      -3.402  11.234  19.764  1.00  0.00     0.157 HD
ENDBRANCH  31  35
ENDBRANCH  27  28
ENDBRANCH   9  26
TORSDOF 7
ENDMDL