MODEL 1
REMARK VINA RESULT: -5.916466174      0.000      0.000
REMARK  2 active torsions:
REMARK  status: ('A' for Active; 'I' for Inactive)
REMARK    1  A    between atoms: C2_2  and  C3_3
REMARK    2  A    between atoms: C9_12  and  C10_13
ROOT
HETATM    1  C1  UNL     1    -152.435   4.839  -4.503  1.00  0.00     0.048 C
HETATM    2  C2  UNL     1    -153.047   4.229  -5.746  1.00  0.00     0.124 C
HETATM    3  C4  UNL     1    -154.423   4.794  -5.904  1.00  0.00     0.040 C
HETATM    4  C5  UNL     1    -154.892   4.863  -7.330  1.00  0.00     0.003 C
HETATM    5  C6  UNL     1    -155.021   6.258  -7.845  1.00  0.00     0.000 C
HETATM    6  C7  UNL     1    -153.834   6.727  -8.642  1.00  0.00     0.006 C
HETATM    7  C8  UNL     1    -152.562   6.782  -7.859  1.00  0.00     0.060 C
HETATM    8  C9  UNL     1    -151.933   5.453  -7.709  1.00  0.00     0.044 C
HETATM    9  N2  UNL     1    -152.173   4.498  -6.854  1.00  0.00    -0.374 N
ATOM     10  H2  UNL     1    -151.556   3.704  -7.023  1.00  0.00     0.160 HD
ENDROOT
BRANCH   2  11
HETATM   11  C3  UNL     1    -153.077   2.709  -5.570  1.00  0.00     0.412 C
HETATM   12  F1  UNL     1    -151.996   2.170  -6.229  1.00  0.00    -0.168 F
HETATM   13  F2  UNL     1    -153.099   2.414  -4.231  1.00  0.00    -0.168 F
HETATM   14  F3  UNL     1    -154.209   2.174  -6.151  1.00  0.00    -0.168 F
ENDBRANCH   2  11
BRANCH   8  15
HETATM   15  C10 UNL     1    -150.880   5.151  -8.654  1.00  0.00     0.119 C
HETATM   16  N1  UNL     1    -149.873   4.405  -8.373  1.00  0.00    -0.388 N
ATOM     17  H12 UNL     1    -149.810   4.004  -7.437  1.00  0.00     0.157 HD
ATOM     18  H11 UNL     1    -149.131   4.192  -9.039  1.00  0.00     0.157 HD
HETATM   19 CL1  UNL     1    -150.989   5.837 -10.258  1.00  0.00    -0.063 Cl
ENDBRANCH   8  15
TORSDOF 2
ENDMDL