MODEL 4
REMARK VINA RESULT: -4.071521767      3.363      4.370
REMARK  1 active torsions:
REMARK  status: ('A' for Active; 'I' for Inactive)
REMARK    1  A    between atoms: C7_9  and  C9_12
ROOT
HETATM    1  C1  UNL     1    -152.047   4.201  -6.365  1.00  0.00     0.020 C
HETATM    2  C2  UNL     1    -152.923   3.745  -5.244  1.00  0.00     0.017 C
HETATM    3  C3  UNL     1    -152.618   4.631  -4.037  1.00  0.00     0.020 C
HETATM    4  C4  UNL     1    -152.508   2.339  -4.856  1.00  0.00     0.122 C
HETATM    5 CL1  UNL     1    -150.855   1.959  -5.343  1.00  0.00    -0.101 Cl
HETATM    6 CL2  UNL     1    -152.580   2.143  -3.067  1.00  0.00    -0.101 Cl
HETATM    7  C5  UNL     1    -153.518   1.406  -5.502  1.00  0.00     0.045 C
HETATM    8  C6  UNL     1    -154.502   2.286  -6.239  1.00  0.00     0.038 C
HETATM    9  C7  UNL     1    -154.352   3.610  -5.535  1.00  0.00     0.156 C
HETATM   10  C8  UNL     1    -155.099   3.520  -4.270  1.00  0.00     0.079 C
HETATM   11  N1  UNL     1    -155.679   3.433  -3.269  1.00  0.00    -0.196 NA
ENDROOT
BRANCH   9  12
HETATM   12  C9  UNL     1    -154.979   4.688  -6.354  1.00  0.00     0.408 C
HETATM   13  F1  UNL     1    -154.860   4.493  -7.706  1.00  0.00    -0.169 F
HETATM   14  F2  UNL     1    -156.356   4.616  -6.083  1.00  0.00    -0.169 F
HETATM   15  F3  UNL     1    -154.602   5.954  -5.954  1.00  0.00    -0.169 F
ENDBRANCH   9  12
TORSDOF 1
ENDMDL