MODEL 1
REMARK VINA RESULT: -4.744302951      0.000      0.000
REMARK  1 active torsions:
REMARK  status: ('A' for Active; 'I' for Inactive)
REMARK    1  A    between atoms: C2_2  and  N1_3
ROOT
HETATM    1  N1  UNL     1    -154.506   5.225  -6.078  1.00  0.00    -0.396 N
HETATM    2  C3  UNL     1    -153.430   5.818  -6.780  1.00  0.00     0.196 C
HETATM    3  C4  UNL     1    -153.779   7.148  -7.434  1.00  0.00     0.262 C
HETATM    4  F1  UNL     1    -152.669   7.471  -8.220  1.00  0.00    -0.204 F
HETATM    5  F2  UNL     1    -153.973   8.136  -6.514  1.00  0.00    -0.204 F
HETATM    6  C5  UNL     1    -154.998   6.888  -8.299  1.00  0.00     0.125 C
HETATM    7  C6  UNL     1    -156.107   6.426  -7.394  1.00  0.00     0.142 C
HETATM    8 CL1  UNL     1    -157.570   6.173  -8.355  1.00  0.00    -0.099 Cl
HETATM    9 CL2  UNL     1    -156.485   7.633  -6.149  1.00  0.00    -0.099 Cl
HETATM   10  C7  UNL     1    -155.758   5.136  -6.721  1.00  0.00     0.056 C
HETATM   11  C8  UNL     1    -156.822   4.882  -5.654  1.00  0.00     0.041 C
HETATM   12  C9  UNL     1    -155.838   3.951  -7.690  1.00  0.00     0.041 C
ENDROOT
BRANCH   1  13
HETATM   13  C2  UNL     1    -154.103   4.133  -5.273  1.00  0.00     0.113 C
HETATM   14  C1  UNL     1    -152.753   4.434  -4.668  1.00  0.00     0.026 C
ENDBRANCH   1  13
TORSDOF 1
ENDMDL