MODEL 1
REMARK VINA RESULT: -6.410816204      0.000      0.000
REMARK  2 active torsions:
REMARK  status: ('A' for Active; 'I' for Inactive)
REMARK    1  A    between atoms: C1_2  and  C2_5
REMARK    2  A    between atoms: C9_13  and  C10_14
ROOT
HETATM    1  C2  UNL     1    -151.232   6.918 -11.034  1.00  0.00     0.274 C
HETATM    2  F4  UNL     1    -150.291   7.937 -10.939  1.00  0.00    -0.209 F
HETATM    3  C3  UNL     1    -152.517   7.442 -10.485  1.00  0.00     0.081 C
HETATM    4  C4  UNL     1    -152.539   7.565  -8.991  1.00  0.00     0.000 C
HETATM    5  C5  UNL     1    -154.003   7.709  -8.577  1.00  0.00     0.005 C
HETATM    6  C6  UNL     1    -154.420   6.238  -8.461  1.00  0.00     0.001 C
HETATM    7  C7  UNL     1    -153.241   5.623  -7.748  1.00  0.00     0.011 C
HETATM    8  C8  UNL     1    -152.033   6.346  -8.279  1.00  0.00     0.036 C
HETATM    9  C9  UNL     1    -151.145   5.505  -9.103  1.00  0.00     0.003 C
HETATM   10  N1  UNL     1    -150.802   5.762 -10.301  1.00  0.00    -0.353 N
ATOM     11  H1  UNL     1    -150.181   5.103 -10.771  1.00  0.00     0.162 HD
ENDROOT
BRANCH   1  12
HETATM   12  C1  UNL     1    -151.444   6.586 -12.493  1.00  0.00     0.442 C
HETATM   13  F1  UNL     1    -151.550   7.785 -13.179  1.00  0.00    -0.166 F
HETATM   14  F2  UNL     1    -150.417   5.813 -12.986  1.00  0.00    -0.166 F
HETATM   15  F3  UNL     1    -152.673   5.965 -12.591  1.00  0.00    -0.166 F
ENDBRANCH   1  12
BRANCH   9  16
HETATM   16  C10 UNL     1    -150.606   4.260  -8.486  1.00  0.00     0.167 C
HETATM   17 CL1  UNL     1    -150.439   4.416  -6.730  1.00  0.00    -0.124 Cl
ENDBRANCH   9  16
TORSDOF 2
ENDMDL