MODEL 5
REMARK VINA RESULT: -6.168264848      2.545      3.373
REMARK  4 active torsions:
REMARK  status: ('A' for Active; 'I' for Inactive)
REMARK    1  A    between atoms: C2_2  and  C5_5
REMARK    2  A    between atoms: C7_8  and  C8_9
REMARK    3  A    between atoms: C9_10  and  C10_11
REMARK    4  A    between atoms: C10_11  and  C11_14
ROOT
HETATM    1  C5  UNL     1    -152.076   4.919  -6.888  1.00  0.00    -0.025 A
HETATM    2  C6  UNL     1    -150.776   4.462  -6.885  1.00  0.00     0.151 A
HETATM    3  O1  UNL     1    -150.265   4.672  -8.064  1.00  0.00    -0.313 OA
HETATM    4  C7  UNL     1    -151.147   5.250  -8.870  1.00  0.00     0.128 A
HETATM    5  C12 UNL     1    -152.305   5.419  -8.156  1.00  0.00     0.056 A
ENDROOT
BRANCH   4   6
HETATM    6  C8  UNL     1    -150.957   5.635 -10.235  1.00  0.00    -0.035 C
HETATM    7  C9  UNL     1    -150.813   5.962 -11.400  1.00  0.00    -0.012 C
BRANCH   7   8
HETATM    8  C10 UNL     1    -150.643   6.379 -12.796  1.00  0.00     0.402 C
HETATM    9  F1  UNL     1    -151.433   5.625 -13.659  1.00  0.00    -0.181 F
HETATM   10  F2  UNL     1    -149.350   6.235 -13.206  1.00  0.00    -0.181 F
BRANCH   8  11
HETATM   11  C11 UNL     1    -151.142   7.800 -12.875  1.00  0.00     0.467 C
HETATM   12  F3  UNL     1    -150.732   8.547 -11.813  1.00  0.00    -0.164 F
HETATM   13  F4  UNL     1    -150.761   8.333 -14.101  1.00  0.00    -0.164 F
HETATM   14  F5  UNL     1    -152.537   7.705 -12.797  1.00  0.00    -0.164 F
ENDBRANCH   8  11
ENDBRANCH   7   8
ENDBRANCH   4   6
BRANCH   1  15
HETATM   15  C2  UNL     1    -152.991   4.826  -5.732  1.00  0.00    -0.022 C
HETATM   16  C1  UNL     1    -152.241   5.004  -4.444  1.00  0.00     0.019 C
HETATM   17  C3  UNL     1    -153.643   3.462  -5.772  1.00  0.00     0.019 C
HETATM   18  C4  UNL     1    -154.113   5.848  -5.892  1.00  0.00     0.019 C
ENDBRANCH   1  15
TORSDOF 4
ENDMDL