MODEL 3
REMARK VINA RESULT: -5.269435751      1.807      2.335
REMARK  2 active torsions:
REMARK  status: ('A' for Active; 'I' for Inactive)
REMARK    1  A    between atoms: C4_5  and  C5_6
REMARK    2  A    between atoms: C8_10  and  C9_12
ROOT
HETATM    1  C1  UNL     1    -154.991   4.832  -8.033  1.00  0.00     0.030 C
HETATM    2  C2  UNL     1    -154.148   5.833  -7.311  1.00  0.00     0.046 C
HETATM    3  C3  UNL     1    -153.877   5.335  -5.896  1.00  0.00     0.030 C
HETATM    4  S1  UNL     1    -152.476   5.714  -8.079  1.00  0.00    -0.150 SA
HETATM    5  C4  UNL     1    -152.677   6.583  -9.620  1.00  0.00     0.062 C
HETATM    6  C6  UNL     1    -153.447   7.854  -9.543  1.00  0.00     0.020 C
HETATM    7  C7  UNL     1    -154.495   8.025  -8.565  1.00  0.00     0.056 C
HETATM    8  C8  UNL     1    -154.631   7.235  -7.343  1.00  0.00     0.216 C
HETATM    9  F1  UNL     1    -153.898   7.860  -6.309  1.00  0.00    -0.232 F
ENDROOT
BRANCH   8  10
HETATM   10  C9  UNL     1    -156.063   7.327  -6.848  1.00  0.00     0.424 C
HETATM   11  F2  UNL     1    -156.926   7.509  -7.885  1.00  0.00    -0.167 F
HETATM   12  F3  UNL     1    -156.106   8.517  -6.101  1.00  0.00    -0.167 F
HETATM   13  F4  UNL     1    -156.418   6.336  -5.988  1.00  0.00    -0.167 F
ENDBRANCH   8  10
BRANCH   5  14
HETATM   14  C5  UNL     1    -151.263   6.826 -10.175  1.00  0.00     0.130 C
HETATM   15 CL1  UNL     1    -150.389   5.288 -10.331  1.00  0.00    -0.129 Cl
ENDBRANCH   5  14
TORSDOF 2
ENDMDL