MODEL 4
REMARK VINA RESULT: -4.664480661      2.797      3.749
REMARK  1 active torsions:
REMARK  status: ('A' for Active; 'I' for Inactive)
REMARK    1  A    between atoms: C4_5  and  C6_7
ROOT
HETATM    1  C1  UNL     1    -155.920   4.030  -8.179  1.00  0.00     0.049 C
HETATM    2  C2  UNL     1    -155.946   5.524  -7.822  1.00  0.00     0.090 C
HETATM    3  C3  UNL     1    -157.411   5.914  -8.113  1.00  0.00     0.049 C
HETATM    4  O1  UNL     1    -155.192   6.175  -8.695  1.00  0.00    -0.358 OA
HETATM    5  C4  UNL     1    -154.156   6.939  -8.355  1.00  0.00     0.155 C
HETATM    6  C5  UNL     1    -154.208   8.222  -9.205  1.00  0.00     0.056 C
HETATM    7  C7  UNL     1    -154.065   7.399  -6.942  1.00  0.00     0.050 C
HETATM    8  C8  UNL     1    -154.471   6.345  -5.954  1.00  0.00     0.048 C
HETATM    9  C9  UNL     1    -155.750   5.709  -6.370  1.00  0.00     0.143 C
HETATM   10 CL1  UNL     1    -157.084   6.660  -5.615  1.00  0.00    -0.098 Cl
HETATM   11 CL2  UNL     1    -155.790   4.111  -5.535  1.00  0.00    -0.098 Cl
ENDROOT
BRANCH   5  12
HETATM   12  C6  UNL     1    -152.793   6.327  -8.715  1.00  0.00     0.418 C
HETATM   13  F1  UNL     1    -152.547   6.392 -10.057  1.00  0.00    -0.168 F
HETATM   14  F2  UNL     1    -152.624   5.093  -8.165  1.00  0.00    -0.168 F
HETATM   15  F3  UNL     1    -151.856   7.171  -8.101  1.00  0.00    -0.168 F
ENDBRANCH   5  12
TORSDOF 1
ENDMDL