MODEL 1
REMARK VINA RESULT: -6.445772829      0.000      0.000
REMARK  2 active torsions:
REMARK  status: ('A' for Active; 'I' for Inactive)
REMARK    1  A    between atoms: O1_1  and  C1_3
REMARK    2  A    between atoms: C1_3  and  C2_4
ROOT
HETATM    1  C1  UNL     1    -154.687   5.760  -7.698  1.00  0.00     0.186 C
HETATM    2  C3  UNL     1    -153.215   5.600  -7.899  1.00  0.00     0.050 C
HETATM    3  C4  UNL     1    -152.283   5.951  -6.826  1.00  0.00     0.003 C
HETATM    4  C5  UNL     1    -151.235   4.864  -6.467  1.00  0.00     0.000 C
HETATM    5  C6  UNL     1    -152.076   3.746  -6.004  1.00  0.00     0.000 C
HETATM    6  C7  UNL     1    -151.586   2.506  -5.409  1.00  0.00     0.000 C
HETATM    7  C8  UNL     1    -152.866   1.820  -4.876  1.00  0.00     0.000 C
HETATM    8  C9  UNL     1    -154.029   1.855  -5.802  1.00  0.00     0.000 C
HETATM    9  C10 UNL     1    -155.133   2.812  -5.494  1.00  0.00     0.003 C
HETATM   10  C11 UNL     1    -155.630   3.622  -6.701  1.00  0.00     0.041 C
HETATM   11  C12 UNL     1    -155.350   5.081  -6.583  1.00  0.00     0.213 C
HETATM   12  F4  UNL     1    -156.602   5.675  -6.383  1.00  0.00    -0.246 F
ENDROOT
BRANCH   1  13
HETATM   13  O1  UNL     1    -155.276   5.212  -8.875  1.00  0.00    -0.378 OA
ATOM     14  H1  UNL     1    -155.342   4.282  -8.693  1.00  0.00     0.211 HD
ENDBRANCH   1  13
BRANCH   1  15
HETATM   15  C2  UNL     1    -154.987   7.241  -7.784  1.00  0.00     0.421 C
HETATM   16  F1  UNL     1    -154.061   7.870  -8.632  1.00  0.00    -0.168 F
HETATM   17  F2  UNL     1    -156.208   7.561  -8.269  1.00  0.00    -0.168 F
HETATM   18  F3  UNL     1    -154.854   7.881  -6.566  1.00  0.00    -0.168 F
ENDBRANCH   1  15
TORSDOF 2
ENDMDL