MODEL 1
REMARK VINA RESULT: -6.144545457      0.000      0.000
REMARK  2 active torsions:
REMARK  status: ('A' for Active; 'I' for Inactive)
REMARK    1  A    between atoms: C2_2  and  C3_3
REMARK    2  A    between atoms: C10_13  and  C11_14
ROOT
HETATM    1  C1  UNL     1    -153.816   7.645  -6.656  1.00  0.00     0.028 C
HETATM    2  C2  UNL     1    -154.185   6.389  -7.488  1.00  0.00     0.065 C
HETATM    3  C4  UNL     1    -153.013   6.136  -8.319  1.00  0.00    -0.026 A
HETATM    4  C5  UNL     1    -152.711   6.634  -9.579  1.00  0.00     0.009 A
HETATM    5  C6  UNL     1    -151.540   6.294 -10.238  1.00  0.00     0.001 A
HETATM    6  C7  UNL     1    -150.633   5.442  -9.648  1.00  0.00     0.001 A
HETATM    7  C8  UNL     1    -150.905   4.944  -8.416  1.00  0.00     0.019 A
HETATM    8  C9  UNL     1    -152.071   5.300  -7.797  1.00  0.00     0.008 A
HETATM    9  S1  UNL     1    -152.609   4.734  -6.164  1.00  0.00    -0.114 SA
HETATM   10  C10 UNL     1    -154.344   5.298  -6.494  1.00  0.00     0.178 C
ENDROOT
BRANCH   2  11
HETATM   11  C3  UNL     1    -155.447   6.735  -8.179  1.00  0.00     0.367 C
HETATM   12  F1  UNL     1    -156.442   6.866  -7.191  1.00  0.00    -0.213 F
HETATM   13  F2  UNL     1    -155.461   7.973  -8.785  1.00  0.00    -0.213 F
ENDBRANCH   2  11
BRANCH  10  14
HETATM   14  C11 UNL     1    -155.054   4.066  -6.875  1.00  0.00     0.401 C
HETATM   15  F3  UNL     1    -154.410   2.900  -6.426  1.00  0.00    -0.170 F
HETATM   16  F4  UNL     1    -155.491   3.950  -8.154  1.00  0.00    -0.170 F
HETATM   17  F5  UNL     1    -156.241   4.063  -6.104  1.00  0.00    -0.170 F
ENDBRANCH  10  14
TORSDOF 2
ENDMDL