MODEL 1
REMARK VINA RESULT: -6.007623407      0.000      0.000
REMARK  1 active torsions:
REMARK  status: ('A' for Active; 'I' for Inactive)
REMARK    1  A    between atoms: C8_9  and  C9_10
ROOT
HETATM    1  C1  UNL     1    -153.809   7.862  -8.402  1.00  0.00     0.015 C
HETATM    2  C2  UNL     1    -154.651   7.016  -7.873  1.00  0.00    -0.079 C
HETATM    3  C3  UNL     1    -155.796   7.509  -7.091  1.00  0.00     0.037 C
HETATM    4  C4  UNL     1    -156.467   6.455  -6.277  1.00  0.00     0.050 C
HETATM    5  C5  UNL     1    -156.542   5.099  -6.870  1.00  0.00     0.129 C
HETATM    6  F1  UNL     1    -157.865   4.665  -7.042  1.00  0.00    -0.240 F
HETATM    7  C6  UNL     1    -155.910   5.027  -8.242  1.00  0.00     0.061 C
HETATM    8  C7  UNL     1    -154.480   5.558  -8.054  1.00  0.00     0.071 C
HETATM    9  C8  UNL     1    -153.828   4.856  -6.949  1.00  0.00     0.098 C
HETATM   10  N1  UNL     1    -154.458   4.200  -6.085  1.00  0.00    -0.377 N
ATOM     11  H1  UNL     1    -153.913   3.745  -5.353  1.00  0.00     0.160 HD
HETATM   12  C10 UNL     1    -155.855   4.038  -6.044  1.00  0.00     0.059 C
HETATM   13  C11 UNL     1    -156.222   2.686  -6.632  1.00  0.00     0.041 C
HETATM   14  C12 UNL     1    -156.320   4.029  -4.609  1.00  0.00     0.041 C
ENDROOT
BRANCH   9  15
HETATM   15  C9  UNL     1    -152.337   4.913  -6.835  1.00  0.00     0.429 C
HETATM   16  F2  UNL     1    -151.934   5.828  -5.904  1.00  0.00    -0.165 F
HETATM   17  F3  UNL     1    -151.810   3.682  -6.460  1.00  0.00    -0.165 F
HETATM   18  F4  UNL     1    -151.812   5.197  -8.077  1.00  0.00    -0.165 F
ENDBRANCH   9  15
TORSDOF 1
ENDMDL