MODEL 2
REMARK VINA RESULT: -7.798795224      1.348      1.608
REMARK  6 active torsions:
REMARK  status: ('A' for Active; 'I' for Inactive)
REMARK    1  A    between atoms: C4_6  and  C5_7
REMARK    2  A    between atoms: C5_7  and  O1_8
REMARK    3  A    between atoms: C5_7  and  C6_10
REMARK    4  A    between atoms: C6_10  and  N2_11
REMARK    5  A    between atoms: C10_15  and  C11_16
REMARK    6  A    between atoms: C11_16  and  N3_17
ROOT
HETATM    1  N3  UNL     1      64.412   3.029  29.220  1.00  0.00    -0.296 NA
HETATM    2  O2  UNL     1      64.960   1.893  29.258  1.00  0.00    -0.219 OA
ATOM      3  H2  UNL     1      65.374   1.039  29.287  1.00  0.00     0.261 HD
ENDROOT
BRANCH   1   4
HETATM    4  C11 UNL     1      63.902   4.083  29.183  1.00  0.00     0.230 C
BRANCH   4   5
HETATM    5  C10 UNL     1      62.499   4.397  29.587  1.00  0.00     0.011 A
HETATM    6  C9  UNL     1      62.121   5.678  29.923  1.00  0.00     0.017 A
HETATM    7  C8  UNL     1      60.830   5.989  30.284  1.00  0.00     0.018 A
HETATM    8  C7  UNL     1      59.894   4.986  30.310  1.00  0.00     0.090 A
HETATM    9  N2  UNL     1      60.251   3.709  29.981  1.00  0.00    -0.363 N
HETATM   10  C12 UNL     1      61.519   3.417  29.627  1.00  0.00     0.104 A
BRANCH   9  11
HETATM   11  C6  UNL     1      59.203   2.710  30.028  1.00  0.00     0.165 C
BRANCH  11  12
HETATM   12  C5  UNL     1      58.252   3.077  31.138  1.00  0.00     0.186 C
BRANCH  12  13
HETATM   13  C4  UNL     1      56.824   2.789  30.769  1.00  0.00     0.040 A
HETATM   14  N1  UNL     1      56.267   2.897  29.562  1.00  0.00    -0.366 N
HETATM   15  C3  UNL     1      54.948   2.563  29.633  1.00  0.00     0.095 A
ATOM     16  H1  UNL     1      56.755   3.186  28.715  1.00  0.00     0.165 HD
HETATM   17  C2  UNL     1      54.700   2.244  30.932  1.00  0.00    -0.045 A
HETATM   18  C1  UNL     1      53.362   1.821  31.467  1.00  0.00     0.049 C
HETATM   19  C13 UNL     1      55.858   2.378  31.652  1.00  0.00     0.035 A
ENDBRANCH  12  13
BRANCH  12  20
HETATM   20  O1  UNL     1      58.519   2.426  32.326  1.00  0.00    -0.388 OA
ATOM     21  H1  UNL     1      58.815   3.076  32.952  1.00  0.00     0.210 HD
ENDBRANCH  12  20
ENDBRANCH  11  12
ENDBRANCH   9  11
ENDBRANCH   4   5
ENDBRANCH   1   4
TORSDOF 6
ENDMDL