MODEL 4
REMARK VINA RESULT: -6.979316955      0.784      1.231
REMARK  6 active torsions:
REMARK  status: ('A' for Active; 'I' for Inactive)
REMARK    1  A    between atoms: N1_1  and  C1_5
REMARK    2  A    between atoms: C1_5  and  N2_6
REMARK    3  A    between atoms: C1_5  and  C9_16
REMARK    4  A    between atoms: N2_6  and  C2_8
REMARK    5  A    between atoms: C2_8  and  C3_9
REMARK    6  A    between atoms: C3_9  and  N3_10
ROOT
HETATM    1  C1  UNL     1      58.127   3.303  32.763  1.00  0.00     0.306 C
ENDROOT
BRANCH   1   2
HETATM    2  N1  UNL     1      57.153   2.983  33.778  1.00  0.00    -0.056 N
ATOM      3  H13 UNL     1      57.226   2.012  34.080  1.00  0.00     0.276 HD
ATOM      4  H12 UNL     1      57.369   3.435  34.666  1.00  0.00     0.276 HD
ATOM      5  H11 UNL     1      56.212   3.209  33.455  1.00  0.00     0.276 HD
ENDBRANCH   1   2
BRANCH   1   6
HETATM    6  N2  UNL     1      59.136   2.301  32.704  1.00  0.00    -0.392 N
ATOM      7  H2  UNL     1      58.963   1.398  32.262  1.00  0.00     0.155 HD
BRANCH   6   8
HETATM    8  C2  UNL     1      60.394   2.613  33.289  1.00  0.00     0.136 C
BRANCH   8   9
HETATM    9  C3  UNL     1      60.675   4.085  33.325  1.00  0.00     0.147 C
BRANCH   9  10
HETATM   10  N3  UNL     1      61.408   4.474  32.118  1.00  0.00    -0.365 N
HETATM   11  C4  UNL     1      60.915   5.352  31.237  1.00  0.00     0.090 A
HETATM   12  C5  UNL     1      61.612   5.708  30.094  1.00  0.00     0.017 A
HETATM   13  C6  UNL     1      62.846   5.139  29.864  1.00  0.00     0.003 A
HETATM   14  C7  UNL     1      63.323   4.237  30.794  1.00  0.00     0.017 A
HETATM   15  C8  UNL     1      62.593   3.915  31.913  1.00  0.00     0.090 A
ENDBRANCH   9  10
ENDBRANCH   8   9
ENDBRANCH   6   8
ENDBRANCH   1   6
BRANCH   1  16
HETATM   16  C9  UNL     1      57.350   3.362  31.436  1.00  0.00     0.170 C
HETATM   17  C10 UNL     1      58.000   2.428  30.497  1.00  0.00     0.036 C
HETATM   18  C11 UNL     1      57.159   2.028  29.311  1.00  0.00     0.005 C
HETATM   19  C12 UNL     1      55.700   2.338  29.482  1.00  0.00     0.026 C
HETATM   20  C13 UNL     1      55.368   2.267  30.940  1.00  0.00     0.168 C
HETATM   21  O1  UNL     1      56.039   3.178  31.719  1.00  0.00    -0.382 OA
ENDBRANCH   1  16
TORSDOF 6
ENDMDL