MODEL 1
REMARK VINA RESULT: -7.883395680      0.000      0.000
REMARK  5 active torsions:
REMARK  status: ('A' for Active; 'I' for Inactive)
REMARK    1  A    between atoms: C2_2  and  C4_4
REMARK    2  A    between atoms: C4_4  and  O1_5
REMARK    3  A    between atoms: O1_5  and  C5_6
REMARK    4  A    between atoms: C8_9  and  C9_10
REMARK    5  A    between atoms: C12_16  and  C13_17
ROOT
HETATM    1  C5  UNL     1      59.152   2.589  30.577  1.00  0.00     0.082 A
HETATM    2  C6  UNL     1      58.307   2.466  29.486  1.00  0.00     0.039 A
HETATM    3  C7  UNL     1      56.957   2.445  29.688  1.00  0.00     0.017 A
HETATM    4  C8  UNL     1      56.380   2.541  30.958  1.00  0.00     0.006 A
HETATM    5  C11 UNL     1      57.252   2.662  32.007  1.00  0.00     0.032 A
HETATM    6  C12 UNL     1      58.639   2.689  31.849  1.00  0.00     0.039 A
ENDROOT
BRANCH   1   7
HETATM    7  O1  UNL     1      60.522   2.614  30.405  1.00  0.00    -0.346 OA
BRANCH   7   8
HETATM    8  C4  UNL     1      61.158   3.388  29.403  1.00  0.00     0.208 C
BRANCH   8   9
HETATM    9  C2  UNL     1      61.760   4.579  30.059  1.00  0.00    -0.069 C
HETATM   10  C1  UNL     1      61.102   5.715  30.218  1.00  0.00     0.016 C
HETATM   11  C3  UNL     1      63.170   4.495  30.557  1.00  0.00     0.044 C
ENDBRANCH   8   9
ENDBRANCH   7   8
ENDBRANCH   1   7
BRANCH   6  12
HETATM   12  C13 UNL     1      59.497   2.821  33.022  1.00  0.00     0.123 C
HETATM   13  N3  UNL     1      60.230   3.876  33.192  1.00  0.00    -0.387 N
ATOM     14  H32 UNL     1      60.223   4.637  32.513  1.00  0.00     0.157 HD
ATOM     15  H31 UNL     1      60.830   3.968  34.011  1.00  0.00     0.157 HD
HETATM   16  N4  UNL     1      59.507   1.769  33.960  1.00  0.00    -0.082 NA
ENDBRANCH   6  12
BRANCH   4  17
HETATM   17  C9  UNL     1      54.941   2.512  31.099  1.00  0.00     0.122 C
HETATM   18  N1  UNL     1      54.180   3.683  30.916  1.00  0.00    -0.082 NA
HETATM   19  N2  UNL     1      54.349   1.417  31.390  1.00  0.00    -0.382 N
HETATM   20  C10 UNL     1      52.916   1.303  31.548  1.00  0.00     0.147 C
ATOM     21  H2  UNL     1      54.917   0.580  31.519  1.00  0.00     0.160 HD
ENDBRANCH   4  17
TORSDOF 5
ENDMDL