MODEL 2
REMARK VINA RESULT: -7.377665472      1.186      1.756
REMARK  6 active torsions:
REMARK  status: ('A' for Active; 'I' for Inactive)
REMARK    1  A    between atoms: C6_7  and  C7_8
REMARK    2  A    between atoms: C7_8  and  C8_9
REMARK    3  A    between atoms: C8_9  and  N2_10
REMARK    4  A    between atoms: N2_10  and  C9_12
REMARK    5  A    between atoms: C9_12  and  C10_13
REMARK    6  A    between atoms: C13_16  and  N3_17
ROOT
HETATM    1  N2  UNL     1      58.266   1.800  30.223  1.00  0.00    -0.398 N
ATOM      2  H2  UNL     1      58.580   0.840  30.369  1.00  0.00     0.158 HD
ENDROOT
BRANCH   1   3
HETATM    3  C8  UNL     1      58.790   2.856  31.016  1.00  0.00     0.125 C
BRANCH   3   4
HETATM    4  C7  UNL     1      59.410   3.980  30.256  1.00  0.00     0.076 C
BRANCH   4   5
HETATM    5  C6  UNL     1      60.867   3.800  30.214  1.00  0.00     0.012 A
HETATM    6  N1  UNL     1      61.630   4.079  31.254  1.00  0.00    -0.364 N
HETATM    7  C1  UNL     1      61.182   4.576  32.514  1.00  0.00     0.155 C
HETATM    8  C2  UNL     1      62.977   3.884  31.134  1.00  0.00     0.090 A
HETATM    9  C3  UNL     1      63.551   3.409  29.970  1.00  0.00     0.017 A
HETATM   10  C4  UNL     1      62.745   3.121  28.891  1.00  0.00     0.003 A
HETATM   11  C5  UNL     1      61.406   3.317  29.017  1.00  0.00     0.025 A
ENDBRANCH   4   5
ENDBRANCH   3   4
ENDBRANCH   1   3
BRANCH   1  12
HETATM   12  C9  UNL     1      57.309   2.094  29.232  1.00  0.00     0.096 C
BRANCH  12  13
HETATM   13  C10 UNL     1      56.019   2.400  29.953  1.00  0.00     0.001 A
HETATM   14  C11 UNL     1      55.328   1.466  30.679  1.00  0.00     0.019 A
HETATM   15  C12 UNL     1      54.142   1.788  31.347  1.00  0.00     0.057 A
HETATM   16  C13 UNL     1      53.716   3.094  31.228  1.00  0.00     0.140 A
HETATM   17  O1  UNL     1      54.377   3.995  30.531  1.00  0.00    -0.305 OA
HETATM   18  C14 UNL     1      55.488   3.689  29.908  1.00  0.00     0.157 A
BRANCH  16  19
HETATM   19  N3  UNL     1      52.623   3.444  31.827  1.00  0.00    -0.380 N
ATOM     20  H32 UNL     1      52.580   3.393  32.845  1.00  0.00     0.158 HD
ATOM     21  H31 UNL     1      51.837   3.759  31.259  1.00  0.00     0.158 HD
ENDBRANCH  16  19
ENDBRANCH  12  13
ENDBRANCH   1  12
TORSDOF 6
ENDMDL