MODEL 1
REMARK VINA RESULT: -7.285985199      0.000      0.000
REMARK  5 active torsions:
REMARK  status: ('A' for Active; 'I' for Inactive)
REMARK    1  A    between atoms: C1_2  and  C2_4
REMARK    2  A    between atoms: C2_4  and  C3_5
REMARK    3  A    between atoms: C2_4  and  C5_13
REMARK    4  A    between atoms: N2_6  and  N3_8
REMARK    5  A    between atoms: N3_8  and  C4_10
ROOT
HETATM    1  C2  UNL     1      58.860   2.278  31.291  1.00  0.00     0.147 C
ENDROOT
BRANCH   1   2
HETATM    2  C1  UNL     1      59.339   2.808  32.585  1.00  0.00     0.244 C
HETATM    3  N1  UNL     1      60.185   3.941  32.544  1.00  0.00    -0.061 NA
HETATM    4  O1  UNL     1      59.055   2.333  33.712  1.00  0.00    -0.276 OA
ENDBRANCH   1   2
BRANCH   1   5
HETATM    5  C3  UNL     1      59.824   2.754  30.258  1.00  0.00     0.098 C
HETATM    6  N2  UNL     1      60.975   2.234  30.062  1.00  0.00    -0.313 N
ATOM      7  H2  UNL     1      61.294   1.446  30.624  1.00  0.00     0.185 HD
BRANCH   6   8
HETATM    8  N3  UNL     1      61.786   2.770  29.064  1.00  0.00    -0.279 N
ATOM      9  H3  UNL     1      61.432   2.764  28.107  1.00  0.00     0.189 HD
BRANCH   8  10
HETATM   10  C4  UNL     1      63.061   3.319  29.293  1.00  0.00     0.199 C
HETATM   11  N4  UNL     1      64.214   2.615  28.886  1.00  0.00    -0.068 NA
HETATM   12  S1  UNL     1      63.174   4.761  30.027  1.00  0.00    -0.043 SA
ENDBRANCH   8  10
ENDBRANCH   6   8
ENDBRANCH   1   5
BRANCH   1  13
HETATM   13  C5  UNL     1      57.480   2.609  30.981  1.00  0.00    -0.041 A
HETATM   14  C6  UNL     1      56.987   2.311  29.732  1.00  0.00     0.008 A
HETATM   15  C7  UNL     1      55.683   2.594  29.356  1.00  0.00     0.001 A
HETATM   16  C8  UNL     1      54.848   3.199  30.273  1.00  0.00     0.000 A
HETATM   17  C9  UNL     1      55.348   3.498  31.531  1.00  0.00     0.001 A
HETATM   18  C10 UNL     1      56.645   3.217  31.907  1.00  0.00     0.008 A
ENDBRANCH   1  13
TORSDOF 5
ENDMDL