MODEL 3
REMARK VINA RESULT: -6.911965103      1.479      3.124
REMARK  6 active torsions:
REMARK  status: ('A' for Active; 'I' for Inactive)
REMARK    1  A    between atoms: C5_5  and  O1_6
REMARK    2  A    between atoms: O1_6  and  C6_7
REMARK    3  A    between atoms: C6_7  and  C7_8
REMARK    4  A    between atoms: C7_8  and  N1_9
REMARK       I    between atoms: N1_9  and  C8_11
REMARK    5  A    between atoms: N3_13  and  C9_15
REMARK    6  A    between atoms: C9_15  and  N4_18
ROOT
HETATM    1  N1  UNL     1      62.109   4.561  32.377  1.00  0.00    -0.363 N
ATOM      2  H1  UNL     1      63.011   4.994  32.572  1.00  0.00     0.162 HD
HETATM    3  C8  UNL     1      61.541   4.905  31.143  1.00  0.00     0.186 C
HETATM    4  N2  UNL     1      60.667   6.041  31.127  1.00  0.00    -0.064 NA
HETATM    5  N3  UNL     1      61.753   4.330  30.070  1.00  0.00    -0.333 N
ATOM      6  H3  UNL     1      61.225   4.763  29.313  1.00  0.00     0.164 HD
ENDROOT
BRANCH   1   7
HETATM    7  C7  UNL     1      61.618   3.700  33.398  1.00  0.00     0.149 C
BRANCH   7   8
HETATM    8  C6  UNL     1      60.219   3.202  33.207  1.00  0.00     0.195 C
BRANCH   8   9
HETATM    9  O1  UNL     1      59.877   2.642  32.013  1.00  0.00    -0.350 OA
BRANCH   9  10
HETATM   10  C5  UNL     1      58.728   2.583  31.291  1.00  0.00     0.068 A
HETATM   11  C4  UNL     1      57.558   2.886  32.006  1.00  0.00     0.037 A
HETATM   12  C3  UNL     1      56.329   2.862  31.396  1.00  0.00     0.009 A
HETATM   13  C2  UNL     1      56.178   2.546  30.064  1.00  0.00    -0.062 A
HETATM   14  C1  UNL     1      54.846   2.518  29.397  1.00  0.00     0.048 C
HETATM   15  C13 UNL     1      57.309   2.247  29.347  1.00  0.00     0.009 A
HETATM   16  C12 UNL     1      58.562   2.272  29.978  1.00  0.00     0.037 A
ENDBRANCH   9  10
ENDBRANCH   8   9
ENDBRANCH   7   8
ENDBRANCH   1   7
BRANCH   5  17
HETATM   17  C9  UNL     1      62.510   3.257  29.598  1.00  0.00     0.190 C
HETATM   18  C10 UNL     1      62.121   3.044  28.118  1.00  0.00     0.070 C
HETATM   19  C11 UNL     1      63.977   3.710  29.538  1.00  0.00     0.070 C
BRANCH  17  20
HETATM   20  N4  UNL     1      62.408   2.001  30.277  1.00  0.00    -0.053 N
ATOM     21  H43 UNL     1      62.456   2.163  31.283  1.00  0.00     0.277 HD
ATOM     22  H42 UNL     1      61.456   1.649  30.180  1.00  0.00     0.277 HD
ATOM     23  H41 UNL     1      63.063   1.261  30.028  1.00  0.00     0.277 HD
ENDBRANCH  17  20
ENDBRANCH   5  17
TORSDOF 6
ENDMDL