MODEL 1
REMARK VINA RESULT: -6.742711110      0.000      0.000
REMARK  7 active torsions:
REMARK  status: ('A' for Active; 'I' for Inactive)
REMARK    1  A    between atoms: N1_2  and  C2_5
REMARK    2  A    between atoms: C2_5  and  C3_6
REMARK    3  A    between atoms: C3_6  and  N2_7
REMARK    4  A    between atoms: N2_7  and  C4_9
REMARK    5  A    between atoms: C4_9  and  N3_11
REMARK    6  A    between atoms: N3_11  and  N4_13
REMARK    7  A    between atoms: C5_15  and  C7_17
ROOT
HETATM    1  N3  UNL     1      51.704   3.356  31.693  1.00  0.00    -0.276 N
ATOM      2  H3  UNL     1      51.056   3.111  30.945  1.00  0.00     0.189 HD
ENDROOT
BRANCH   1   3
HETATM    3  C4  UNL     1      51.202   3.679  32.975  1.00  0.00     0.186 C
HETATM    4  S1  UNL     1      50.452   2.525  33.846  1.00  0.00    -0.040 SA
BRANCH   3   5
HETATM    5  N2  UNL     1      51.334   4.979  33.527  1.00  0.00    -0.364 N
ATOM      6  H2  UNL     1      52.249   5.428  33.504  1.00  0.00     0.162 HD
BRANCH   5   7
HETATM    7  C3  UNL     1      50.228   5.698  34.121  1.00  0.00     0.149 C
BRANCH   7   8
HETATM    8  C2  UNL     1      50.464   5.901  35.613  1.00  0.00     0.251 C
BRANCH   8   9
HETATM    9  N1  UNL     1      51.878   5.679  35.865  1.00  0.00    -0.077 N
HETATM   10  C1  UNL     1      52.202   6.362  37.094  1.00  0.00     0.267 C
ATOM     11  H12 UNL     1      52.473   5.957  35.085  1.00  0.00     0.276 HD
ATOM     12  H11 UNL     1      52.132   4.691  35.877  1.00  0.00     0.276 HD
ENDBRANCH   8   9
ENDBRANCH   7   8
ENDBRANCH   5   7
ENDBRANCH   3   5
ENDBRANCH   1   3
BRANCH   1  13
HETATM   13  N4  UNL     1      53.076   3.370  31.441  1.00  0.00    -0.302 N
HETATM   14  C5  UNL     1      53.788   2.316  31.322  1.00  0.00     0.032 C
HETATM   15  C6  UNL     1      53.262   0.933  31.435  1.00  0.00     0.070 C
ATOM     16  H4  UNL     1      53.538   4.274  31.346  1.00  0.00     0.186 HD
BRANCH  14  17
HETATM   17  C7  UNL     1      55.223   2.477  31.051  1.00  0.00    -0.013 A
HETATM   18  C8  UNL     1      55.757   2.278  29.794  1.00  0.00     0.013 A
HETATM   19  C9  UNL     1      57.099   2.422  29.527  1.00  0.00     0.001 A
HETATM   20  C10 UNL     1      57.935   2.776  30.539  1.00  0.00     0.000 A
HETATM   21  C11 UNL     1      57.458   2.986  31.804  1.00  0.00     0.001 A
HETATM   22  C12 UNL     1      56.111   2.835  32.050  1.00  0.00     0.013 A
ENDBRANCH  14  17
ENDBRANCH   1  13
TORSDOF 7
ENDMDL