MODEL 1
REMARK VINA RESULT: -7.243791163      0.000      0.000
REMARK  9 active torsions:
REMARK  status: ('A' for Active; 'I' for Inactive)
REMARK    1  A    between atoms: C2_2  and  C4_4
REMARK    2  A    between atoms: C4_4  and  C5_5
REMARK    3  A    between atoms: C4_4  and  N1_13
REMARK    4  A    between atoms: C6_6  and  C7_7
REMARK    5  A    between atoms: N1_13  and  C13_15
REMARK    6  A    between atoms: C13_15  and  C14_16
REMARK    7  A    between atoms: C14_16  and  O1_17
REMARK    8  A    between atoms: C14_16  and  C15_19
REMARK    9  A    between atoms: C15_19  and  O2_20
ROOT
HETATM    1  C4  UNL     1      61.712   3.882  32.361  1.00  0.00     0.164 C
ENDROOT
BRANCH   1   2
HETATM    2  C2  UNL     1      61.764   3.435  33.778  1.00  0.00     0.012 C
HETATM    3  C1  UNL     1      60.836   4.401  34.549  1.00  0.00     0.012 C
HETATM    4  C3  UNL     1      63.052   3.463  34.493  1.00  0.00     0.012 C
ENDBRANCH   1   2
BRANCH   1   5
HETATM    5  C5  UNL     1      60.340   3.503  31.892  1.00  0.00    -0.075 C
HETATM    6  C6  UNL     1      59.230   3.218  31.515  1.00  0.00    -0.065 C
BRANCH   6   7
HETATM    7  C7  UNL     1      57.906   2.905  31.056  1.00  0.00     0.017 A
HETATM    8  C8  UNL     1      56.812   2.975  31.921  1.00  0.00     0.020 A
HETATM    9  C9  UNL     1      55.531   2.678  31.495  1.00  0.00     0.001 A
HETATM   10  C10 UNL     1      55.298   2.301  30.185  1.00  0.00     0.000 A
HETATM   11  C11 UNL     1      56.372   2.228  29.315  1.00  0.00     0.001 A
HETATM   12  C12 UNL     1      57.645   2.526  29.754  1.00  0.00     0.020 A
ENDBRANCH   6   7
ENDBRANCH   1   5
BRANCH   1  13
HETATM   13  N1  UNL     1      62.611   3.327  31.441  1.00  0.00    -0.385 N
ATOM     14  H1  UNL     1      62.658   2.311  31.357  1.00  0.00     0.160 HD
BRANCH  13  15
HETATM   15  C13 UNL     1      63.445   4.100  30.637  1.00  0.00     0.090 C
BRANCH  15  16
HETATM   16  C14 UNL     1      63.672   3.640  29.226  1.00  0.00     0.179 C
BRANCH  16  17
HETATM   17  O1  UNL     1      64.204   2.408  29.047  1.00  0.00    -0.388 OA
ATOM     18  H1  UNL     1      63.650   1.659  29.233  1.00  0.00     0.210 HD
ENDBRANCH  16  17
BRANCH  16  19
HETATM   19  C15 UNL     1      62.291   3.653  28.557  1.00  0.00     0.201 C
BRANCH  19  20
HETATM   20  O2  UNL     1      61.553   2.534  28.863  1.00  0.00    -0.398 OA
ATOM     21  H2  UNL     1      60.671   2.749  29.144  1.00  0.00     0.209 HD
ENDBRANCH  19  20
ENDBRANCH  16  19
ENDBRANCH  15  16
ENDBRANCH  13  15
ENDBRANCH   1  13
TORSDOF 9
ENDMDL