MODEL 2
REMARK VINA RESULT: -6.568874360      1.491      1.856
REMARK  8 active torsions:
REMARK  status: ('A' for Active; 'I' for Inactive)
REMARK    1  A    between atoms: C2_2  and  C3_3
REMARK    2  A    between atoms: C3_3  and  N1_6
REMARK    3  A    between atoms: N1_6  and  C6_8
REMARK    4  A    between atoms: C6_8  and  N2_9
REMARK    5  A    between atoms: C6_8  and  C7_13
REMARK    6  A    between atoms: N3_14  and  C8_15
REMARK    7  A    between atoms: C8_15  and  C9_16
REMARK    8  A    between atoms: N6_25  and  O1_26
ROOT
HETATM    1  C7  UNL     1      59.413   2.557  31.977  1.00  0.00     0.305 A
HETATM    2  N3  UNL     1      58.417   2.860  32.936  1.00  0.00    -0.166 N
HETATM    3  C12 UNL     1      57.172   3.015  32.190  1.00  0.00     0.696 A
HETATM    4  N4  UNL     1      56.071   3.401  32.729  1.00  0.00    -0.233 N
ATOM      5  H41 UNL     1      55.200   3.510  32.208  1.00  0.00     0.174 HD
ATOM      6  H42 UNL     1      55.875   3.643  33.701  1.00  0.00     0.174 HD
HETATM    7  N5  UNL     1      57.441   2.683  30.849  1.00  0.00    -0.108 N
ATOM      8  H5  UNL     1      56.750   2.671  30.099  1.00  0.00     0.208 HD
HETATM    9  N6  UNL     1      58.631   2.409  30.716  1.00  0.00    -0.158 N
ENDROOT
BRANCH   1  10
HETATM   10  C6  UNL     1      60.323   3.787  31.602  1.00  0.00     0.326 C
BRANCH  10  11
HETATM   11  N1  UNL     1      61.372   3.313  30.842  1.00  0.00    -0.385 N
ATOM     12  H1  UNL     1      61.622   2.331  30.956  1.00  0.00     0.156 HD
BRANCH  11  13
HETATM   13  C3  UNL     1      62.123   4.061  29.926  1.00  0.00     0.020 C
HETATM   14  C4  UNL     1      61.162   5.027  29.223  1.00  0.00     0.037 C
HETATM   15  C5  UNL     1      63.284   4.852  30.417  1.00  0.00     0.037 C
BRANCH  13  16
HETATM   16  C2  UNL     1      62.685   3.076  28.912  1.00  0.00     0.025 C
HETATM   17  C1  UNL     1      63.958   2.420  29.287  1.00  0.00     0.007 C
ENDBRANCH  13  16
ENDBRANCH  11  13
ENDBRANCH  10  11
BRANCH  10  18
HETATM   18  N2  UNL     1      60.559   4.455  32.853  1.00  0.00    -0.055 N
ATOM     19  H23 UNL     1      61.566   4.481  33.013  1.00  0.00     0.276 HD
ATOM     20  H22 UNL     1      60.343   5.444  32.730  1.00  0.00     0.276 HD
ATOM     21  H21 UNL     1      60.110   4.136  33.712  1.00  0.00     0.276 HD
ENDBRANCH  10  18
ENDBRANCH   1  10
BRANCH   2  22
HETATM   22  C8  UNL     1      58.361   2.826  34.370  1.00  0.00     0.088 C
BRANCH  22  23
HETATM   23  C9  UNL     1      58.960   1.786  35.184  1.00  0.00     0.017 C
HETATM   24  C10 UNL     1      58.330   1.565  36.536  1.00  0.00     0.015 C
HETATM   25  C11 UNL     1      60.440   2.122  35.497  1.00  0.00     0.015 C
ENDBRANCH  22  23
ENDBRANCH   2  22
BRANCH   9  26
HETATM   26  O1  UNL     1      59.279   1.998  29.568  1.00  0.00    -0.270 OA
ATOM     27  H1  UNL     1      58.764   1.778  28.800  1.00  0.00     0.246 HD
ENDBRANCH   9  26
TORSDOF 8
ENDMDL