MODEL 5
REMARK VINA RESULT: -7.130200665      2.192      5.798
REMARK  5 active torsions:
REMARK  status: ('A' for Active; 'I' for Inactive)
REMARK    1  A    between atoms: C2_2  and  C3_3
REMARK    2  A    between atoms: C3_3  and  O1_4
REMARK    3  A    between atoms: O1_4  and  C4_5
REMARK    4  A    between atoms: C9_10  and  N1_11
REMARK       I    between atoms: C10_13  and  N3_15
REMARK    5  A    between atoms: N3_15  and  C11_17
ROOT
HETATM    1  C11 UNL     1      59.918   3.717  35.603  1.00  0.00     0.187 C
HETATM    2  C12 UNL     1      59.621   4.366  36.957  1.00  0.00     0.048 C
HETATM    3  C13 UNL     1      58.732   3.202  34.964  1.00  0.00     0.084 C
HETATM    4  N4  UNL     1      57.780   2.781  34.458  1.00  0.00    -0.195 NA
ENDROOT
BRANCH   1   5
HETATM    5  N3  UNL     1      60.595   4.671  34.725  1.00  0.00    -0.348 N
HETATM    6  C10 UNL     1      61.255   4.211  33.560  1.00  0.00     0.189 C
HETATM    7  N1  UNL     1      60.871   4.650  32.417  1.00  0.00    -0.328 N
HETATM    8  N2  UNL     1      62.328   3.283  33.589  1.00  0.00    -0.063 NA
ATOM      9  H1  UNL     1      60.100   5.318  32.407  1.00  0.00     0.168 HD
ATOM     10  H3  UNL     1      60.592   5.666  34.952  1.00  0.00     0.163 HD
BRANCH   7  11
HETATM   11  C9  UNL     1      61.426   4.288  31.176  1.00  0.00     0.068 A
HETATM   12  C4  UNL     1      60.766   3.339  30.406  1.00  0.00     0.095 A
HETATM   13  C5  UNL     1      61.349   3.014  29.194  1.00  0.00     0.039 A
HETATM   14  C6  UNL     1      62.522   3.577  28.736  1.00  0.00     0.003 A
HETATM   15  C7  UNL     1      63.154   4.517  29.523  1.00  0.00     0.002 A
HETATM   16  C8  UNL     1      62.601   4.871  30.749  1.00  0.00     0.032 A
BRANCH  12  17
HETATM   17  O1  UNL     1      59.578   2.753  30.844  1.00  0.00    -0.349 OA
BRANCH  17  18
HETATM   18  C3  UNL     1      58.377   3.201  30.249  1.00  0.00     0.175 C
BRANCH  18  19
HETATM   19  C2  UNL     1      57.661   2.102  29.508  1.00  0.00     0.022 C
HETATM   20  C1  UNL     1      56.179   2.355  29.416  1.00  0.00     0.007 C
ENDBRANCH  18  19
ENDBRANCH  17  18
ENDBRANCH  12  17
ENDBRANCH   7  11
ENDBRANCH   1   5
TORSDOF 5
ENDMDL