MODEL 4
REMARK VINA RESULT: -5.529151684      2.796      5.737
REMARK  8 active torsions:
REMARK  status: ('A' for Active; 'I' for Inactive)
REMARK       I    between atoms: N1_8  and  C8_9
REMARK    1  A    between atoms: C8_9  and  C9_11
REMARK    2  A    between atoms: C9_11  and  O2_13
REMARK    3  A    between atoms: C9_11  and  C11_15
REMARK    4  A    between atoms: C11_15  and  O3_16
REMARK    5  A    between atoms: C11_15  and  C12_18
REMARK    6  A    between atoms: C12_18  and  O4_20
REMARK    7  A    between atoms: C12_18  and  C14_22
REMARK    8  A    between atoms: C14_22  and  O5_23
ROOT
HETATM    1  C1  UNL     1      53.116  75.767  20.701  1.00  0.00     0.017 C
HETATM    2  C2  UNL     1      54.195  75.230  20.668  1.00  0.00    -0.081 C
HETATM    3  C3  UNL     1      55.487  74.579  20.605  1.00  0.00     0.011 C
HETATM    4  C4  UNL     1      56.320  74.698  19.601  1.00  0.00     0.021 C
HETATM    5  C5  UNL     1      57.515  73.908  19.883  1.00  0.00     0.047 C
HETATM    6  C6  UNL     1      58.724  74.794  20.069  1.00  0.00     0.043 C
HETATM    7  C7  UNL     1      57.769  73.007  18.682  1.00  0.00     0.043 C
HETATM    8  N1  UNL     1      57.225  73.134  21.072  1.00  0.00    -0.333 N
HETATM    9  C8  UNL     1      58.002  72.025  21.529  1.00  0.00     0.258 C
HETATM   10  O1  UNL     1      59.012  71.644  20.846  1.00  0.00    -0.270 OA
HETATM   11  C15 UNL     1      56.032  73.688  21.661  1.00  0.00     0.174 C
ENDROOT
BRANCH   9  12
HETATM   12  C9  UNL     1      57.704  71.273  22.769  1.00  0.00     0.163 C
HETATM   13  C10 UNL     1      57.680  72.329  23.864  1.00  0.00     0.059 C
BRANCH  12  14
HETATM   14  O2  UNL     1      58.742  70.379  22.953  1.00  0.00    -0.378 OA
ATOM     15  H2  UNL     1      58.406  69.519  22.733  1.00  0.00     0.211 HD
ENDBRANCH  12  14
BRANCH  12  16
HETATM   16  C11 UNL     1      56.375  70.658  22.585  1.00  0.00     0.197 C
BRANCH  16  17
HETATM   17  O3  UNL     1      56.393  70.134  21.253  1.00  0.00    -0.389 OA
ATOM     18  H3  UNL     1      56.242  70.885  20.691  1.00  0.00     0.210 HD
ENDBRANCH  16  17
BRANCH  16  19
HETATM   19  C12 UNL     1      55.805  69.689  23.497  1.00  0.00     0.104 C
HETATM   20  C13 UNL     1      55.939  70.055  24.974  1.00  0.00     0.051 C
BRANCH  19  21
HETATM   21  O4  UNL     1      54.378  69.790  23.306  1.00  0.00    -0.385 OA
ATOM     22  H4  UNL     1      54.143  70.641  23.658  1.00  0.00     0.210 HD
ENDBRANCH  19  21
BRANCH  19  23
HETATM   23  C14 UNL     1      56.078  68.246  23.381  1.00  0.00     0.204 C
BRANCH  23  24
HETATM   24  O5  UNL     1      57.235  67.880  22.721  1.00  0.00    -0.398 OA
ATOM     25  H5  UNL     1      57.651  68.542  22.182  1.00  0.00     0.209 HD
ENDBRANCH  23  24
ENDBRANCH  19  23
ENDBRANCH  16  19
ENDBRANCH  12  16
ENDBRANCH   9  12
TORSDOF 8
ENDMDL