MODEL 5
REMARK VINA RESULT: -6.998684675      2.808      5.861
REMARK  5 active torsions:
REMARK  status: ('A' for Active; 'I' for Inactive)
REMARK    1  A    between atoms: O1_2  and  C2_3
REMARK    2  A    between atoms: C5_6  and  C6_7
REMARK    3  A    between atoms: C6_7  and  N5_17
REMARK    4  A    between atoms: N1_8  and  N2_10
REMARK       I    between atoms: N2_10  and  C7_12
REMARK    5  A    between atoms: N5_17  and  S1_19
ROOT
HETATM    1  C6  UNL     1      57.343  72.030  21.006  1.00  0.00     0.139 C
HETATM    2  N1  UNL     1      56.872  71.017  21.643  1.00  0.00    -0.282 N
ATOM      3  H1  UNL     1      55.861  70.885  21.656  1.00  0.00     0.188 HD
ENDROOT
BRANCH   1   4
HETATM    4  C5  UNL     1      56.475  72.968  20.317  1.00  0.00     0.010 A
HETATM    5  C4  UNL     1      56.490  73.004  18.936  1.00  0.00     0.018 A
HETATM    6  C3  UNL     1      55.683  73.877  18.237  1.00  0.00     0.037 A
HETATM    7  C2  UNL     1      54.861  74.711  18.963  1.00  0.00     0.068 A
HETATM    8  C10 UNL     1      54.820  74.699  20.341  1.00  0.00     0.037 A
HETATM    9  C9  UNL     1      55.634  73.821  21.024  1.00  0.00     0.018 A
BRANCH   7  10
HETATM   10  O1  UNL     1      54.044  75.594  18.253  1.00  0.00    -0.356 OA
HETATM   11  C1  UNL     1      52.739  75.207  17.902  1.00  0.00     0.210 C
ENDBRANCH   7  10
ENDBRANCH   1   4
BRANCH   1  12
HETATM   12  N5  UNL     1      58.742  72.232  20.975  1.00  0.00    -0.268 N
ATOM     13  H5  UNL     1      59.310  71.767  20.266  1.00  0.00     0.180 HD
BRANCH  12  14
HETATM   14  S1  UNL     1      59.488  73.267  22.138  1.00  0.00     0.228 S
HETATM   15  C8  UNL     1      60.412  72.267  23.290  1.00  0.00     0.186 C
HETATM   16  O2  UNL     1      60.370  74.213  21.415  1.00  0.00    -0.206 OA
HETATM   17  O3  UNL     1      58.443  74.004  22.922  1.00  0.00    -0.206 OA
ENDBRANCH  12  14
ENDBRANCH   1  12
BRANCH   2  18
HETATM   18  N2  UNL     1      57.661  70.093  22.315  1.00  0.00    -0.272 N
HETATM   19  C7  UNL     1      57.139  68.813  22.621  1.00  0.00     0.200 C
HETATM   20  N3  UNL     1      56.203  68.343  21.879  1.00  0.00    -0.372 N
HETATM   21  N4  UNL     1      57.587  68.018  23.701  1.00  0.00    -0.062 NA
ATOM     22  H32 UNL     1      55.880  68.916  21.099  1.00  0.00     0.158 HD
ATOM     23  H31 UNL     1      55.826  67.421  22.099  1.00  0.00     0.158 HD
ATOM     24  H2  UNL     1      58.614  70.336  22.587  1.00  0.00     0.189 HD
ENDBRANCH   2  18
TORSDOF 5
ENDMDL