MODEL 3
REMARK VINA RESULT: -4.133339995      2.177      2.891
REMARK  4 active torsions:
REMARK  status: ('A' for Active; 'I' for Inactive)
REMARK    1  A    between atoms: N1_2  and  N2_4
REMARK    2  A    between atoms: C2_6  and  C3_7
REMARK    3  A    between atoms: C4_8  and  C5_9
REMARK    4  A    between atoms: C7_14  and  C9_16
REMARK       I    between atoms: N3_19  and  C10_20
ROOT
HETATM    1  C3  UNL     1      60.887  64.633  27.635  1.00  0.00     0.152 C
HETATM    2  C4  UNL     1      61.515  64.227  26.308  1.00  0.00     0.176 C
HETATM    3  S1  UNL     1      62.364  65.781  25.785  1.00  0.00    -0.148 SA
HETATM    4  C6  UNL     1      62.180  66.997  27.137  1.00  0.00     0.117 C
HETATM    5  C7  UNL     1      62.454  66.330  28.483  1.00  0.00     0.129 C
HETATM    6  C8  UNL     1      63.962  66.420  28.707  1.00  0.00     0.051 C
HETATM    7  N3  UNL     1      61.972  64.978  28.514  1.00  0.00    -0.321 N
HETATM    8  C10 UNL     1      62.584  64.055  29.396  1.00  0.00     0.217 C
HETATM    9  C11 UNL     1      62.235  62.630  29.507  1.00  0.00     0.117 C
HETATM   10  O5  UNL     1      63.518  64.395  30.191  1.00  0.00    -0.274 OA
ENDROOT
BRANCH   1  11
HETATM   11  C2  UNL     1      59.926  63.657  28.103  1.00  0.00     0.106 C
HETATM   12  N2  UNL     1      58.836  63.921  28.735  1.00  0.00    -0.318 N
ATOM     13  H2  UNL     1      58.621  64.900  28.927  1.00  0.00     0.185 HD
BRANCH  12  14
HETATM   14  N1  UNL     1      57.933  62.959  29.171  1.00  0.00    -0.341 N
HETATM   15  C1  UNL     1      58.131  62.380  30.505  1.00  0.00     0.167 C
ATOM     16  H1  UNL     1      57.156  62.664  28.581  1.00  0.00     0.179 HD
ENDBRANCH  12  14
ENDBRANCH   1  11
BRANCH   2  17
HETATM   17  C5  UNL     1      60.436  63.864  25.380  1.00  0.00     0.189 C
HETATM   18  O1  UNL     1      60.305  62.725  24.864  1.00  0.00    -0.647 OA
HETATM   19  O2  UNL     1      59.468  64.820  25.019  1.00  0.00    -0.647 OA
ENDBRANCH   2  17
BRANCH   5  20
HETATM   20  C9  UNL     1      61.831  67.191  29.505  1.00  0.00     0.203 C
HETATM   21  O3  UNL     1      62.374  67.230  30.635  1.00  0.00    -0.646 OA
HETATM   22  O4  UNL     1      60.697  67.961  29.314  1.00  0.00    -0.646 OA
ENDBRANCH   5  20
TORSDOF 4
ENDMDL