MODEL 3
REMARK VINA RESULT: -6.383920694      2.465      3.073
REMARK  6 active torsions:
REMARK  status: ('A' for Active; 'I' for Inactive)
REMARK       I    between atoms: N1_2  and  C2_4
REMARK    1  A    between atoms: C2_4  and  C3_6
REMARK    2  A    between atoms: C4_7  and  C5_8
REMARK    3  A    between atoms: C6_10  and  N2_11
REMARK    4  A    between atoms: N2_11  and  N3_13
REMARK    5  A    between atoms: N3_13  and  S2_15
REMARK    6  A    between atoms: S2_15  and  N4_17
ROOT
HETATM    1  C5  UNL     1      56.330  68.874  23.071  1.00  0.00     0.030 A
HETATM    2  S1  UNL     1      56.905  69.507  21.595  1.00  0.00    -0.051 SA
HETATM    3  C6  UNL     1      56.764  71.160  21.962  1.00  0.00     0.164 A
HETATM    4  N5  UNL     1      56.282  71.161  23.200  1.00  0.00    -0.338 N
ATOM      5  H5  UNL     1      56.094  72.039  23.685  1.00  0.00     0.168 HD
HETATM    6  C8  UNL     1      56.054  70.009  23.784  1.00  0.00     0.024 A
HETATM    7  C9  UNL     1      55.502  69.865  25.200  1.00  0.00     0.069 C
ENDROOT
BRANCH   3   8
HETATM    8  N2  UNL     1      57.069  72.159  21.182  1.00  0.00    -0.271 N
ATOM      9  H2  UNL     1      58.016  72.206  20.806  1.00  0.00     0.189 HD
BRANCH   8  10
HETATM   10  N3  UNL     1      56.183  73.151  20.841  1.00  0.00    -0.242 N
ATOM     11  H3  UNL     1      55.569  73.616  21.509  1.00  0.00     0.198 HD
BRANCH  10  12
HETATM   12  S2  UNL     1      56.228  73.583  18.888  1.00  0.00     0.114 S
HETATM   13  C7  UNL     1      54.550  74.138  18.227  1.00  0.00     0.161 C
HETATM   14  O2  UNL     1      57.605  73.199  17.929  1.00  0.00    -0.228 OA
BRANCH  12  15
HETATM   15  N4  UNL     1      56.897  75.128  19.318  1.00  0.00    -0.344 N
ATOM     16  H42 UNL     1      57.626  75.457  19.952  1.00  0.00     0.167 HD
ATOM     17  H41 UNL     1      56.240  75.549  18.661  1.00  0.00     0.167 HD
ENDBRANCH  12  15
ENDBRANCH  10  12
ENDBRANCH   8  10
ENDBRANCH   3   8
BRANCH   1  18
HETATM   18  C4  UNL     1      56.174  67.463  23.469  1.00  0.00     0.026 C
HETATM   19  C3  UNL     1      56.687  66.528  22.695  1.00  0.00     0.075 C
BRANCH  19  20
HETATM   20  C2  UNL     1      56.561  65.125  23.042  1.00  0.00     0.240 C
HETATM   21  N1  UNL     1      56.805  64.101  22.092  1.00  0.00    -0.362 N
HETATM   22  C1  UNL     1      56.679  62.704  22.438  1.00  0.00     0.149 C
ATOM     23  H1  UNL     1      57.076  64.357  21.142  1.00  0.00     0.162 HD
HETATM   24  O1  UNL     1      56.232  64.808  24.197  1.00  0.00    -0.269 OA
ENDBRANCH  19  20
ENDBRANCH   1  18
TORSDOF 6
ENDMDL