MODEL 1
REMARK VINA RESULT: -6.215210402      0.000      0.000
REMARK  5 active torsions:
REMARK  status: ('A' for Active; 'I' for Inactive)
REMARK    1  A    between atoms: C2_2  and  C5_5
REMARK    2  A    between atoms: C5_5  and  N2_9
REMARK    3  A    between atoms: N2_9  and  C6_11
REMARK    4  A    between atoms: C10_17  and  C11_18
REMARK    5  A    between atoms: C12_21  and  C13_22
ROOT
HETATM    1  C6  UNL     1      57.575  70.813  23.578  1.00  0.00     0.198 C
HETATM    2  C7  UNL     1      58.856  71.529  23.365  1.00  0.00     0.245 C
HETATM    3  O1  UNL     1      59.908  71.635  24.005  1.00  0.00    -0.271 OA
HETATM    4  N3  UNL     1      58.366  72.025  22.140  1.00  0.00    -0.327 N
HETATM    5  C8  UNL     1      57.026  71.875  22.710  1.00  0.00     0.121 C
HETATM    6  C9  UNL     1      56.201  71.563  21.522  1.00  0.00     0.046 C
HETATM    7  C10 UNL     1      56.808  72.532  20.493  1.00  0.00     0.122 C
HETATM    8  C12 UNL     1      58.266  72.546  20.785  1.00  0.00     0.203 C
ENDROOT
BRANCH   1   9
HETATM    9  N2  UNL     1      57.532  69.454  23.180  1.00  0.00    -0.364 N
ATOM     10  H2  UNL     1      58.298  69.111  22.600  1.00  0.00     0.161 HD
BRANCH   9  11
HETATM   11  C5  UNL     1      56.514  68.534  23.523  1.00  0.00     0.079 C
HETATM   12  N1  UNL     1      55.370  68.978  23.871  1.00  0.00    -0.389 N
ATOM     13  H12 UNL     1      54.636  68.315  24.117  1.00  0.00     0.157 HD
ATOM     14  H11 UNL     1      55.174  69.978  23.908  1.00  0.00     0.157 HD
BRANCH  11  15
HETATM   15  C2  UNL     1      56.797  67.089  23.468  1.00  0.00     0.007 C
HETATM   16  C1  UNL     1      58.130  66.728  24.060  1.00  0.00     0.022 C
HETATM   17  C3  UNL     1      56.803  66.577  22.027  1.00  0.00     0.022 C
HETATM   18  C4  UNL     1      55.742  66.309  24.258  1.00  0.00     0.022 C
ENDBRANCH  11  15
ENDBRANCH   9  11
ENDBRANCH   1   9
BRANCH   8  19
HETATM   19  C13 UNL     1      58.973  73.810  20.613  1.00  0.00     0.197 C
HETATM   20  O4  UNL     1      58.849  74.490  19.567  1.00  0.00    -0.646 OA
HETATM   21  O5  UNL     1      59.825  74.327  21.602  1.00  0.00    -0.646 OA
ENDBRANCH   8  19
BRANCH   7  22
HETATM   22  C11 UNL     1      56.220  73.874  20.668  1.00  0.00     0.179 C
HETATM   23  O2  UNL     1      55.493  74.336  19.736  1.00  0.00    -0.648 OA
HETATM   24  O3  UNL     1      56.393  74.685  21.775  1.00  0.00    -0.648 OA
ENDBRANCH   7  22
TORSDOF 5
ENDMDL