MODEL 1
REMARK VINA RESULT: -8.673613210      0.000      0.000
REMARK  5 active torsions:
REMARK  status: ('A' for Active; 'I' for Inactive)
REMARK    1  A    between atoms: N1_2  and  C2_4
REMARK    2  A    between atoms: C5_7  and  S1_8
REMARK    3  A    between atoms: S1_8  and  N2_11
REMARK    4  A    between atoms: N2_11  and  N3_13
REMARK       I    between atoms: N3_13  and  C6_14
REMARK       I    between atoms: C6_14  and  N4_16
REMARK    5  A    between atoms: N4_16  and  C7_18
ROOT
HETATM    1  C7  UNL     1      55.360  74.259  18.958  1.00  0.00     0.186 C
HETATM    2  N5  UNL     1      54.722  73.834  17.873  1.00  0.00    -0.377 N
ATOM      3  H51 UNL     1      53.775  73.601  17.575  1.00  0.00     0.158 HD
ATOM      4  H52 UNL     1      55.380  73.498  17.170  1.00  0.00     0.158 HD
HETATM    5  C8  UNL     1      54.361  74.769  20.024  1.00  0.00     0.136 C
HETATM    6  N6  UNL     1      53.635  75.248  20.839  1.00  0.00    -0.188 NA
ENDROOT
BRANCH   1   7
HETATM    7  N4  UNL     1      56.539  74.548  19.329  1.00  0.00    -0.273 N
HETATM    8  C6  UNL     1      57.479  73.403  18.949  1.00  0.00     0.419 C
HETATM    9  N3  UNL     1      58.081  72.688  19.926  1.00  0.00    -0.254 NA
HETATM   10  O3  UNL     1      57.536  73.288  17.674  1.00  0.00    -0.228 OA
ATOM     11  H4  UNL     1      56.815  75.407  19.805  1.00  0.00     0.174 HD
BRANCH   9  12
HETATM   12  N2  UNL     1      58.678  71.977  20.834  1.00  0.00    -0.151 N
ATOM     13  H2  UNL     1      59.483  71.394  20.604  1.00  0.00     0.215 HD
BRANCH  12  14
HETATM   14  S1  UNL     1      58.069  72.053  22.430  1.00  0.00     0.286 S
HETATM   15  O1  UNL     1      57.167  73.205  22.724  1.00  0.00    -0.198 OA
HETATM   16  O2  UNL     1      59.271  72.292  23.362  1.00  0.00    -0.198 OA
BRANCH  14  17
HETATM   17  C5  UNL     1      57.237  70.623  22.857  1.00  0.00     0.082 A
HETATM   18  C4  UNL     1      57.593  69.405  22.249  1.00  0.00     0.027 A
HETATM   19  C3  UNL     1      57.033  68.247  22.714  1.00  0.00     0.030 A
HETATM   20  C2  UNL     1      56.135  68.177  23.768  1.00  0.00     0.027 A
HETATM   21  C10 UNL     1      55.784  69.400  24.385  1.00  0.00     0.030 A
HETATM   22  C9  UNL     1      56.373  70.537  23.876  1.00  0.00     0.027 A
BRANCH  20  23
HETATM   23  N1  UNL     1      55.607  67.011  24.269  1.00  0.00    -0.394 N
HETATM   24  C1  UNL     1      56.287  65.760  23.886  1.00  0.00     0.146 C
ATOM     25  H1  UNL     1      54.786  67.010  24.876  1.00  0.00     0.159 HD
ENDBRANCH  20  23
ENDBRANCH  14  17
ENDBRANCH  12  14
ENDBRANCH   9  12
ENDBRANCH   1   7
TORSDOF 5
ENDMDL