MODEL 4
REMARK VINA RESULT: -8.267809153      1.228      1.228
REMARK  6 active torsions:
REMARK  status: ('A' for Active; 'I' for Inactive)
REMARK    1  A    between atoms: N2_3  and  S1_5
REMARK    2  A    between atoms: S1_5  and  N3_8
REMARK    3  A    between atoms: N3_8  and  N4_10
REMARK    4  A    between atoms: N4_10  and  C2_12
REMARK    5  A    between atoms: C2_12  and  N5_14
REMARK       I    between atoms: N5_14  and  C3_16
REMARK    6  A    between atoms: C3_16  and  C4_18
ROOT
HETATM    1  N1  UNL     1      54.059  74.690  20.765  1.00  0.00    -0.171 NA
HETATM    2  C1  UNL     1      55.048  74.842  20.159  1.00  0.00     0.193 C
HETATM    3  N2  UNL     1      56.242  75.010  19.452  1.00  0.00    -0.202 N
ATOM      4  H2  UNL     1      56.439  75.901  18.996  1.00  0.00     0.193 HD
ENDROOT
BRANCH   3   5
HETATM    5  S1  UNL     1      57.372  73.739  19.346  1.00  0.00     0.345 S
HETATM    6  O1  UNL     1      58.685  74.239  19.912  1.00  0.00    -0.180 OA
HETATM    7  O2  UNL     1      57.593  73.302  17.928  1.00  0.00    -0.180 OA
BRANCH   5   8
HETATM    8  N3  UNL     1      56.826  72.389  20.238  1.00  0.00    -0.207 N
ATOM      9  H3  UNL     1      55.860  72.067  20.297  1.00  0.00     0.201 HD
BRANCH   8  10
HETATM   10  N4  UNL     1      57.909  71.802  20.866  1.00  0.00    -0.265 N
ATOM     11  H4  UNL     1      58.716  71.476  20.335  1.00  0.00     0.190 HD
BRANCH  10  12
HETATM   12  C2  UNL     1      57.854  71.670  22.297  1.00  0.00     0.194 C
HETATM   13  S2  UNL     1      58.032  72.960  23.265  1.00  0.00    -0.039 SA
BRANCH  12  14
HETATM   14  N5  UNL     1      57.638  70.390  22.874  1.00  0.00    -0.298 N
HETATM   15  C3  UNL     1      56.724  69.497  22.297  1.00  0.00     0.257 C
HETATM   16  O3  UNL     1      56.091  69.814  21.271  1.00  0.00    -0.267 OA
ATOM     17  H5  UNL     1      58.150  70.119  23.713  1.00  0.00     0.171 HD
BRANCH  15  18
HETATM   18  C4  UNL     1      56.513  68.190  22.898  1.00  0.00     0.032 A
HETATM   19  C5  UNL     1      55.894  68.007  24.116  1.00  0.00     0.017 A
HETATM   20  C6  UNL     1      55.742  66.711  24.591  1.00  0.00     0.001 A
HETATM   21  C7  UNL     1      56.184  65.612  23.893  1.00  0.00     0.000 A
HETATM   22  C8  UNL     1      56.801  65.794  22.679  1.00  0.00     0.001 A
HETATM   23  C9  UNL     1      56.958  67.070  22.197  1.00  0.00     0.017 A
ENDBRANCH  15  18
ENDBRANCH  12  14
ENDBRANCH  10  12
ENDBRANCH   8  10
ENDBRANCH   5   8
ENDBRANCH   3   5
TORSDOF 6
ENDMDL