MODEL 5
REMARK VINA RESULT: -6.887586381      3.458      6.847
REMARK  6 active torsions:
REMARK  status: ('A' for Active; 'I' for Inactive)
REMARK    1  A    between atoms: C2_2  and  O1_3
REMARK    2  A    between atoms: O1_3  and  C3_4
REMARK    3  A    between atoms: C3_4  and  C4_6
REMARK    4  A    between atoms: C8_10  and  N1_11
REMARK    5  A    between atoms: N1_11  and  S1_13
REMARK    6  A    between atoms: S1_13  and  N2_16
REMARK       I    between atoms: N2_16  and  C9_18
ROOT
HETATM    1  C4  UNL     1      57.146  73.380  20.443  1.00  0.00     0.044 C
HETATM    2  C5  UNL     1      56.872  74.624  21.259  1.00  0.00     0.026 C
HETATM    3  C6  UNL     1      56.163  72.319  20.907  1.00  0.00     0.021 C
HETATM    4  C7  UNL     1      56.878  71.033  21.262  1.00  0.00     0.027 C
HETATM    5  C8  UNL     1      57.891  71.224  22.373  1.00  0.00     0.094 C
HETATM    6  C10 UNL     1      58.550  72.537  22.235  1.00  0.00     0.027 C
HETATM    7  C11 UNL     1      58.562  72.909  20.762  1.00  0.00     0.021 C
ENDROOT
BRANCH   5   8
HETATM    8  N1  UNL     1      57.294  70.912  23.609  1.00  0.00    -0.298 N
ATOM      9  H1  UNL     1      57.403  71.547  24.400  1.00  0.00     0.174 HD
BRANCH   8  10
HETATM   10  S1  UNL     1      56.411  69.514  23.787  1.00  0.00     0.321 S
HETATM   11  O3  UNL     1      55.156  69.632  22.956  1.00  0.00    -0.182 OA
HETATM   12  O4  UNL     1      55.940  69.210  25.177  1.00  0.00    -0.182 OA
BRANCH  10  13
HETATM   13  N2  UNL     1      57.251  68.123  23.143  1.00  0.00    -0.241 N
HETATM   14  C9  UNL     1      56.615  66.846  23.109  1.00  0.00     0.196 C
HETATM   15  N3  UNL     1      55.845  66.547  24.092  1.00  0.00    -0.373 N
HETATM   16  N4  UNL     1      56.791  65.920  22.067  1.00  0.00    -0.063 NA
ATOM     17  H32 UNL     1      55.717  67.220  24.848  1.00  0.00     0.158 HD
ATOM     18  H31 UNL     1      55.390  65.635  24.067  1.00  0.00     0.158 HD
ATOM     19  H2  UNL     1      58.203  68.224  22.791  1.00  0.00     0.183 HD
ENDBRANCH  10  13
ENDBRANCH   8  10
ENDBRANCH   5   8
BRANCH   1  20
HETATM   20  C3  UNL     1      56.997  73.700  19.006  1.00  0.00     0.267 C
HETATM   21  O2  UNL     1      57.738  73.188  18.123  1.00  0.00    -0.264 OA
BRANCH  20  22
HETATM   22  O1  UNL     1      56.026  74.586  18.573  1.00  0.00    -0.321 OA
BRANCH  22  23
HETATM   23  C2  UNL     1      54.724  74.204  18.214  1.00  0.00     0.174 C
HETATM   24  C1  UNL     1      53.648  74.936  18.956  1.00  0.00     0.034 C
ENDBRANCH  22  23
ENDBRANCH  20  22
ENDBRANCH   1  20
TORSDOF 6
ENDMDL