MODEL 2
REMARK VINA RESULT: -6.132514332      1.893      2.470
REMARK  3 active torsions:
REMARK  status: ('A' for Active; 'I' for Inactive)
REMARK    1  A    between atoms: C2_2  and  N1_3
REMARK    2  A    between atoms: C2_2  and  C12_18
REMARK       I    between atoms: N1_3  and  C3_5
REMARK    3  A    between atoms: C3_5  and  C4_7
REMARK       I    between atoms: C12_18  and  N3_20
REMARK       I    between atoms: N3_20  and  C13_22
ROOT
HETATM    1  N1  UNL     1      56.178  73.514  21.519  1.00  0.00    -0.348 N
ATOM      2  H1  UNL     1      55.855  73.829  22.435  1.00  0.00     0.163 HD
HETATM    3  C3  UNL     1      56.518  72.164  21.299  1.00  0.00     0.225 C
HETATM    4  O1  UNL     1      56.923  71.753  20.162  1.00  0.00    -0.273 OA
ENDROOT
BRANCH   3   5
HETATM    5  C4  UNL     1      56.412  71.189  22.383  1.00  0.00     0.115 C
HETATM    6  C5  UNL     1      56.043  69.787  21.911  1.00  0.00     0.054 C
HETATM    7  C6  UNL     1      56.550  68.950  23.061  1.00  0.00     0.120 C
HETATM    8  C7  UNL     1      57.233  67.731  22.486  1.00  0.00     0.046 C
HETATM    9  C8  UNL     1      55.381  68.432  23.897  1.00  0.00     0.046 C
HETATM   10  N2  UNL     1      57.397  69.766  23.873  1.00  0.00    -0.058 N
HETATM   11  C9  UNL     1      57.708  70.981  23.140  1.00  0.00     0.131 C
ATOM     12  H22 UNL     1      56.996  69.955  24.792  1.00  0.00     0.279 HD
ATOM     13  H21 UNL     1      58.233  69.273  24.186  1.00  0.00     0.279 HD
HETATM   14  C10 UNL     1      57.928  72.170  24.037  1.00  0.00     0.046 C
HETATM   15  C11 UNL     1      58.898  70.814  22.247  1.00  0.00     0.046 C
ENDBRANCH   3   5
BRANCH   1  16
HETATM   16  C2  UNL     1      56.299  74.449  20.410  1.00  0.00     0.173 C
HETATM   17  C1  UNL     1      55.022  74.235  19.591  1.00  0.00     0.042 C
BRANCH  16  18
HETATM   18  C12 UNL     1      57.483  74.167  19.584  1.00  0.00     0.247 C
HETATM   19  O2  UNL     1      57.268  73.879  18.356  1.00  0.00    -0.271 OA
HETATM   20  N3  UNL     1      58.821  74.185  20.020  1.00  0.00    -0.280 N
HETATM   21  C13 UNL     1      59.277  74.423  21.334  1.00  0.00     0.335 C
ATOM     22  H3  UNL     1      59.536  74.007  19.313  1.00  0.00     0.173 HD
HETATM   23  N4  UNL     1      60.678  74.406  21.633  1.00  0.00    -0.040 NA
HETATM   24  O3  UNL     1      58.524  74.658  22.298  1.00  0.00    -0.251 OA
ENDBRANCH  16  18
ENDBRANCH   1  16
TORSDOF 3
ENDMDL