MODEL 1
REMARK VINA RESULT: -6.546835718      0.000      0.000
REMARK  4 active torsions:
REMARK  status: ('A' for Active; 'I' for Inactive)
REMARK       I    between atoms: C2_5  and  N4_7
REMARK    1  A    between atoms: N4_7  and  C3_9
REMARK    2  A    between atoms: C3_9  and  C4_10
REMARK    3  A    between atoms: C3_9  and  C5_13
REMARK    4  A    between atoms: C8_16  and  C9_17
ROOT
HETATM    1  N1  UNL     1      56.073  66.515  22.383  1.00  0.00    -0.172 NA
HETATM    2  C1  UNL     1      56.647  67.522  22.487  1.00  0.00     0.184 C
HETATM    3  N2  UNL     1      57.337  68.708  22.627  1.00  0.00    -0.268 N
ATOM      4  H2  UNL     1      58.291  68.674  22.987  1.00  0.00     0.180 HD
HETATM    5  C2  UNL     1      56.838  69.857  22.328  1.00  0.00     0.198 C
HETATM    6  N3  UNL     1      55.508  69.871  21.830  1.00  0.00    -0.063 NA
HETATM    7  N4  UNL     1      57.566  71.070  22.479  1.00  0.00    -0.349 N
ATOM      8  H4  UNL     1      57.886  71.315  23.416  1.00  0.00     0.163 HD
ENDROOT
BRANCH   7   9
HETATM    9  C3  UNL     1      57.879  71.965  21.422  1.00  0.00     0.192 C
BRANCH   9  10
HETATM   10  C4  UNL     1      59.039  72.846  21.726  1.00  0.00     0.197 C
HETATM   11  O1  UNL     1      59.599  73.585  20.886  1.00  0.00    -0.646 OA
HETATM   12  O2  UNL     1      59.522  72.841  23.022  1.00  0.00    -0.646 OA
ENDBRANCH   9  10
BRANCH   9  13
HETATM   13  C5  UNL     1      56.728  72.851  21.094  1.00  0.00     0.062 C
HETATM   14  C6  UNL     1      56.939  74.312  21.444  1.00  0.00     0.014 C
HETATM   15  C7  UNL     1      55.527  74.919  21.414  1.00  0.00     0.043 C
HETATM   16  C8  UNL     1      54.939  74.610  20.062  1.00  0.00     0.224 C
HETATM   17  O5  UNL     1      54.783  73.248  19.909  1.00  0.00    -0.355 OA
HETATM   18  C10 UNL     1      56.072  72.653  19.776  1.00  0.00     0.235 C
HETATM   19  C11 UNL     1      56.764  73.271  18.683  1.00  0.00     0.091 C
HETATM   20  N5  UNL     1      57.301  73.771  17.781  1.00  0.00    -0.195 NA
BRANCH  16  21
HETATM   21  C9  UNL     1      53.626  75.296  19.933  1.00  0.00     0.203 C
HETATM   22  O3  UNL     1      53.357  76.304  20.619  1.00  0.00    -0.646 OA
HETATM   23  O4  UNL     1      52.701  74.812  19.048  1.00  0.00    -0.646 OA
ENDBRANCH  16  21
ENDBRANCH   9  13
ENDBRANCH   7   9
TORSDOF 4
ENDMDL