MODEL 4
REMARK VINA RESULT: -6.128086696      1.472      2.084
REMARK  7 active torsions:
REMARK  status: ('A' for Active; 'I' for Inactive)
REMARK    1  A    between atoms: C2_2  and  O1_4
REMARK    2  A    between atoms: C2_2  and  C4_6
REMARK    3  A    between atoms: C4_6  and  O3_8
REMARK    4  A    between atoms: O3_8  and  C5_9
REMARK    5  A    between atoms: C5_9  and  C6_10
REMARK       I    between atoms: C6_10  and  N1_12
REMARK    6  A    between atoms: N1_12  and  N2_14
REMARK       I    between atoms: N2_14  and  C7_16
REMARK       I    between atoms: C7_16  and  N3_18
REMARK    7  A    between atoms: N3_18  and  C8_20
ROOT
HETATM    1  N2  UNL     1      57.152  70.068  22.797  1.00  0.00    -0.249 N
ATOM      2  H2  UNL     1      58.057  69.982  23.259  1.00  0.00     0.192 HD
HETATM    3  C7  UNL     1      56.463  68.889  22.398  1.00  0.00     0.335 C
HETATM    4  O5  UNL     1      55.339  68.994  21.813  1.00  0.00    -0.246 OA
HETATM    5  N3  UNL     1      57.014  67.605  22.647  1.00  0.00    -0.337 N
ATOM      6  H3  UNL     1      57.916  67.526  23.115  1.00  0.00     0.164 HD
ENDROOT
BRANCH   1   7
HETATM    7  N1  UNL     1      56.621  71.339  22.575  1.00  0.00    -0.264 N
HETATM    8  C6  UNL     1      57.371  72.273  21.833  1.00  0.00     0.260 C
HETATM    9  O4  UNL     1      58.524  71.953  21.368  1.00  0.00    -0.269 OA
ATOM     10  H1  UNL     1      55.703  71.588  22.943  1.00  0.00     0.190 HD
BRANCH   8  11
HETATM   11  C5  UNL     1      56.811  73.628  21.603  1.00  0.00     0.283 C
BRANCH  11  12
HETATM   12  O3  UNL     1      55.428  73.541  21.296  1.00  0.00    -0.310 OA
BRANCH  12  13
HETATM   13  C4  UNL     1      54.875  74.535  20.510  1.00  0.00     0.293 C
HETATM   14  O2  UNL     1      54.170  75.419  21.043  1.00  0.00    -0.262 OA
BRANCH  13  15
HETATM   15  C2  UNL     1      55.133  74.536  19.033  1.00  0.00     0.138 C
HETATM   16  C1  UNL     1      53.835  74.819  18.331  1.00  0.00     0.056 C
HETATM   17  C3  UNL     1      55.678  73.188  18.664  1.00  0.00     0.056 C
BRANCH  15  18
HETATM   18  O1  UNL     1      56.093  75.506  18.720  1.00  0.00    -0.380 OA
ATOM     19  H1  UNL     1      56.049  75.742  17.801  1.00  0.00     0.211 HD
ENDBRANCH  15  18
ENDBRANCH  13  15
ENDBRANCH  12  13
ENDBRANCH  11  12
ENDBRANCH   8  11
ENDBRANCH   1   7
BRANCH   5  20
HETATM   20  C8  UNL     1      56.298  66.386  22.236  1.00  0.00     0.089 C
HETATM   21  C9  UNL     1      56.217  65.553  23.517  1.00  0.00     0.052 C
HETATM   22  C10 UNL     1      55.647  64.196  23.156  1.00  0.00     0.234 C
HETATM   23  N4  UNL     1      56.681  63.536  22.367  1.00  0.00    -0.075 N
HETATM   24  C11 UNL     1      56.844  64.199  21.112  1.00  0.00     0.234 C
ATOM     25  H42 UNL     1      57.562  63.465  22.876  1.00  0.00     0.277 HD
ATOM     26  H41 UNL     1      56.494  62.540  22.250  1.00  0.00     0.277 HD
HETATM   27  C12 UNL     1      57.105  65.682  21.207  1.00  0.00     0.052 C
ENDBRANCH   5  20
TORSDOF 7
ENDMDL