MODEL 5
REMARK VINA RESULT: -3.498544475      2.760      4.658
REMARK  8 active torsions:
REMARK  status: ('A' for Active; 'I' for Inactive)
REMARK    1  A    between atoms: C3_3  and  C4_4
REMARK    2  A    between atoms: C4_4  and  C5_5
REMARK    3  A    between atoms: C7_9  and  O3_11
REMARK    4  A    between atoms: C9_13  and  O4_14
REMARK    5  A    between atoms: C9_13  and  N1_16
REMARK    6  A    between atoms: N1_16  and  N2_18
REMARK    7  A    between atoms: C10_23  and  O5_24
REMARK    8  A    between atoms: C10_23  and  N4_26
ROOT
HETATM    1  C1  UNL     1      64.269  67.584  29.370  1.00  0.00     0.012 C
HETATM    2  C2  UNL     1      63.500  67.412  28.461  1.00  0.00    -0.116 C
HETATM    3  C3  UNL     1      62.586  67.230  27.366  1.00  0.00     0.119 C
ENDROOT
BRANCH   3   4
HETATM    4  C4  UNL     1      61.714  65.960  27.519  1.00  0.00     0.127 C
HETATM    5  C6  UNL     1      62.619  64.997  28.264  1.00  0.00     0.069 C
HETATM    6  C7  UNL     1      63.252  64.117  27.277  1.00  0.00     0.112 C
HETATM    7  C8  UNL     1      64.758  64.219  27.228  1.00  0.00     0.051 C
HETATM    8  C9  UNL     1      62.604  64.472  25.955  1.00  0.00     0.240 C
HETATM    9  C10 UNL     1      61.429  65.365  26.198  1.00  0.00     0.331 C
BRANCH   4  10
HETATM   10  C5  UNL     1      60.642  66.326  28.425  1.00  0.00     0.188 C
HETATM   11  O1  UNL     1      60.132  65.510  29.230  1.00  0.00    -0.647 OA
HETATM   12  O2  UNL     1      60.086  67.600  28.484  1.00  0.00    -0.647 OA
ENDBRANCH   4  10
BRANCH   6  13
HETATM   13  O3  UNL     1      62.956  62.788  27.633  1.00  0.00    -0.385 OA
ATOM     14  H3  UNL     1      63.128  62.240  26.877  1.00  0.00     0.210 HD
ENDBRANCH   6  13
BRANCH   8  15
HETATM   15  O4  UNL     1      63.576  65.114  25.120  1.00  0.00    -0.363 OA
ATOM     16  H4  UNL     1      64.444  64.916  25.451  1.00  0.00     0.213 HD
ENDBRANCH   8  15
BRANCH   8  17
HETATM   17  N1  UNL     1      62.385  63.220  25.317  1.00  0.00    -0.281 N
ATOM     18  H1  UNL     1      61.669  62.612  25.714  1.00  0.00     0.185 HD
BRANCH  17  19
HETATM   19  N2  UNL     1      62.986  62.808  24.328  1.00  0.00    -0.251 N
HETATM   20  N3  UNL     1      63.870  62.710  23.456  1.00  0.00    -0.331 N
ATOM     21  H32 UNL     1      64.470  63.459  23.801  1.00  0.00     0.178 HD
ATOM     22  H31 UNL     1      64.368  62.367  22.635  1.00  0.00     0.178 HD
ATOM     23  H2  UNL     1      62.351  62.069  24.026  1.00  0.00     0.207 HD
ENDBRANCH  17  19
ENDBRANCH   8  17
BRANCH   9  24
HETATM   24  O5  UNL     1      61.573  66.376  25.190  1.00  0.00    -0.358 OA
ATOM     25  H5  UNL     1      60.721  66.752  25.006  1.00  0.00     0.213 HD
ENDBRANCH   9  24
BRANCH   9  26
HETATM   26  N4  UNL     1      60.180  64.781  25.936  1.00  0.00     0.121 N
HETATM   27  C11 UNL     1      59.040  65.658  25.928  1.00  0.00     0.313 C
HETATM   28  C12 UNL     1      60.161  64.155  24.603  1.00  0.00     0.313 C
ENDBRANCH   9  26
ENDBRANCH   3   4
TORSDOF 8
ENDMDL