MODEL 2
REMARK VINA RESULT: -6.550776008      1.977      5.965
REMARK  3 active torsions:
REMARK  status: ('A' for Active; 'I' for Inactive)
REMARK    1  A    between atoms: C2_2  and  C3_3
REMARK    2  A    between atoms: C4_4  and  C5_5
REMARK    3  A    between atoms: C5_5  and  C6_6
ROOT
HETATM    1  C6  UNL     1      56.635  74.252  20.369  1.00  0.00     0.065 A
HETATM    2  N1  UNL     1      57.321  73.770  19.320  1.00  0.00    -0.307 N
ATOM      3  H1  UNL     1      58.290  73.452  19.353  1.00  0.00     0.170 HD
HETATM    4  C7  UNL     1      56.556  73.767  18.234  1.00  0.00     0.347 A
HETATM    5  O1  UNL     1      56.853  73.385  17.062  1.00  0.00    -0.245 OA
HETATM    6  N2  UNL     1      55.336  74.249  18.535  1.00  0.00    -0.191 N
HETATM    7  C8  UNL     1      55.380  74.545  19.838  1.00  0.00     0.151 A
HETATM    8  N3  UNL     1      54.212  75.091  20.423  1.00  0.00    -0.371 N
ATOM      9  H3  UNL     1      54.291  75.530  21.340  1.00  0.00     0.161 HD
HETATM   10  C9  UNL     1      52.908  75.057  19.787  1.00  0.00     0.142 C
HETATM   11  C10 UNL     1      53.063  75.264  18.272  1.00  0.00     0.159 C
HETATM   12  N4  UNL     1      54.178  74.461  17.799  1.00  0.00    -0.323 N
ATOM     13  H4  UNL     1      54.106  74.030  16.878  1.00  0.00     0.181 HD
ENDROOT
BRANCH   1  14
HETATM   14  C5  UNL     1      57.088  74.456  21.753  1.00  0.00     0.119 C
BRANCH  14  15
HETATM   15  C4  UNL     1      58.323  73.816  22.168  1.00  0.00     0.031 A
HETATM   16  C3  UNL     1      58.338  72.642  22.873  1.00  0.00     0.033 A
HETATM   17  C12 UNL     1      59.601  72.135  23.215  1.00  0.00     0.257 A
HETATM   18  N6  UNL     1      60.735  72.740  22.887  1.00  0.00    -0.275 N
HETATM   19  O3  UNL     1      59.663  71.053  23.865  1.00  0.00    -0.267 OA
HETATM   20  C11 UNL     1      60.690  73.877  22.203  1.00  0.00     0.327 A
ATOM     21  H6  UNL     1      61.631  72.336  23.157  1.00  0.00     0.173 HD
HETATM   22  N5  UNL     1      59.502  74.376  21.866  1.00  0.00    -0.311 N
HETATM   23  O2  UNL     1      61.795  74.431  21.904  1.00  0.00    -0.247 OA
ATOM     24  H5  UNL     1      59.489  75.250  21.340  1.00  0.00     0.170 HD
BRANCH  16  25
HETATM   25  C2  UNL     1      57.176  71.870  23.270  1.00  0.00     0.042 C
HETATM   26  C1  UNL     1      56.808  70.948  22.092  1.00  0.00     0.010 C
ENDBRANCH  16  25
ENDBRANCH  14  15
ENDBRANCH   1  14
TORSDOF 3
ENDMDL