MODEL 3
REMARK VINA RESULT: -5.631066973      2.120      2.968
REMARK  5 active torsions:
REMARK  status: ('A' for Active; 'I' for Inactive)
REMARK    1  A    between atoms: C2_2  and  O1_3
REMARK    2  A    between atoms: C3_5  and  C4_6
REMARK       I    between atoms: C4_6  and  N1_8
REMARK    3  A    between atoms: N1_8  and  N2_10
REMARK    4  A    between atoms: N3_13  and  C7_14
REMARK    5  A    between atoms: C10_20  and  N5_21
ROOT
HETATM    1  N2  UNL     1      55.704  70.765  23.040  1.00  0.00    -0.226 NA
HETATM    2  C5  UNL     1      55.856  69.995  21.802  1.00  0.00     0.133 C
HETATM    3  C6  UNL     1      56.914  68.927  22.125  1.00  0.00     0.141 C
HETATM    4  N3  UNL     1      56.215  67.944  22.957  1.00  0.00    -0.364 N
HETATM    5  C11 UNL     1      55.116  68.494  23.730  1.00  0.00     0.141 C
HETATM    6  C12 UNL     1      55.575  69.890  24.177  1.00  0.00     0.133 C
ENDROOT
BRANCH   4   7
HETATM    7  C7  UNL     1      56.600  66.593  22.996  1.00  0.00     0.124 A
HETATM    8  C8  UNL     1      56.169  65.723  22.019  1.00  0.00     0.123 A
HETATM    9  C9  UNL     1      56.548  64.378  22.068  1.00  0.00     0.263 A
HETATM   10  O3  UNL     1      56.119  63.636  21.146  1.00  0.00    -0.268 OA
HETATM   11  N4  UNL     1      57.321  63.982  23.073  1.00  0.00    -0.156 N
HETATM   12  C10 UNL     1      57.752  64.824  24.037  1.00  0.00     0.680 A
ATOM     13  H4  UNL     1      57.601  63.001  23.117  1.00  0.00     0.187 HD
HETATM   14  N6  UNL     1      57.383  66.130  23.987  1.00  0.00    -0.177 N
ATOM     15  H6  UNL     1      57.704  66.770  24.714  1.00  0.00     0.185 HD
BRANCH  12  16
HETATM   16  N5  UNL     1      58.494  64.384  24.969  1.00  0.00    -0.234 N
ATOM     17  H52 UNL     1      58.117  63.797  25.713  1.00  0.00     0.174 HD
ATOM     18  H51 UNL     1      59.486  64.622  24.979  1.00  0.00     0.174 HD
ENDBRANCH  12  16
ENDBRANCH   4   7
BRANCH   1  19
HETATM   19  N1  UNL     1      56.799  71.625  23.133  1.00  0.00    -0.286 N
HETATM   20  C4  UNL     1      56.845  72.773  22.245  1.00  0.00     0.258 C
HETATM   21  O2  UNL     1      55.926  72.972  21.427  1.00  0.00    -0.267 OA
ATOM     22  H1  UNL     1      57.547  71.452  23.805  1.00  0.00     0.184 HD
BRANCH  20  23
HETATM   23  C3  UNL     1      57.964  73.676  22.329  1.00  0.00     0.106 C
HETATM   24  C2  UNL     1      59.172  73.305  21.977  1.00  0.00     0.044 C
HETATM   25  C1  UNL     1      59.528  71.968  21.464  1.00  0.00     0.076 C
BRANCH  24  26
HETATM   26  O1  UNL     1      60.245  74.229  22.077  1.00  0.00    -0.365 OA
ATOM     27  H1  UNL     1      60.027  75.134  21.885  1.00  0.00     0.217 HD
ENDBRANCH  24  26
ENDBRANCH  20  23
ENDBRANCH   1  19
TORSDOF 5
ENDMDL