MODEL 2
REMARK VINA RESULT: -4.946129642      2.929      5.285
REMARK  5 active torsions:
REMARK  status: ('A' for Active; 'I' for Inactive)
REMARK       I    between atoms: C1_4  and  N3_6
REMARK       I    between atoms: N3_6  and  C2_7
REMARK    1  A    between atoms: C2_7  and  C3_9
REMARK    2  A    between atoms: C8_14  and  C9_15
REMARK    3  A    between atoms: C9_15  and  O2_16
REMARK    4  A    between atoms: C9_15  and  N4_18
REMARK    5  A    between atoms: C13_22  and  N5_23
ROOT
HETATM    1  C3  UNL     1      60.605  65.169  26.545  1.00  0.00     0.057 A
HETATM    2  C4  UNL     1      60.966  65.045  27.882  1.00  0.00     0.019 A
HETATM    3  C5  UNL     1      60.156  64.340  28.747  1.00  0.00     0.001 A
HETATM    4  C6  UNL     1      59.011  63.782  28.253  1.00  0.00     0.001 A
HETATM    5  C7  UNL     1      58.676  63.918  26.927  1.00  0.00     0.012 A
HETATM    6  C8  UNL     1      59.477  64.627  26.020  1.00  0.00     0.006 A
ENDROOT
BRANCH   6   7
HETATM    7  C9  UNL     1      59.089  64.743  24.606  1.00  0.00     0.251 C
BRANCH   7   8
HETATM    8  O2  UNL     1      59.728  63.711  23.865  1.00  0.00    -0.373 OA
ATOM      9  H2  UNL     1      59.613  63.881  22.938  1.00  0.00     0.212 HD
ENDBRANCH   7   8
BRANCH   7  10
HETATM   10  N4  UNL     1      57.704  64.783  24.330  1.00  0.00    -0.382 N
HETATM   11  C10 UNL     1      57.189  63.982  23.284  1.00  0.00     0.119 C
HETATM   12  C11 UNL     1      57.396  64.573  21.906  1.00  0.00     0.022 C
HETATM   13  C12 UNL     1      56.656  65.885  21.903  1.00  0.00     0.036 C
HETATM   14  C13 UNL     1      56.965  66.774  23.069  1.00  0.00     0.201 C
HETATM   15  C14 UNL     1      57.111  66.088  24.373  1.00  0.00     0.152 C
BRANCH  14  16
HETATM   16  N5  UNL     1      55.889  67.744  23.170  1.00  0.00    -0.073 N
ATOM     17  H53 UNL     1      55.158  67.602  22.473  1.00  0.00     0.274 HD
ATOM     18  H52 UNL     1      55.310  67.611  24.000  1.00  0.00     0.274 HD
ATOM     19  H51 UNL     1      56.309  68.672  23.122  1.00  0.00     0.274 HD
ENDBRANCH  14  16
ENDBRANCH   7  10
ENDBRANCH   6   7
BRANCH   1  20
HETATM   20  C2  UNL     1      61.501  65.958  25.668  1.00  0.00     0.329 C
HETATM   21  N3  UNL     1      62.197  65.274  24.712  1.00  0.00    -0.334 NA
HETATM   22  C1  UNL     1      62.879  64.612  23.777  1.00  0.00     0.264 C
HETATM   23  N1  UNL     1      62.720  63.274  23.649  1.00  0.00    -0.362 N
HETATM   24  N2  UNL     1      63.832  65.083  22.797  1.00  0.00    -0.049 NA
ATOM     25  H12 UNL     1      63.242  62.767  22.934  1.00  0.00     0.159 HD
ATOM     26  H11 UNL     1      62.048  62.942  24.340  1.00  0.00     0.159 HD
HETATM   27  O1  UNL     1      61.523  67.175  25.905  1.00  0.00    -0.251 OA
ENDBRANCH   1  20
TORSDOF 5
ENDMDL