MODEL 4
REMARK VINA RESULT: -5.546164048      9.276     10.882
REMARK  3 active torsions:
REMARK  status: ('A' for Active; 'I' for Inactive)
REMARK    1  A    between atoms: C1_2  and  C2_4
REMARK    2  A    between atoms: C2_4  and  C3_5
REMARK       I    between atoms: C3_5  and  N1_7
REMARK    3  A    between atoms: N1_7  and  N2_9
ROOT
HETATM    1  C3  UNL     1      61.350  64.850  26.850  1.00  0.00     0.261 C
HETATM    2  O3  UNL     1      61.896  63.749  26.768  1.00  0.00    -0.270 OA
HETATM    3  N1  UNL     1      60.159  65.158  26.169  1.00  0.00    -0.266 N
ATOM      4  H1  UNL     1      59.755  66.088  26.278  1.00  0.00     0.190 HD
ENDROOT
BRANCH   1   5
HETATM    5  C2  UNL     1      61.963  65.914  27.705  1.00  0.00     0.166 C
HETATM    6  C6  UNL     1      62.607  66.971  26.902  1.00  0.00     0.091 C
HETATM    7  N5  UNL     1      63.780  67.517  27.431  1.00  0.00    -0.380 N
HETATM    8  C7  UNL     1      63.887  67.469  28.831  1.00  0.00     0.065 C
ATOM      9  H5  UNL     1      64.508  67.923  26.842  1.00  0.00     0.164 HD
HETATM   10  C8  UNL     1      63.816  66.064  29.386  1.00  0.00     0.031 A
HETATM   11  C9  UNL     1      64.318  65.019  28.448  1.00  0.00     0.017 A
HETATM   12  C10 UNL     1      62.867  65.205  28.667  1.00  0.00     0.029 A
BRANCH   5  13
HETATM   13  C1  UNL     1      60.815  66.509  28.484  1.00  0.00     0.197 C
HETATM   14  O1  UNL     1      60.100  65.753  29.138  1.00  0.00    -0.647 OA
HETATM   15  O2  UNL     1      60.591  67.880  28.447  1.00  0.00    -0.647 OA
ENDBRANCH   5  13
ENDBRANCH   1   5
BRANCH   3  16
HETATM   16  N2  UNL     1      59.500  64.218  25.334  1.00  0.00    -0.261 N
HETATM   17  C4  UNL     1      58.414  64.622  24.767  1.00  0.00     0.261 A
HETATM   18  N3  UNL     1      57.669  63.854  23.946  1.00  0.00    -0.261 N
HETATM   19  O4  UNL     1      57.812  65.782  24.841  1.00  0.00    -0.248 OA
HETATM   20  N4  UNL     1      56.631  64.574  23.542  1.00  0.00    -0.267 N
ATOM     21  H3  UNL     1      57.868  62.889  23.682  1.00  0.00     0.190 HD
HETATM   22  C5  UNL     1      56.723  65.791  24.108  1.00  0.00     0.237 A
ATOM     23  H4  UNL     1      55.892  64.260  22.913  1.00  0.00     0.190 HD
HETATM   24  S1  UNL     1      55.744  67.081  23.981  1.00  0.00    -0.031 SA
ATOM     25  H2  UNL     1      59.864  63.276  25.192  1.00  0.00     0.190 HD
ENDBRANCH   3  16
TORSDOF 3
ENDMDL