MODEL 5
REMARK VINA RESULT: -5.511895642      4.102      7.097
REMARK  3 active torsions:
REMARK  status: ('A' for Active; 'I' for Inactive)
REMARK       I    between atoms: N1_2  and  C2_4
REMARK       I    between atoms: C2_4  and  N2_6
REMARK    1  A    between atoms: N2_6  and  N3_8
REMARK    2  A    between atoms: N4_17  and  N5_19
REMARK       I    between atoms: N5_19  and  C10_21
REMARK    3  A    between atoms: C10_21  and  C11_23
ROOT
HETATM    1  N3  UNL     1      56.439  68.152  22.149  1.00  0.00    -0.285 N
ATOM      2  H3  UNL     1      55.922  68.309  21.283  1.00  0.00     0.188 HD
HETATM    3  C3  UNL     1      56.612  66.933  22.570  1.00  0.00     0.097 C
HETATM    4  C4  UNL     1      56.010  65.884  21.701  1.00  0.00     0.082 C
HETATM    5  C5  UNL     1      57.125  64.857  21.466  1.00  0.00    -0.011 C
HETATM    6  C6  UNL     1      56.778  64.159  20.163  1.00  0.00     0.010 C
HETATM    7  C7  UNL     1      57.197  63.843  22.538  1.00  0.00     0.012 C
HETATM    8  C8  UNL     1      58.034  64.176  23.715  1.00  0.00     0.078 C
HETATM    9  C9  UNL     1      57.854  65.510  24.281  1.00  0.00     0.097 C
HETATM   10  N4  UNL     1      58.250  65.610  25.509  1.00  0.00    -0.286 N
ATOM     11  H4  UNL     1      58.160  66.510  25.980  1.00  0.00     0.188 HD
HETATM   12  N7  UNL     1      57.336  66.737  23.780  1.00  0.00    -0.333 N
ATOM     13  H7  UNL     1      57.501  67.566  24.350  1.00  0.00     0.168 HD
ENDROOT
BRANCH   1  14
HETATM   14  N2  UNL     1      56.938  69.241  22.844  1.00  0.00    -0.250 N
HETATM   15  C2  UNL     1      56.867  70.573  22.392  1.00  0.00     0.334 C
HETATM   16  N1  UNL     1      57.401  71.643  23.158  1.00  0.00    -0.346 N
HETATM   17  O1  UNL     1      56.321  70.812  21.289  1.00  0.00    -0.246 OA
HETATM   18  C1  UNL     1      57.324  73.007  22.686  1.00  0.00     0.151 C
ATOM     19  H1  UNL     1      57.846  71.446  24.054  1.00  0.00     0.163 HD
ATOM     20  H2  UNL     1      57.385  69.067  23.744  1.00  0.00     0.192 HD
ENDBRANCH   1  14
BRANCH  10  21
HETATM   21  N5  UNL     1      58.800  64.528  26.219  1.00  0.00    -0.261 N
HETATM   22  C10 UNL     1      59.693  64.696  27.296  1.00  0.00     0.325 C
HETATM   23  O2  UNL     1      60.050  65.859  27.684  1.00  0.00    -0.261 OA
ATOM     24  H5  UNL     1      58.541  63.581  25.942  1.00  0.00     0.190 HD
BRANCH  22  25
HETATM   25  C11 UNL     1      60.235  63.552  27.998  1.00  0.00     0.324 C
HETATM   26  N6  UNL     1      59.689  63.129  29.261  1.00  0.00    -0.053 NA
HETATM   27  O3  UNL     1      61.197  62.929  27.480  1.00  0.00    -0.266 OA
ENDBRANCH  22  25
ENDBRANCH  10  21
TORSDOF 3
ENDMDL