MODEL 1
REMARK VINA RESULT: -6.408355806      0.000      0.000
REMARK  5 active torsions:
REMARK  status: ('A' for Active; 'I' for Inactive)
REMARK    1  A    between atoms: C2_2  and  N2_6
REMARK    2  A    between atoms: N2_6  and  C3_8
REMARK    3  A    between atoms: C5_11  and  C7_13
REMARK    4  A    between atoms: C7_13  and  O2_15
REMARK    5  A    between atoms: C10_18  and  N3_19
ROOT
HETATM    1  C3  UNL     1      57.459  73.069  22.567  1.00  0.00     0.131 C
HETATM    2  C4  UNL     1      57.674  71.873  23.495  1.00  0.00     0.196 C
HETATM    3  O1  UNL     1      56.421  71.382  23.794  1.00  0.00    -0.376 OA
HETATM    4  C5  UNL     1      55.816  70.892  22.675  1.00  0.00     0.085 C
HETATM    5  C6  UNL     1      54.408  71.450  22.556  1.00  0.00     0.049 C
HETATM    6  C9  UNL     1      56.517  71.132  21.373  1.00  0.00     0.070 C
HETATM    7  C10 UNL     1      57.060  72.517  21.221  1.00  0.00     0.141 C
ENDROOT
BRANCH   7   8
HETATM    8  N3  UNL     1      56.241  73.447  20.526  1.00  0.00    -0.232 N
HETATM    9  N4  UNL     1      55.159  74.017  21.021  1.00  0.00    -0.245 N
HETATM   10  C11 UNL     1      54.631  74.838  20.103  1.00  0.00     0.343 A
ATOM     11  H4  UNL     1      54.783  73.858  21.956  1.00  0.00     0.192 HD
HETATM   12  O3  UNL     1      53.596  75.535  20.253  1.00  0.00    -0.245 OA
HETATM   13  N5  UNL     1      55.384  74.793  19.012  1.00  0.00    -0.258 N
HETATM   14  C12 UNL     1      56.378  73.929  19.282  1.00  0.00     0.345 A
ATOM     15  H5  UNL     1      55.238  75.309  18.144  1.00  0.00     0.175 HD
HETATM   16  O4  UNL     1      57.275  73.667  18.426  1.00  0.00    -0.245 OA
ENDBRANCH   7   8
BRANCH   1  17
HETATM   17  N2  UNL     1      58.606  73.917  22.476  1.00  0.00    -0.372 N
ATOM     18  H2  UNL     1      58.526  74.904  22.720  1.00  0.00     0.161 HD
BRANCH  17  19
HETATM   19  C2  UNL     1      59.857  73.395  22.046  1.00  0.00     0.066 C
HETATM   20  C1  UNL     1      60.713  72.528  22.894  1.00  0.00     0.088 C
HETATM   21  N1  UNL     1      60.258  73.695  20.860  1.00  0.00    -0.389 N
ATOM     22  H12 UNL     1      61.155  73.321  20.552  1.00  0.00     0.157 HD
ATOM     23  H11 UNL     1      59.670  74.291  20.277  1.00  0.00     0.157 HD
ENDBRANCH  17  19
ENDBRANCH   1  17
BRANCH   4  24
HETATM   24  C7  UNL     1      55.657  69.378  22.866  1.00  0.00     0.148 C
HETATM   25  C8  UNL     1      56.892  68.674  22.346  1.00  0.00     0.042 C
BRANCH  24  26
HETATM   26  O2  UNL     1      55.433  69.037  24.173  1.00  0.00    -0.393 OA
ATOM     27  H2  UNL     1      54.997  68.197  24.259  1.00  0.00     0.210 HD
ENDBRANCH  24  26
ENDBRANCH   4  24
TORSDOF 5
ENDMDL