MODEL 1
REMARK VINA RESULT: -6.054881943      0.000      0.000
REMARK  5 active torsions:
REMARK  status: ('A' for Active; 'I' for Inactive)
REMARK       I    between atoms: C1_2  and  N5_15
REMARK       I    between atoms: N2_3  and  C2_5
REMARK       I    between atoms: C2_5  and  N3_7
REMARK    1  A    between atoms: N3_7  and  N4_9
REMARK       I    between atoms: N4_9  and  C3_11
REMARK    2  A    between atoms: C3_11  and  C4_13
REMARK    3  A    between atoms: N5_15  and  N6_17
REMARK    4  A    between atoms: C5_19  and  C6_20
REMARK    5  A    between atoms: C9_23  and  O4_24
ROOT
HETATM    1  N1  UNL     1      55.462  67.621  24.359  1.00  0.00    -0.062 NA
HETATM    2  C1  UNL     1      56.110  67.508  23.120  1.00  0.00     0.211 C
HETATM    3  N2  UNL     1      56.976  66.589  22.925  1.00  0.00    -0.280 N
ATOM      4  H2  UNL     1      57.434  66.526  22.016  1.00  0.00     0.173 HD
HETATM    5  C2  UNL     1      57.318  65.662  23.923  1.00  0.00     0.341 C
HETATM    6  O1  UNL     1      56.976  65.840  25.106  1.00  0.00    -0.245 OA
HETATM    7  N3  UNL     1      58.061  64.504  23.587  1.00  0.00    -0.248 N
ATOM      8  H3  UNL     1      58.337  64.372  22.614  1.00  0.00     0.192 HD
HETATM    9  N5  UNL     1      55.753  68.436  22.108  1.00  0.00    -0.274 N
ATOM     10  H5  UNL     1      55.109  68.120  21.384  1.00  0.00     0.189 HD
ENDROOT
BRANCH   9  11
HETATM   11  N6  UNL     1      56.208  69.723  22.030  1.00  0.00    -0.309 N
HETATM   12  C5  UNL     1      57.305  70.175  22.500  1.00  0.00     0.118 C
ATOM     13  H6  UNL     1      55.609  70.391  21.545  1.00  0.00     0.186 HD
BRANCH  12  14
HETATM   14  C6  UNL     1      57.684  71.570  22.358  1.00  0.00    -0.019 A
HETATM   15  C7  UNL     1      58.950  72.022  22.672  1.00  0.00     0.015 A
HETATM   16  C8  UNL     1      59.304  73.346  22.520  1.00  0.00     0.037 A
HETATM   17  C9  UNL     1      58.404  74.305  22.041  1.00  0.00     0.065 A
HETATM   18  C10 UNL     1      57.142  73.844  21.731  1.00  0.00     0.037 A
HETATM   19  C11 UNL     1      56.791  72.522  21.883  1.00  0.00     0.015 A
BRANCH  17  20
HETATM   20  O4  UNL     1      58.777  75.630  21.895  1.00  0.00    -0.361 OA
ATOM     21  H4  UNL     1      58.464  76.152  21.167  1.00  0.00     0.217 HD
ENDBRANCH  17  20
ENDBRANCH  12  14
ENDBRANCH   9  11
BRANCH   7  22
HETATM   22  N4  UNL     1      58.433  63.537  24.515  1.00  0.00    -0.260 N
HETATM   23  C3  UNL     1      59.692  63.672  25.187  1.00  0.00     0.297 C
HETATM   24  O2  UNL     1      60.439  64.661  24.926  1.00  0.00    -0.263 OA
ATOM     25  H4  UNL     1      57.822  62.746  24.714  1.00  0.00     0.190 HD
BRANCH  23  26
HETATM   26  C4  UNL     1      60.136  62.710  26.160  1.00  0.00     0.334 C
HETATM   27  O3  UNL     1      60.171  62.977  27.386  1.00  0.00    -0.296 OA
ENDBRANCH  23  26
ENDBRANCH   7  22
TORSDOF 5
ENDMDL