MODEL 5
REMARK VINA RESULT: -6.799327740      2.218      2.645
REMARK  8 active torsions:
REMARK  status: ('A' for Active; 'I' for Inactive)
REMARK    1  A    between atoms: O1_1  and  C1_3
REMARK    2  A    between atoms: N1_5  and  C3_6
REMARK    3  A    between atoms: C5_9  and  C6_10
REMARK    4  A    between atoms: C8_14  and  O3_15
REMARK    5  A    between atoms: O3_15  and  C9_16
REMARK    6  A    between atoms: C9_16  and  C10_17
REMARK    7  A    between atoms: C13_20  and  C14_21
REMARK    8  A    between atoms: C20_31  and  O4_32
ROOT
HETATM    1  C6  UNL     1      61.173  58.666  49.914  1.00  0.00    -0.013 A
HETATM    2  C7  UNL     1      61.703  57.400  49.950  1.00  0.00     0.100 A
HETATM    3  N2  UNL     1      61.571  56.550  48.892  1.00  0.00    -0.346 N
ATOM      4  H2  UNL     1      61.976  55.614  48.948  1.00  0.00     0.167 HD
HETATM    5  C8  UNL     1      60.919  56.920  47.776  1.00  0.00     0.154 A
HETATM    6  C13 UNL     1      60.361  58.207  47.694  1.00  0.00     0.037 A
HETATM    7  C17 UNL     1      60.493  59.050  48.750  1.00  0.00     0.028 A
ENDROOT
BRANCH   1   8
HETATM    8  C5  UNL     1      61.328  59.570  51.063  1.00  0.00     0.158 C
HETATM    9  O2  UNL     1      61.071  58.944  52.278  1.00  0.00    -0.379 OA
HETATM   10  C4  UNL     1      60.839  59.961  53.202  1.00  0.00     0.194 C
HETATM   11  C3  UNL     1      60.199  61.089  52.453  1.00  0.00     0.110 C
HETATM   12  C18 UNL     1      60.419  60.777  51.009  1.00  0.00     0.064 C
BRANCH  11  13
HETATM   13  N1  UNL     1      60.553  62.396  52.842  1.00  0.00    -0.381 N
HETATM   14  C2  UNL     1      60.801  63.317  51.787  1.00  0.00     0.157 C
HETATM   15  C1  UNL     1      60.327  64.675  52.290  1.00  0.00     0.169 C
HETATM   16  C20 UNL     1      59.221  64.245  53.256  1.00  0.00     0.186 C
HETATM   17  C19 UNL     1      59.817  63.021  53.868  1.00  0.00     0.093 C
BRANCH  15  18
HETATM   18  O1  UNL     1      59.834  65.455  51.250  1.00  0.00    -0.391 OA
ATOM     19  H1  UNL     1      60.460  66.122  50.992  1.00  0.00     0.210 HD
ENDBRANCH  15  18
BRANCH  16  20
HETATM   20  O4  UNL     1      58.961  65.261  54.171  1.00  0.00    -0.388 OA
ATOM     21  H4  UNL     1      58.138  65.098  54.618  1.00  0.00     0.210 HD
ENDBRANCH  16  20
ENDBRANCH  11  13
ENDBRANCH   1   8
BRANCH   6  22
HETATM   22  C14 UNL     1      59.658  58.576  46.474  1.00  0.00     0.076 A
HETATM   23  S1  UNL     1      57.929  58.657  46.324  1.00  0.00    -0.011 SA
HETATM   24  N3  UNL     1      57.815  59.125  44.719  1.00  0.00    -0.334 N
HETATM   25  C15 UNL     1      59.083  59.212  44.324  1.00  0.00     0.139 A
ATOM     26  H3  UNL     1      56.972  59.301  44.172  1.00  0.00     0.173 HD
HETATM   27  C16 UNL     1      60.043  58.931  45.225  1.00  0.00     0.151 A
HETATM   28  F1  UNL     1      61.382  59.007  44.860  1.00  0.00    -0.203 F
ENDBRANCH   6  22
BRANCH   5  29
HETATM   29  O3  UNL     1      60.783  56.047  46.686  1.00  0.00    -0.335 OA
BRANCH  29  30
HETATM   30  C9  UNL     1      61.966  55.712  45.985  1.00  0.00     0.182 C
BRANCH  30  31
HETATM   31  C10 UNL     1      61.751  55.625  44.491  1.00  0.00     0.010 A
HETATM   32  C11 UNL     1      62.891  55.007  43.666  1.00  0.00     0.007 A
HETATM   33  C12 UNL     1      61.552  54.314  43.875  1.00  0.00     0.007 A
ENDBRANCH  30  31
ENDBRANCH  29  30
ENDBRANCH   5  29
TORSDOF 8
ENDMDL