MODEL 2
REMARK VINA RESULT: -7.220708714      1.815      3.534
REMARK  8 active torsions:
REMARK  status: ('A' for Active; 'I' for Inactive)
REMARK    1  A    between atoms: O1_2  and  C2_3
REMARK    2  A    between atoms: C2_3  and  C3_4
REMARK    3  A    between atoms: C5_10  and  N3_11
REMARK    4  A    between atoms: N3_11  and  C6_13
REMARK    5  A    between atoms: C6_13  and  C7_14
REMARK    6  A    between atoms: C7_14  and  O2_15
REMARK    7  A    between atoms: C7_14  and  C8_17
REMARK    8  A    between atoms: C15_28  and  C16_29
ROOT
HETATM    1  C3  UNL     1      58.841  63.676  52.782  1.00  0.00     0.128 A
HETATM    2  N1  UNL     1      58.643  64.089  51.525  1.00  0.00    -0.285 N
ATOM      3  H1  UNL     1      58.150  64.940  51.252  1.00  0.00     0.188 HD
HETATM    4  N2  UNL     1      59.181  63.231  50.703  1.00  0.00    -0.281 N
ATOM      5  H2  UNL     1      59.167  63.319  49.687  1.00  0.00     0.188 HD
HETATM    6  C4  UNL     1      59.747  62.231  51.361  1.00  0.00     0.172 A
HETATM    7  C5  UNL     1      60.424  61.110  50.941  1.00  0.00     0.148 A
HETATM    8  N4  UNL     1      60.879  60.277  51.920  1.00  0.00    -0.341 N
ATOM      9  H4  UNL     1      61.386  59.435  51.651  1.00  0.00     0.167 HD
HETATM   10  C15 UNL     1      60.684  60.525  53.220  1.00  0.00     0.031 A
HETATM   11  C19 UNL     1      59.999  61.662  53.592  1.00  0.00     0.125 A
HETATM   12  N5  UNL     1      59.532  62.510  52.675  1.00  0.00    -0.288 N
ENDROOT
BRANCH   7  13
HETATM   13  N3  UNL     1      60.655  60.797  49.742  1.00  0.00    -0.371 N
ATOM     14  H3  UNL     1      60.009  61.209  49.069  1.00  0.00     0.161 HD
BRANCH  13  15
HETATM   15  C6  UNL     1      61.651  59.976  49.166  1.00  0.00     0.154 C
BRANCH  15  16
HETATM   16  C7  UNL     1      61.398  59.622  47.724  1.00  0.00     0.148 C
BRANCH  16  17
HETATM   17  O2  UNL     1      60.435  60.532  47.241  1.00  0.00    -0.393 OA
ATOM     18  H2  UNL     1      59.593  60.246  47.573  1.00  0.00     0.210 HD
ENDBRANCH  16  17
BRANCH  16  19
HETATM   19  C8  UNL     1      60.850  58.234  47.558  1.00  0.00     0.027 C
HETATM   20  C9  UNL     1      60.937  57.889  46.067  1.00  0.00     0.022 C
HETATM   21  C10 UNL     1      61.778  57.229  48.246  1.00  0.00     0.185 C
HETATM   22  O3  UNL     1      61.231  55.964  47.931  1.00  0.00    -0.355 OA
HETATM   23  C11 UNL     1      60.004  55.799  48.520  1.00  0.00     0.156 C
HETATM   24  C12 UNL     1      59.017  55.070  47.605  1.00  0.00     0.078 C
HETATM   25  C13 UNL     1      60.214  54.878  49.731  1.00  0.00     0.078 C
HETATM   26  O4  UNL     1      59.417  56.942  48.990  1.00  0.00    -0.355 OA
HETATM   27  C14 UNL     1      59.486  58.023  48.115  1.00  0.00     0.185 C
ENDBRANCH  16  19
ENDBRANCH  15  16
ENDBRANCH  13  15
ENDBRANCH   7  13
BRANCH  10  28
HETATM   28  C16 UNL     1      61.171  59.631  54.303  1.00  0.00     0.037 A
HETATM   29  C17 UNL     1      60.621  58.250  54.278  1.00  0.00     0.011 A
HETATM   30  C18 UNL     1      60.266  59.194  55.389  1.00  0.00     0.011 A
ENDBRANCH  10  28
BRANCH   1  31
HETATM   31  C2  UNL     1      58.410  64.326  54.032  1.00  0.00     0.245 C
BRANCH  31  32
HETATM   32  O1  UNL     1      59.129  65.449  54.341  1.00  0.00    -0.389 OA
HETATM   33  C1  UNL     1      60.451  65.445  54.002  1.00  0.00     0.202 C
ENDBRANCH  31  32
ENDBRANCH   1  31
TORSDOF 8
ENDMDL