MODEL 1
REMARK VINA RESULT: -6.483669646      0.000      0.000
REMARK  7 active torsions:
REMARK  status: ('A' for Active; 'I' for Inactive)
REMARK    1  A    between atoms: C2_2  and  O1_3
REMARK    2  A    between atoms: C2_2  and  C3_5
REMARK    3  A    between atoms: C2_2  and  C4_7
REMARK    4  A    between atoms: C4_7  and  O3_9
REMARK    5  A    between atoms: O3_9  and  C5_10
REMARK    6  A    between atoms: C9_16  and  C10_18
REMARK    7  A    between atoms: C15_25  and  C17_27
ROOT
HETATM    1  C5  UNL     1      60.002  56.774  46.676  1.00  0.00     0.299 C
HETATM    2  O4  UNL     1      59.593  58.096  46.833  1.00  0.00    -0.355 OA
HETATM    3  C6  UNL     1      60.676  58.894  46.544  1.00  0.00     0.211 C
HETATM    4  C7  UNL     1      61.563  59.157  47.734  1.00  0.00     0.109 C
HETATM    5  C8  UNL     1      62.524  60.256  47.323  1.00  0.00     0.051 C
HETATM    6  O5  UNL     1      60.856  59.583  48.832  1.00  0.00    -0.332 OA
HETATM    7  C9  UNL     1      61.380  58.941  49.953  1.00  0.00     0.233 C
HETATM    8  F1  UNL     1      62.579  59.628  50.221  1.00  0.00    -0.206 F
HETATM    9  C12 UNL     1      61.759  57.604  49.474  1.00  0.00     0.107 C
HETATM   10  C13 UNL     1      62.397  57.970  48.124  1.00  0.00     0.169 C
HETATM   11  O6  UNL     1      62.234  56.865  47.356  1.00  0.00    -0.371 OA
HETATM   12  C14 UNL     1      60.993  56.309  47.680  1.00  0.00     0.193 C
HETATM   13  C15 UNL     1      60.714  56.636  49.114  1.00  0.00     0.052 C
HETATM   14  C16 UNL     1      59.310  57.011  49.418  1.00  0.00     0.026 C
ENDROOT
BRANCH   1  15
HETATM   15  O3  UNL     1      58.917  55.889  46.503  1.00  0.00    -0.285 OA
BRANCH  15  16
HETATM   16  C4  UNL     1      59.069  54.646  45.908  1.00  0.00     0.296 C
HETATM   17  O2  UNL     1      59.782  54.585  44.864  1.00  0.00    -0.262 OA
BRANCH  16  18
HETATM   18  C2  UNL     1      58.468  53.402  46.395  1.00  0.00     0.150 C
HETATM   19  C1  UNL     1      58.847  52.194  45.588  1.00  0.00     0.057 C
BRANCH  18  20
HETATM   20  O1  UNL     1      58.900  53.196  47.713  1.00  0.00    -0.379 OA
ATOM     21  H1  UNL     1      58.267  53.597  48.297  1.00  0.00     0.211 HD
ENDBRANCH  18  20
BRANCH  18  22
HETATM   22  C3  UNL     1      56.960  53.473  46.439  1.00  0.00     0.134 C
HETATM   23  S1  UNL     1      56.171  52.513  45.149  1.00  0.00    -0.094 SA
ENDBRANCH  18  22
ENDBRANCH  16  18
ENDBRANCH  15  16
ENDBRANCH   1  15
BRANCH  13  24
HETATM   24  C17 UNL     1      60.982  55.382  49.886  1.00  0.00     0.243 C
HETATM   25  O7  UNL     1      60.143  54.508  49.951  1.00  0.00    -0.306 OA
ENDBRANCH  13  24
BRANCH   7  26
HETATM   26  C10 UNL     1      60.565  59.044  51.141  1.00  0.00     0.058 C
HETATM   27  C11 UNL     1      61.036  58.703  52.329  1.00  0.00     0.086 C
HETATM   28 CL1  UNL     1      60.039  58.828  53.792  1.00  0.00    -0.097 Cl
ENDBRANCH   7  26
TORSDOF 7
ENDMDL