MODEL 4
REMARK VINA RESULT: -7.723275410      2.127      2.578
REMARK  6 active torsions:
REMARK  status: ('A' for Active; 'I' for Inactive)
REMARK    1  A    between atoms: C2_3  and  O2_4
REMARK    2  A    between atoms: N1_7  and  C4_8
REMARK    3  A    between atoms: C9_13  and  N2_14
REMARK    4  A    between atoms: N3_17  and  C12_18
REMARK    5  A    between atoms: C12_18  and  C13_19
REMARK    6  A    between atoms: C13_19  and  C14_20
ROOT
HETATM    1  O1  UNL     1      60.391  57.584  54.706  1.00  0.00    -0.284 OA
HETATM    2  C1  UNL     1      60.436  58.501  53.881  1.00  0.00     0.218 A
HETATM    3  C2  UNL     1      60.377  59.825  54.263  1.00  0.00     0.132 A
HETATM    4  C3  UNL     1      60.430  60.839  53.304  1.00  0.00     0.132 A
HETATM    5  N1  UNL     1      60.538  60.512  52.005  1.00  0.00    -0.348 N
HETATM    6  C7  UNL     1      60.598  59.228  51.608  1.00  0.00     0.051 A
HETATM    7  C8  UNL     1      60.711  58.930  50.253  1.00  0.00     0.063 A
HETATM    8  C9  UNL     1      60.776  57.625  49.778  1.00  0.00     0.071 A
HETATM    9  C17 UNL     1      60.724  56.622  50.723  1.00  0.00     0.143 A
HETATM   10  F1  UNL     1      60.785  55.345  50.295  1.00  0.00    -0.204 F
HETATM   11  C18 UNL     1      60.612  56.896  52.078  1.00  0.00     0.062 A
HETATM   12  C19 UNL     1      60.547  58.193  52.541  1.00  0.00     0.047 A
ENDROOT
BRANCH   8  13
HETATM   13  N2  UNL     1      60.885  57.395  48.390  1.00  0.00    -0.375 N
HETATM   14  C10 UNL     1      59.779  57.165  47.490  1.00  0.00     0.153 C
HETATM   15  C11 UNL     1      60.209  57.510  46.085  1.00  0.00     0.292 C
HETATM   16  N3  UNL     1      61.356  56.794  45.641  1.00  0.00     0.092 N
HETATM   17  C15 UNL     1      62.122  56.262  46.737  1.00  0.00     0.292 C
HETATM   18  C16 UNL     1      62.203  57.379  47.790  1.00  0.00     0.153 C
BRANCH  16  19
HETATM   19  C12 UNL     1      61.103  55.766  44.678  1.00  0.00     0.280 C
BRANCH  19  20
HETATM   20  C13 UNL     1      61.867  56.059  43.410  1.00  0.00     0.109 C
BRANCH  20  21
HETATM   21  C14 UNL     1      62.958  55.033  43.269  1.00  0.00     0.114 A
HETATM   22  N4  UNL     1      62.836  53.693  43.206  1.00  0.00    -0.272 N
HETATM   23  N5  UNL     1      64.068  53.201  43.081  1.00  0.00    -0.227 N
ATOM     24  H4  UNL     1      61.968  53.159  43.247  1.00  0.00     0.190 HD
HETATM   25  N6  UNL     1      64.941  54.179  43.064  1.00  0.00    -0.227 N
ATOM     26  H5  UNL     1      64.298  52.210  43.009  1.00  0.00     0.210 HD
HETATM   27  N7  UNL     1      64.250  55.324  43.180  1.00  0.00    -0.272 N
ATOM     28  H6  UNL     1      65.953  54.088  42.979  1.00  0.00     0.210 HD
ATOM     29  H7  UNL     1      64.652  56.262  43.198  1.00  0.00     0.190 HD
ENDBRANCH  20  21
ENDBRANCH  19  20
ENDBRANCH  16  19
ENDBRANCH   8  13
BRANCH   5  30
HETATM   30  C4  UNL     1      60.586  61.536  50.958  1.00  0.00     0.090 A
HETATM   31  C5  UNL     1      60.939  62.931  51.535  1.00  0.00     0.028 A
HETATM   32  C6  UNL     1      59.575  62.690  51.063  1.00  0.00     0.028 A
ENDBRANCH   5  30
BRANCH   3  33
HETATM   33  O2  UNL     1      60.266  60.136  55.596  1.00  0.00    -0.356 OA
ATOM     34  H2  UNL     1      60.260  59.435  56.237  1.00  0.00     0.218 HD
ENDBRANCH   3  33
TORSDOF 6
ENDMDL