MODEL 1
REMARK VINA RESULT: -7.677110605      0.000      0.000
REMARK  8 active torsions:
REMARK  status: ('A' for Active; 'I' for Inactive)
REMARK       I    between atoms: N2_5  and  C3_6
REMARK    1  A    between atoms: C3_6  and  C4_8
REMARK    2  A    between atoms: C4_8  and  C5_9
REMARK    3  A    between atoms: C5_9  and  C6_10
REMARK    4  A    between atoms: C11_15  and  C12_16
REMARK    5  A    between atoms: C12_16  and  N3_18
REMARK    6  A    between atoms: C13_23  and  C14_24
REMARK    7  A    between atoms: C14_24  and  N6_25
REMARK    8  A    between atoms: C14_24  and  O2_29
ROOT
HETATM    1  C12 UNL     1      59.499  59.030  47.373  1.00  0.00     0.225 C
HETATM    2 BR1  UNL     1      58.922  57.515  48.449  1.00  0.00    -0.062 Br
ENDROOT
BRANCH   1   3
HETATM    3  C11 UNL     1      60.847  59.444  47.879  1.00  0.00     0.153 C
HETATM    4  N2  UNL     1      61.037  59.185  49.291  1.00  0.00    -0.253 N
HETATM    5  N1  UNL     1      61.739  58.003  49.402  1.00  0.00    -0.304 N
HETATM    6  C3  UNL     1      60.602  59.975  50.401  1.00  0.00     0.238 C
HETATM    7  C2  UNL     1      62.271  57.654  48.282  1.00  0.00     0.002 C
ATOM      8  H1  UNL     1      61.825  57.469  50.266  1.00  0.00     0.186 HD
HETATM    9  C1  UNL     1      63.082  56.419  48.119  1.00  0.00     0.065 C
HETATM   10  C15 UNL     1      61.956  58.655  47.208  1.00  0.00     0.084 C
HETATM   11  O1  UNL     1      59.966  61.039  50.142  1.00  0.00    -0.272 OA
BRANCH   6  12
HETATM   12  C4  UNL     1      60.885  59.574  51.764  1.00  0.00     0.105 C
BRANCH  12  13
HETATM   13  C5  UNL     1      60.647  60.489  52.889  1.00  0.00     0.014 C
BRANCH  13  14
HETATM   14  C6  UNL     1      61.319  60.274  54.181  1.00  0.00    -0.014 C
HETATM   15  C7  UNL     1      61.273  58.940  54.812  1.00  0.00     0.004 C
HETATM   16  C8  UNL     1      59.907  58.852  55.478  1.00  0.00     0.000 C
HETATM   17  C9  UNL     1      59.400  60.259  55.547  1.00  0.00     0.000 C
HETATM   18  C10 UNL     1      60.568  61.147  55.215  1.00  0.00     0.004 C
ENDBRANCH  13  14
ENDBRANCH  12  13
ENDBRANCH   6  12
ENDBRANCH   1   3
BRANCH   1  19
HETATM   19  N3  UNL     1      58.498  60.069  47.480  1.00  0.00    -0.201 N
HETATM   20  N4  UNL     1      58.713  61.360  47.504  1.00  0.00    -0.223 N
HETATM   21  N5  UNL     1      57.576  61.993  47.607  1.00  0.00    -0.268 N
ATOM     22  H4  UNL     1      59.629  61.803  47.452  1.00  0.00     0.210 HD
HETATM   23  C13 UNL     1      56.597  61.088  47.652  1.00  0.00     0.170 A
ATOM     24  H5  UNL     1      57.456  63.006  47.646  1.00  0.00     0.190 HD
HETATM   25  N7  UNL     1      57.195  59.887  47.571  1.00  0.00    -0.265 N
ATOM     26  H7  UNL     1      56.719  58.985  47.578  1.00  0.00     0.190 HD
BRANCH  23  27
HETATM   27  C14 UNL     1      55.124  61.330  47.767  1.00  0.00     0.387 C
BRANCH  27  28
HETATM   28  N6  UNL     1      54.480  60.035  47.686  1.00  0.00    -0.046 N
ATOM     29  H63 UNL     1      54.910  59.334  48.289  1.00  0.00     0.277 HD
ATOM     30  H62 UNL     1      53.553  60.021  48.112  1.00  0.00     0.277 HD
ATOM     31  H61 UNL     1      54.474  59.770  46.701  1.00  0.00     0.277 HD
ENDBRANCH  27  28
BRANCH  27  32
HETATM   32  O2  UNL     1      54.820  61.999  48.943  1.00  0.00    -0.364 OA
ATOM     33  H2  UNL     1      55.235  62.853  48.967  1.00  0.00     0.212 HD
ENDBRANCH  27  32
ENDBRANCH  23  27
ENDBRANCH   1  19
TORSDOF 8
ENDMDL