MODEL 2
REMARK VINA RESULT: -6.993159535      2.531      9.668
REMARK  8 active torsions:
REMARK  status: ('A' for Active; 'I' for Inactive)
REMARK    1  A    between atoms: C2_2  and  O1_3
REMARK    2  A    between atoms: C2_2  and  C3_5
REMARK    3  A    between atoms: C4_7  and  N1_8
REMARK    4  A    between atoms: C7_11  and  C8_12
REMARK    5  A    between atoms: C10_16  and  O3_17
REMARK    6  A    between atoms: O3_17  and  C11_18
REMARK    7  A    between atoms: C11_18  and  C12_19
REMARK    8  A    between atoms: C19_30  and  O5_31
ROOT
HETATM    1  N1  UNL     1      60.377  58.143  50.265  1.00  0.00     0.126 N
HETATM    2  C5  UNL     1      61.012  56.875  50.700  1.00  0.00     0.279 C
HETATM    3  C6  UNL     1      61.927  56.961  49.480  1.00  0.00     0.071 C
HETATM    4  C7  UNL     1      60.791  57.747  48.926  1.00  0.00     0.265 C
ENDROOT
BRANCH   4   5
HETATM    5  C8  UNL     1      59.875  57.034  48.069  1.00  0.00     0.029 A
HETATM    6  C9  UNL     1      60.127  55.753  47.655  1.00  0.00     0.104 A
HETATM    7  N2  UNL     1      59.300  55.062  46.803  1.00  0.00    -0.332 N
HETATM    8  C10 UNL     1      58.182  55.662  46.347  1.00  0.00     0.224 A
ATOM      9  H2  UNL     1      59.528  54.109  46.520  1.00  0.00     0.168 HD
HETATM   10  N3  UNL     1      57.942  56.912  46.757  1.00  0.00    -0.312 N
HETATM   11  C16 UNL     1      58.714  57.611  47.575  1.00  0.00     0.116 A
ATOM     12  H3  UNL     1      57.096  57.364  46.411  1.00  0.00     0.170 HD
HETATM   13 CL1  UNL     1      58.221  59.243  47.994  1.00  0.00    -0.064 Cl
BRANCH   8  14
HETATM   14  O3  UNL     1      57.336  54.997  45.492  1.00  0.00    -0.319 OA
BRANCH  14  15
HETATM   15  C11 UNL     1      57.628  53.869  44.731  1.00  0.00     0.210 C
BRANCH  15  16
HETATM   16  C12 UNL     1      57.426  52.595  45.487  1.00  0.00     0.145 C
HETATM   17  C13 UNL     1      56.992  51.492  44.511  1.00  0.00     0.036 C
HETATM   18  C14 UNL     1      58.273  50.764  44.175  1.00  0.00     0.029 C
HETATM   19  C15 UNL     1      59.305  51.550  44.962  1.00  0.00     0.168 C
HETATM   20  O4  UNL     1      58.636  52.129  46.018  1.00  0.00    -0.384 OA
ENDBRANCH  15  16
ENDBRANCH  14  15
ENDBRANCH   8  14
ENDBRANCH   4   5
BRANCH   1  21
HETATM   21  C4  UNL     1      61.196  59.237  50.830  1.00  0.00     0.360 C
HETATM   22  O2  UNL     1      61.268  59.211  52.192  1.00  0.00    -0.346 OA
HETATM   23  C3  UNL     1      60.463  60.025  52.914  1.00  0.00     0.181 C
HETATM   24  C19 UNL     1      60.203  61.390  52.360  1.00  0.00     0.149 C
HETATM   25  C18 UNL     1      61.225  61.637  51.269  1.00  0.00     0.038 C
HETATM   26  C17 UNL     1      60.921  60.570  50.207  1.00  0.00     0.067 C
BRANCH  23  27
HETATM   27  C2  UNL     1      61.113  60.150  54.303  1.00  0.00     0.145 C
HETATM   28  C1  UNL     1      61.695  58.839  54.767  1.00  0.00     0.042 C
BRANCH  27  29
HETATM   29  O1  UNL     1      60.061  60.457  55.183  1.00  0.00    -0.393 OA
ATOM     30  H1  UNL     1      60.348  61.199  55.702  1.00  0.00     0.210 HD
ENDBRANCH  27  29
ENDBRANCH  23  27
BRANCH  24  31
HETATM   31  O5  UNL     1      60.178  62.400  53.298  1.00  0.00    -0.393 OA
ATOM     32  H5  UNL     1      59.326  62.797  53.435  1.00  0.00     0.210 HD
ENDBRANCH  24  31
ENDBRANCH   1  21
TORSDOF 8
ENDMDL