MODEL 4
REMARK VINA RESULT: -6.503811797      5.709     10.033
REMARK  7 active torsions:
REMARK  status: ('A' for Active; 'I' for Inactive)
REMARK    1  A    between atoms: C2_2  and  N1_3
REMARK    2  A    between atoms: N1_3  and  C3_4
REMARK    3  A    between atoms: N1_3  and  C19_30
REMARK    4  A    between atoms: C4_7  and  O1_8
REMARK    5  A    between atoms: O1_8  and  C5_9
REMARK    6  A    between atoms: C12_17  and  N4_18
REMARK    7  A    between atoms: C16_23  and  O2_24
ROOT
HETATM    1  C3  UNL     1      62.072  54.603  43.782  1.00  0.00     0.688 A
HETATM    2  N2  UNL     1      60.943  53.902  43.662  1.00  0.00    -0.170 N
ATOM      3  H2  UNL     1      60.839  53.279  42.862  1.00  0.00     0.186 HD
HETATM    4  C4  UNL     1      59.916  53.981  44.565  1.00  0.00     0.161 A
HETATM    5  C11 UNL     1      60.105  54.832  45.620  1.00  0.00     0.105 A
HETATM    6  C12 UNL     1      61.275  55.576  45.767  1.00  0.00     0.123 A
HETATM    7  N5  UNL     1      62.236  55.442  44.839  1.00  0.00    -0.176 N
ATOM      8  H5  UNL     1      63.100  55.976  44.927  1.00  0.00     0.186 HD
ENDROOT
BRANCH   6   9
HETATM    9  N4  UNL     1      61.433  56.445  46.881  1.00  0.00    -0.360 N
HETATM   10  C13 UNL     1      61.259  57.875  46.813  1.00  0.00     0.128 C
HETATM   11  C14 UNL     1      61.017  58.409  48.191  1.00  0.00     0.060 C
HETATM   12  C15 UNL     1      62.220  58.152  49.062  1.00  0.00     0.202 C
HETATM   13  F1  UNL     1      61.856  58.471  50.372  1.00  0.00    -0.247 F
HETATM   14  C16 UNL     1      62.720  56.750  48.966  1.00  0.00     0.174 C
HETATM   15  C17 UNL     1      61.796  55.859  48.157  1.00  0.00     0.113 C
HETATM   16  C18 UNL     1      60.616  55.421  48.966  1.00  0.00     0.035 C
BRANCH  14  17
HETATM   17  O2  UNL     1      64.002  56.675  48.430  1.00  0.00    -0.391 OA
ATOM     18  H2  UNL     1      63.997  56.548  47.489  1.00  0.00     0.210 HD
ENDBRANCH  14  17
ENDBRANCH   6   9
BRANCH   4  19
HETATM   19  O1  UNL     1      58.780  53.254  44.414  1.00  0.00    -0.330 OA
BRANCH  19  20
HETATM   20  C5  UNL     1      58.606  52.222  43.531  1.00  0.00     0.134 C
HETATM   21  C6  UNL     1      58.441  50.865  44.204  1.00  0.00     0.062 C
HETATM   22  C7  UNL     1      57.435  50.012  43.512  1.00  0.00     0.274 C
HETATM   23  N3  UNL     1      57.438  50.155  42.076  1.00  0.00     0.084 N
HETATM   24  C8  UNL     1      56.278  49.400  41.585  1.00  0.00     0.309 C
HETATM   25  C9  UNL     1      57.239  51.520  41.649  1.00  0.00     0.274 C
HETATM   26  C10 UNL     1      57.249  52.452  42.830  1.00  0.00     0.062 C
ENDBRANCH  19  20
ENDBRANCH   4  19
BRANCH   1  27
HETATM   27  N1  UNL     1      63.130  54.513  42.840  1.00  0.00    -0.190 N
BRANCH  27  28
HETATM   28  C2  UNL     1      64.361  53.883  43.232  1.00  0.00     0.099 C
HETATM   29  C1  UNL     1      64.626  52.690  42.780  1.00  0.00     0.030 C
ENDBRANCH  27  28
BRANCH  27  30
HETATM   30  C19 UNL     1      63.094  55.003  41.496  1.00  0.00     0.099 C
HETATM   31  C20 UNL     1      62.677  56.462  41.424  1.00  0.00     0.033 C
HETATM   32  C21 UNL     1      62.318  54.216  40.508  1.00  0.00     0.033 C
ENDBRANCH  27  30
ENDBRANCH   1  27
TORSDOF 7
ENDMDL