MODEL 2
REMARK VINA RESULT: -8.552612736      2.706      4.195
REMARK  7 active torsions:
REMARK  status: ('A' for Active; 'I' for Inactive)
REMARK    1  A    between atoms: O1_1  and  C1_3
REMARK    2  A    between atoms: C3_5  and  N1_6
REMARK    3  A    between atoms: N2_9  and  C6_10
REMARK    4  A    between atoms: C6_10  and  C7_11
REMARK    5  A    between atoms: C16_21  and  C17_22
REMARK    6  A    between atoms: N3_23  and  N4_25
REMARK    7  A    between atoms: C21_31  and  O4_32
ROOT
HETATM    1  C1  UNL     1      60.611  58.333  53.618  1.00  0.00     0.101 A
HETATM    2  C2  UNL     1      60.479  57.516  52.511  1.00  0.00     0.068 A
HETATM    3  C3  UNL     1      60.478  58.038  51.247  1.00  0.00     0.034 A
HETATM    4  C15 UNL     1      60.613  59.419  51.112  1.00  0.00     0.045 A
HETATM    5  C16 UNL     1      60.743  60.227  52.192  1.00  0.00     0.019 A
HETATM    6  C21 UNL     1      60.743  59.690  53.468  1.00  0.00     0.110 A
ENDROOT
BRANCH   3   7
HETATM    7  N1  UNL     1      60.353  57.268  50.071  1.00  0.00    -0.378 N
HETATM    8  C4  UNL     1      61.133  56.094  49.822  1.00  0.00     0.142 C
HETATM    9  C5  UNL     1      60.123  54.965  49.583  1.00  0.00     0.137 C
HETATM   10  N2  UNL     1      59.277  55.245  48.487  1.00  0.00    -0.405 N
HETATM   11  C13 UNL     1      59.299  56.564  47.980  1.00  0.00     0.137 C
HETATM   12  C14 UNL     1      59.400  57.638  49.032  1.00  0.00     0.142 C
BRANCH  10  13
HETATM   13  C6  UNL     1      58.013  54.583  48.494  1.00  0.00     0.155 C
BRANCH  13  14
HETATM   14  C7  UNL     1      57.911  53.735  47.281  1.00  0.00    -0.041 A
HETATM   15  C8  UNL     1      58.985  53.072  46.731  1.00  0.00     0.012 A
HETATM   16  C9  UNL     1      58.851  52.287  45.592  1.00  0.00     0.043 A
HETATM   17  C10 UNL     1      57.627  52.153  44.984  1.00  0.00     0.116 A
HETATM   18  F1  UNL     1      57.509  51.373  43.859  1.00  0.00    -0.206 F
HETATM   19  C11 UNL     1      56.547  52.804  45.516  1.00  0.00     0.043 A
HETATM   20  C12 UNL     1      56.688  53.575  46.637  1.00  0.00     0.012 A
ENDBRANCH  13  14
ENDBRANCH  10  13
ENDBRANCH   3   7
BRANCH   1  21
HETATM   21  O1  UNL     1      60.599  57.701  54.848  1.00  0.00    -0.358 OA
ATOM     22  H1  UNL     1      60.606  58.267  55.611  1.00  0.00     0.217 HD
ENDBRANCH   1  21
BRANCH   5  23
HETATM   23  C17 UNL     1      60.885  61.689  52.008  1.00  0.00     0.123 C
HETATM   24  N3  UNL     1      60.231  62.455  52.774  1.00  0.00    -0.289 N
ATOM     25  H3  UNL     1      59.641  62.010  53.478  1.00  0.00     0.188 HD
BRANCH  24  26
HETATM   26  N4  UNL     1      60.240  63.835  52.749  1.00  0.00    -0.195 N
HETATM   27  C18 UNL     1      59.869  64.541  51.557  1.00  0.00     0.203 C
HETATM   28  C19 UNL     1      58.699  65.455  51.941  1.00  0.00     0.194 C
HETATM   29  O2  UNL     1      58.452  65.209  53.294  1.00  0.00    -0.363 OA
HETATM   30  C20 UNL     1      59.575  65.453  54.087  1.00  0.00     0.371 C
HETATM   31  O3  UNL     1      60.596  64.521  53.840  1.00  0.00    -0.237 OA
ENDBRANCH  24  26
ENDBRANCH   5  23
BRANCH   6  32
HETATM   32  O4  UNL     1      60.875  60.519  54.557  1.00  0.00    -0.357 OA
ATOM     33  H4  UNL     1      61.714  60.638  54.986  1.00  0.00     0.217 HD
ENDBRANCH   6  32
TORSDOF 7
ENDMDL