MODEL 4
REMARK VINA RESULT: -7.429997687      2.976      3.685
REMARK  6 active torsions:
REMARK  status: ('A' for Active; 'I' for Inactive)
REMARK    1  A    between atoms: C2_2  and  N1_4
REMARK    2  A    between atoms: N1_4  and  C4_5
REMARK    3  A    between atoms: N1_4  and  C7_14
REMARK    4  A    between atoms: C4_5  and  C5_6
REMARK    5  A    between atoms: N4_18  and  C11_19
REMARK    6  A    between atoms: C13_23  and  C14_24
ROOT
HETATM    1  C7  UNL     1      58.645  57.851  46.533  1.00  0.00     0.241 C
HETATM    2  C8  UNL     1      59.720  58.180  45.591  1.00  0.00     0.039 C
HETATM    3  C9  UNL     1      60.947  58.852  46.104  1.00  0.00     0.022 C
HETATM    4  C10 UNL     1      61.133  58.761  47.576  1.00  0.00     0.124 C
HETATM    5  N4  UNL     1      59.907  59.112  48.232  1.00  0.00    -0.363 N
HETATM    6  C19 UNL     1      58.712  58.376  47.922  1.00  0.00     0.160 C
ENDROOT
BRANCH   5   7
HETATM    7  C11 UNL     1      59.929  60.186  49.183  1.00  0.00     0.133 A
HETATM    8  C12 UNL     1      60.911  60.282  50.133  1.00  0.00     0.139 A
HETATM    9  N5  UNL     1      60.936  61.257  51.048  1.00  0.00    -0.351 N
HETATM   10  C13 UNL     1      59.960  62.228  51.077  1.00  0.00     0.100 A
ATOM     11  H5  UNL     1      61.690  61.283  51.734  1.00  0.00     0.166 HD
HETATM   12  N7  UNL     1      59.011  62.121  50.144  1.00  0.00    -0.287 N
HETATM   13  N8  UNL     1      58.977  61.145  49.222  1.00  0.00    -0.283 N
ATOM     14  H7  UNL     1      58.269  62.822  50.130  1.00  0.00     0.188 HD
ATOM     15  H8  UNL     1      58.220  61.127  48.540  1.00  0.00     0.188 HD
BRANCH  10  16
HETATM   16  C14 UNL     1      60.027  63.269  52.112  1.00  0.00     0.058 C
HETATM   17  C15 UNL     1      59.072  64.406  51.812  1.00  0.00     0.040 C
HETATM   18  C16 UNL     1      59.191  65.455  52.925  1.00  0.00     0.233 C
HETATM   19  N6  UNL     1      58.774  64.821  54.158  1.00  0.00    -0.075 N
HETATM   20  C17 UNL     1      59.762  63.825  54.517  1.00  0.00     0.233 C
ATOM     21  H62 UNL     1      58.605  65.493  54.906  1.00  0.00     0.277 HD
ATOM     22  H61 UNL     1      57.831  64.436  54.102  1.00  0.00     0.277 HD
HETATM   23  C18 UNL     1      59.832  62.711  53.474  1.00  0.00     0.040 C
ENDBRANCH  10  16
ENDBRANCH   5   7
BRANCH   1  24
HETATM   24  N1  UNL     1      58.278  56.442  46.581  1.00  0.00     0.105 N
BRANCH  24  25
HETATM   25  C2  UNL     1      57.303  56.034  45.630  1.00  0.00     0.216 C
HETATM   26  C1  UNL     1      56.134  55.250  46.051  1.00  0.00     0.042 C
HETATM   27  C3  UNL     1      58.023  55.281  44.504  1.00  0.00     0.042 C
ENDBRANCH  24  25
BRANCH  24  28
HETATM   28  C4  UNL     1      59.476  55.614  46.552  1.00  0.00     0.351 C
BRANCH  28  29
HETATM   29  C5  UNL     1      59.641  54.940  47.852  1.00  0.00     0.135 A
HETATM   30  N2  UNL     1      59.099  53.823  48.369  1.00  0.00    -0.287 N
HETATM   31  C6  UNL     1      59.566  53.636  49.622  1.00  0.00     0.388 A
ATOM     32  H2  UNL     1      58.438  53.213  47.890  1.00  0.00     0.172 HD
HETATM   33  O1  UNL     1      59.297  52.700  50.449  1.00  0.00    -0.236 OA
HETATM   34  O2  UNL     1      60.380  54.618  49.865  1.00  0.00    -0.179 OA
HETATM   35  N3  UNL     1      60.449  55.400  48.861  1.00  0.00    -0.242 N
ATOM     36  H3  UNL     1      61.021  56.243  48.813  1.00  0.00     0.196 HD
ENDBRANCH  28  29
ENDBRANCH  24  28
ENDBRANCH   1  24
TORSDOF 6
ENDMDL