MODEL 1
REMARK VINA RESULT: -7.197494626      0.000      0.000
REMARK  7 active torsions:
REMARK  status: ('A' for Active; 'I' for Inactive)
REMARK    1  A    between atoms: C4_5  and  S2_6
REMARK    2  A    between atoms: S2_6  and  C5_7
REMARK    3  A    between atoms: C5_7  and  C6_8
REMARK    4  A    between atoms: C6_8  and  O1_9
REMARK    5  A    between atoms: C6_8  and  C7_11
REMARK    6  A    between atoms: C7_11  and  N1_12
REMARK    7  A    between atoms: N4_23  and  C12_24
ROOT
HETATM    1  N1  UNL     1      60.637  60.243  50.879  1.00  0.00    -0.325 N
HETATM    2  C8  UNL     1      60.085  61.084  49.933  1.00  0.00     0.185 A
HETATM    3  N2  UNL     1      59.615  62.163  50.522  1.00  0.00    -0.345 N
ATOM      4  H2  UNL     1      59.159  62.941  50.046  1.00  0.00     0.167 HD
HETATM    5  C9  UNL     1      59.826  62.084  51.821  1.00  0.00     0.147 A
HETATM    6  C10 UNL     1      59.524  62.879  52.895  1.00  0.00     0.280 A
HETATM    7  O2  UNL     1      58.947  63.975  52.688  1.00  0.00    -0.265 OA
HETATM    8  N3  UNL     1      59.842  62.492  54.140  1.00  0.00    -0.273 N
ATOM      9  H3  UNL     1      59.611  63.097  54.928  1.00  0.00     0.173 HD
HETATM   10  C11 UNL     1      60.462  61.317  54.369  1.00  0.00     0.331 A
HETATM   11  O3  UNL     1      60.706  61.052  55.595  1.00  0.00    -0.246 OA
HETATM   12  N4  UNL     1      60.777  60.512  53.338  1.00  0.00    -0.278 N
HETATM   13  C15 UNL     1      60.474  60.863  52.049  1.00  0.00     0.148 A
ENDROOT
BRANCH   1  14
HETATM   14  C7  UNL     1      61.284  59.058  50.515  1.00  0.00     0.164 C
BRANCH  14  15
HETATM   15  C6  UNL     1      62.090  59.189  49.221  1.00  0.00     0.145 C
BRANCH  15  16
HETATM   16  C5  UNL     1      62.364  57.888  48.563  1.00  0.00     0.108 C
BRANCH  16  17
HETATM   17  S2  UNL     1      61.183  57.407  47.305  1.00  0.00    -0.149 SA
BRANCH  17  18
HETATM   18  C4  UNL     1      60.727  55.672  47.400  1.00  0.00     0.131 C
HETATM   19  S1  UNL     1      60.218  55.216  49.105  1.00  0.00    -0.147 SA
HETATM   20  C3  UNL     1      58.664  54.326  48.680  1.00  0.00     0.110 C
HETATM   21  C2  UNL     1      58.887  54.139  47.226  1.00  0.00    -0.060 C
HETATM   22  C1  UNL     1      58.644  53.040  46.544  1.00  0.00     0.016 C
HETATM   23  C16 UNL     1      59.434  55.394  46.662  1.00  0.00     0.134 C
HETATM   24 CL1  UNL     1      59.675  55.264  44.921  1.00  0.00    -0.118 Cl
ENDBRANCH  17  18
ENDBRANCH  16  17
ENDBRANCH  15  16
BRANCH  15  25
HETATM   25  O1  UNL     1      63.191  59.966  49.261  1.00  0.00    -0.393 OA
ATOM     26  H1  UNL     1      63.618  59.924  50.109  1.00  0.00     0.210 HD
ENDBRANCH  15  25
ENDBRANCH  14  15
ENDBRANCH   1  14
BRANCH  12  27
HETATM   27  C12 UNL     1      61.389  59.262  53.607  1.00  0.00     0.096 A
HETATM   28  C13 UNL     1      61.427  58.497  54.850  1.00  0.00     0.028 A
HETATM   29  C14 UNL     1      60.491  58.038  53.807  1.00  0.00     0.028 A
ENDBRANCH  12  27
TORSDOF 7
ENDMDL