MODEL 5
REMARK VINA RESULT: -7.834124327      3.167      7.774
REMARK  6 active torsions:
REMARK  status: ('A' for Active; 'I' for Inactive)
REMARK       I    between atoms: C1_4  and  N3_6
REMARK    1  A    between atoms: C3_10  and  C4_11
REMARK    2  A    between atoms: C7_14  and  N5_15
REMARK    3  A    between atoms: N5_15  and  C8_17
REMARK    4  A    between atoms: C8_17  and  N6_19
REMARK    5  A    between atoms: N6_19  and  N7_21
REMARK    6  A    between atoms: C9_23  and  C10_24
ROOT
HETATM    1  C4  UNL     1       2.597  34.242  -2.464  1.00  0.00    -0.008 A
HETATM    2  C5  UNL     1       3.695  34.293  -1.639  1.00  0.00     0.016 A
HETATM    3  C6  UNL     1       4.775  35.160  -1.888  1.00  0.00     0.030 A
HETATM    4  C7  UNL     1       4.775  35.993  -2.973  1.00  0.00     0.034 A
HETATM    5  C14 UNL     1       3.640  35.924  -3.807  1.00  0.00     0.030 A
HETATM    6  C15 UNL     1       2.588  35.076  -3.560  1.00  0.00     0.016 A
ENDROOT
BRANCH   4   7
HETATM    7  N5  UNL     1       5.813  36.874  -3.341  1.00  0.00    -0.332 N
ATOM      8  H5  UNL     1       6.180  36.767  -4.287  1.00  0.00     0.168 HD
BRANCH   7   9
HETATM    9  C8  UNL     1       6.398  37.878  -2.563  1.00  0.00     0.191 C
HETATM   10  S1  UNL     1       7.780  37.617  -1.742  1.00  0.00    -0.039 SA
BRANCH   9  11
HETATM   11  N6  UNL     1       5.790  39.196  -2.506  1.00  0.00    -0.276 N
ATOM     12  H6  UNL     1       5.836  39.834  -3.300  1.00  0.00     0.189 HD
BRANCH  11  13
HETATM   13  N7  UNL     1       5.149  39.555  -1.342  1.00  0.00    -0.308 N
HETATM   14  C9  UNL     1       3.945  39.549  -1.027  1.00  0.00     0.126 C
ATOM     15  H7  UNL     1       5.773  39.884  -0.606  1.00  0.00     0.186 HD
BRANCH  14  16
HETATM   16  C10 UNL     1       2.793  39.140  -1.837  1.00  0.00     0.021 A
HETATM   17  C11 UNL     1       1.766  38.288  -1.550  1.00  0.00     0.021 A
HETATM   18  C12 UNL     1       0.830  38.089  -2.485  1.00  0.00     0.008 A
HETATM   19  C13 UNL     1       0.964  38.753  -3.670  1.00  0.00     0.050 A
HETATM   20  S2  UNL     1       2.399  39.642  -3.448  1.00  0.00    -0.101 SA
ENDBRANCH  14  16
ENDBRANCH  11  13
ENDBRANCH   9  11
ENDBRANCH   7   9
ENDBRANCH   4   7
BRANCH   1  21
HETATM   21  C3  UNL     1       1.474  33.333  -2.198  1.00  0.00     0.059 A
HETATM   22  N4  UNL     1       1.598  32.070  -1.751  1.00  0.00    -0.350 N
HETATM   23  C2  UNL     1       0.397  31.492  -1.603  1.00  0.00     0.191 A
ATOM     24  H4  UNL     1       2.488  31.612  -1.552  1.00  0.00     0.166 HD
HETATM   25  N3  UNL     1      -0.508  32.418  -1.967  1.00  0.00    -0.291 N
HETATM   26  C1  UNL     1      -1.900  32.231  -1.964  1.00  0.00     0.193 C
HETATM   27  C16 UNL     1       0.138  33.555  -2.336  1.00  0.00     0.130 A
HETATM   28  N1  UNL     1      -2.584  32.657  -2.971  1.00  0.00    -0.373 N
HETATM   29  N2  UNL     1      -2.536  31.593  -0.886  1.00  0.00    -0.063 NA
ATOM     30  H12 UNL     1      -3.594  32.522  -2.969  1.00  0.00     0.158 HD
ATOM     31  H11 UNL     1      -2.123  33.121  -3.754  1.00  0.00     0.158 HD
ENDBRANCH   1  21
TORSDOF 6
ENDMDL