MODEL 5
REMARK VINA RESULT: -7.135071981      1.168      1.257
REMARK  6 active torsions:
REMARK  status: ('A' for Active; 'I' for Inactive)
REMARK    1  A    between atoms: C2_2  and  C3_3
REMARK    2  A    between atoms: C3_3  and  C5_5
REMARK    3  A    between atoms: C6_9  and  O1_10
REMARK    4  A    between atoms: C14_19  and  O2_20
REMARK    5  A    between atoms: O2_20  and  C15_21
REMARK    6  A    between atoms: C19_26  and  O4_27
ROOT
HETATM    1  C5  UNL     1       5.193  37.459  -1.500  1.00  0.00     0.204 C
HETATM    2  N1  UNL     1       5.663  38.856  -1.562  1.00  0.00    -0.043 N
ATOM      3  H11 UNL     1       6.621  38.939  -1.905  1.00  0.00     0.280 HD
ATOM      4  H12 UNL     1       5.816  39.266  -0.640  1.00  0.00     0.280 HD
HETATM    5  C6  UNL     1       4.720  39.596  -2.355  1.00  0.00     0.324 C
HETATM    6  C7  UNL     1       4.052  38.553  -3.181  1.00  0.00     0.055 C
HETATM    7  C8  UNL     1       2.750  39.042  -3.688  1.00  0.00     0.010 C
HETATM    8  C9  UNL     1       1.697  37.994  -3.727  1.00  0.00     0.009 C
HETATM    9  C10 UNL     1       2.268  36.578  -3.837  1.00  0.00     0.031 C
HETATM   10  C11 UNL     1       1.103  35.661  -3.884  1.00  0.00    -0.014 C
HETATM   11  C12 UNL     1      -0.202  36.319  -3.385  1.00  0.00     0.018 C
HETATM   12  C13 UNL     1       0.716  35.314  -5.345  1.00  0.00     0.018 C
HETATM   13  C14 UNL     1       1.174  34.357  -3.186  1.00  0.00     0.140 C
HETATM   14  C17 UNL     1       2.596  33.940  -2.934  1.00  0.00     0.036 C
HETATM   15  C18 UNL     1       3.117  35.084  -2.045  1.00  0.00     0.041 C
HETATM   16  C19 UNL     1       3.402  36.271  -2.932  1.00  0.00     0.072 C
HETATM   17  C20 UNL     1       3.939  37.423  -2.141  1.00  0.00     0.024 C
HETATM   18  C21 UNL     1       2.857  37.923  -1.142  1.00  0.00     0.021 C
ENDROOT
BRANCH   1  19
HETATM   19  C3  UNL     1       6.359  36.586  -1.560  1.00  0.00     0.013 C
HETATM   20  C4  UNL     1       7.667  37.264  -1.932  1.00  0.00     0.012 C
BRANCH  19  21
HETATM   21  C2  UNL     1       6.661  35.874  -0.255  1.00  0.00     0.002 C
HETATM   22  C1  UNL     1       5.561  35.569   0.660  1.00  0.00     0.005 C
ENDBRANCH  19  21
ENDBRANCH   1  19
BRANCH   5  23
HETATM   23  O1  UNL     1       5.351  40.487  -3.252  1.00  0.00    -0.369 OA
ATOM     24  H1  UNL     1       5.644  40.055  -4.046  1.00  0.00     0.212 HD
ENDBRANCH   5  23
BRANCH  16  25
HETATM   25  O4  UNL     1       4.490  35.869  -3.738  1.00  0.00    -0.389 OA
ATOM     26  H4  UNL     1       4.999  36.646  -3.938  1.00  0.00     0.210 HD
ENDBRANCH  16  25
BRANCH  13  27
HETATM   27  O2  UNL     1       0.377  33.401  -3.799  1.00  0.00    -0.316 OA
BRANCH  27  28
HETATM   28  C15 UNL     1      -0.544  32.588  -3.202  1.00  0.00     0.255 C
HETATM   29  C16 UNL     1      -2.022  32.784  -3.335  1.00  0.00     0.126 C
HETATM   30  O3  UNL     1      -0.141  31.646  -2.518  1.00  0.00    -0.266 OA
ENDBRANCH  27  28
ENDBRANCH  13  27
TORSDOF 6
ENDMDL