MODEL 5
REMARK VINA RESULT: -7.703524821      1.739      2.134
REMARK  5 active torsions:
REMARK  status: ('A' for Active; 'I' for Inactive)
REMARK    1  A    between atoms: N1_2  and  C2_5
REMARK    2  A    between atoms: C2_5  and  O1_6
REMARK    3  A    between atoms: C2_5  and  C3_8
REMARK    4  A    between atoms: C4_9  and  N2_10
REMARK       I    between atoms: N2_10  and  C5_12
REMARK    5  A    between atoms: C5_12  and  C6_14
ROOT
HETATM    1  C3  UNL     1       1.564  36.246  -4.046  1.00  0.00     0.041 A
HETATM    2  C4  UNL     1       2.000  35.087  -3.462  1.00  0.00     0.089 A
HETATM    3  S1  UNL     1       3.724  35.413  -3.277  1.00  0.00    -0.054 SA
HETATM    4  C12 UNL     1       3.774  36.971  -3.926  1.00  0.00     0.080 A
HETATM    5  C13 UNL     1       2.457  37.225  -4.286  1.00  0.00    -0.001 A
HETATM    6  C14 UNL     1       1.913  38.563  -4.866  1.00  0.00     0.122 C
HETATM    7  C15 UNL     1       2.903  39.541  -4.533  1.00  0.00    -0.178 C
HETATM    8  C16 UNL     1       3.635  40.682  -4.370  1.00  0.00     0.081 C
HETATM    9  C17 UNL     1       5.038  40.217  -3.838  1.00  0.00     0.031 C
HETATM   10  C18 UNL     1       5.528  38.948  -4.422  1.00  0.00     0.121 C
HETATM   11  N3  UNL     1       5.057  37.681  -3.954  1.00  0.00    -0.384 N
ATOM     12  H3  UNL     1       5.805  37.131  -3.532  1.00  0.00     0.160 HD
ENDROOT
BRANCH   2  13
HETATM   13  N2  UNL     1       1.388  33.958  -2.854  1.00  0.00    -0.320 N
HETATM   14  C5  UNL     1       0.492  32.997  -3.277  1.00  0.00     0.227 C
HETATM   15  O2  UNL     1      -0.094  32.850  -4.373  1.00  0.00    -0.273 OA
ATOM     16  H2  UNL     1       1.676  33.829  -1.884  1.00  0.00     0.169 HD
BRANCH  14  17
HETATM   17  C6  UNL     1       0.136  31.910  -2.252  1.00  0.00     0.085 C
HETATM   18  C7  UNL     1       0.909  32.119  -0.995  1.00  0.00     0.015 C
HETATM   19  C8  UNL     1       0.411  31.126   0.024  1.00  0.00     0.008 C
HETATM   20  C9  UNL     1      -0.950  31.619   0.493  1.00  0.00     0.078 C
HETATM   21  C10 UNL     1      -1.796  31.967  -0.678  1.00  0.00     0.127 C
HETATM   22  O3  UNL     1      -2.920  32.368  -0.473  1.00  0.00    -0.298 OA
HETATM   23  C11 UNL     1      -1.341  31.848  -2.079  1.00  0.00     0.092 C
ENDBRANCH  14  17
ENDBRANCH   2  13
BRANCH   1  24
HETATM   24  C2  UNL     1       0.127  36.337  -4.574  1.00  0.00     0.356 C
BRANCH  24  25
HETATM   25  N1  UNL     1      -0.120  35.414  -5.669  1.00  0.00    -0.049 N
HETATM   26  C1  UNL     1      -0.037  36.057  -6.956  1.00  0.00     0.270 C
ATOM     27  H12 UNL     1      -1.015  34.937  -5.553  1.00  0.00     0.280 HD
ATOM     28  H11 UNL     1       0.502  34.608  -5.619  1.00  0.00     0.280 HD
ENDBRANCH  24  25
BRANCH  24  29
HETATM   29  O1  UNL     1      -0.745  35.776  -3.581  1.00  0.00    -0.366 OA
ATOM     30  H1  UNL     1      -0.100  35.416  -2.984  1.00  0.00     0.212 HD
ENDBRANCH  24  29
ENDBRANCH   1  24
TORSDOF 5
ENDMDL