MODEL 5
REMARK VINA RESULT: -7.562684991      4.826      7.632
REMARK  7 active torsions:
REMARK  status: ('A' for Active; 'I' for Inactive)
REMARK    1  A    between atoms: O1_2  and  C2_3
REMARK    2  A    between atoms: C2_3  and  C3_5
REMARK    3  A    between atoms: C4_10  and  C5_11
REMARK    4  A    between atoms: C5_11  and  O3_12
REMARK    5  A    between atoms: C5_11  and  C6_14
REMARK    6  A    between atoms: C6_14  and  N3_15
REMARK    7  A    between atoms: C6_14  and  C7_19
ROOT
HETATM    1  C6  UNL     1       4.470  36.015  -1.329  1.00  0.00     0.223 C
ENDROOT
BRANCH   1   2
HETATM    2  C5  UNL     1       4.432  37.506  -1.379  1.00  0.00     0.217 C
BRANCH   2   3
HETATM    3  C4  UNL     1       3.714  38.079  -0.217  1.00  0.00     0.129 A
HETATM    4  N2  UNL     1       3.590  37.461   0.969  1.00  0.00    -0.285 N
HETATM    5  N1  UNL     1       2.896  38.222   1.807  1.00  0.00    -0.279 N
ATOM      6  H2  UNL     1       3.974  36.543   1.192  1.00  0.00     0.188 HD
HETATM    7  C3  UNL     1       2.563  39.353   1.155  1.00  0.00     0.198 A
ATOM      8  H1  UNL     1       2.657  37.992   2.771  1.00  0.00     0.189 HD
HETATM    9  N4  UNL     1       3.069  39.248  -0.073  1.00  0.00    -0.323 N
ATOM     10  H4  UNL     1       2.979  39.956  -0.801  1.00  0.00     0.169 HD
BRANCH   7  11
HETATM   11  C2  UNL     1       1.794  40.433   1.758  1.00  0.00     0.328 C
HETATM   12  O2  UNL     1       1.952  41.609   1.352  1.00  0.00    -0.256 OA
BRANCH  11  13
HETATM   13  O1  UNL     1       0.883  40.211   2.774  1.00  0.00    -0.320 OA
HETATM   14  C1  UNL     1       0.247  41.244   3.494  1.00  0.00     0.213 C
ENDBRANCH  11  13
ENDBRANCH   7  11
ENDBRANCH   2   3
BRANCH   2  15
HETATM   15  O3  UNL     1       5.648  38.117  -1.605  1.00  0.00    -0.386 OA
ATOM     16  H3  UNL     1       6.170  37.661  -2.256  1.00  0.00     0.210 HD
ENDBRANCH   2  15
ENDBRANCH   1   2
BRANCH   1  17
HETATM   17  N3  UNL     1       5.587  35.556  -2.136  1.00  0.00    -0.072 N
ATOM     18  H33 UNL     1       6.040  36.315  -2.645  1.00  0.00     0.274 HD
ATOM     19  H32 UNL     1       6.387  35.270  -1.572  1.00  0.00     0.274 HD
ATOM     20  H31 UNL     1       5.257  34.813  -2.752  1.00  0.00     0.274 HD
ENDBRANCH   1  17
BRANCH   1  21
HETATM   21  C7  UNL     1       3.195  35.324  -1.719  1.00  0.00     0.019 C
HETATM   22  C8  UNL     1       2.314  36.046  -2.658  1.00  0.00     0.007 C
HETATM   23  C9  UNL     1       2.867  36.322  -4.019  1.00  0.00     0.000 C
HETATM   24  C10 UNL     1       1.674  36.306  -4.983  1.00  0.00     0.000 C
HETATM   25  C11 UNL     1       1.522  34.983  -5.660  1.00  0.00     0.000 C
HETATM   26  C12 UNL     1       0.050  34.722  -5.895  1.00  0.00     0.000 C
HETATM   27  C13 UNL     1      -0.396  33.379  -5.401  1.00  0.00     0.000 C
HETATM   28  C14 UNL     1      -1.048  33.459  -4.031  1.00  0.00     0.000 C
HETATM   29  C15 UNL     1      -0.737  32.234  -3.196  1.00  0.00     0.000 C
HETATM   30  C16 UNL     1       0.105  32.549  -1.994  1.00  0.00     0.000 C
HETATM   31  C17 UNL     1       1.556  32.221  -2.289  1.00  0.00     0.000 C
HETATM   32  C18 UNL     1       2.497  32.927  -1.360  1.00  0.00     0.000 C
HETATM   33  C19 UNL     1       3.431  33.875  -2.083  1.00  0.00     0.007 C
ENDBRANCH   1  21
TORSDOF 7
ENDMDL