MODEL 1
REMARK VINA RESULT: -8.061812920      0.000      0.000
REMARK  5 active torsions:
REMARK  status: ('A' for Active; 'I' for Inactive)
REMARK    1  A    between atoms: C1_4  and  C2_6
REMARK    2  A    between atoms: N4_16  and  C9_17
REMARK    3  A    between atoms: C16_27  and  C17_28
REMARK    4  A    between atoms: C17_28  and  C18_29
REMARK    5  A    between atoms: C18_29  and  O1_30
ROOT
HETATM    1  C2  UNL     1       4.508  36.098  -2.328  1.00  0.00     0.047 A
HETATM    2  C3  UNL     1       4.021  36.840  -3.365  1.00  0.00     0.033 A
HETATM    3  C4  UNL     1       2.930  36.355  -4.014  1.00  0.00    -0.007 A
HETATM    4  C5  UNL     1       2.418  35.169  -3.566  1.00  0.00     0.043 A
HETATM    5  S1  UNL     1       3.451  34.767  -2.281  1.00  0.00    -0.084 SA
HETATM    6  C6  UNL     1       1.285  34.342  -3.990  1.00  0.00     0.078 A
HETATM    7  C7  UNL     1       0.559  34.491  -5.183  1.00  0.00     0.064 A
HETATM    8  N3  UNL     1      -0.356  33.558  -5.188  1.00  0.00    -0.352 N
ATOM      9  H3  UNL     1      -1.047  33.398  -5.922  1.00  0.00     0.166 HD
HETATM   10  C8  UNL     1      -0.226  32.848  -4.059  1.00  0.00     0.184 A
HETATM   11  N4  UNL     1       0.806  33.331  -3.293  1.00  0.00    -0.335 N
HETATM   12  C15 UNL     1       0.824  35.547  -6.199  1.00  0.00     0.292 C
HETATM   13  N5  UNL     1       0.994  36.780  -5.459  1.00  0.00    -0.061 N
ATOM     14  H51 UNL     1       0.454  36.751  -4.594  1.00  0.00     0.278 HD
ATOM     15  H52 UNL     1       0.521  37.547  -5.936  1.00  0.00     0.278 HD
HETATM   16  C16 UNL     1       2.338  37.126  -5.186  1.00  0.00     0.222 C
ENDROOT
BRANCH  11  17
HETATM   17  C9  UNL     1       1.231  32.834  -2.023  1.00  0.00     0.091 C
HETATM   18  C10 UNL     1       2.251  31.750  -2.045  1.00  0.00     0.026 C
HETATM   19  C11 UNL     1       1.677  30.348  -1.824  1.00  0.00     0.002 C
HETATM   20  C12 UNL     1       1.043  30.192  -0.484  1.00  0.00     0.000 C
HETATM   21  C13 UNL     1       0.447  31.545  -0.093  1.00  0.00     0.002 C
HETATM   22  C14 UNL     1      -0.034  32.145  -1.428  1.00  0.00     0.026 C
ENDBRANCH  11  17
BRANCH  16  23
HETATM   23  C17 UNL     1       3.253  37.069  -6.372  1.00  0.00     0.064 C
BRANCH  23  24
HETATM   24  C18 UNL     1       4.030  38.336  -6.454  1.00  0.00     0.166 C
BRANCH  24  25
HETATM   25  O1  UNL     1       5.401  38.148  -6.229  1.00  0.00    -0.401 OA
ATOM     26  H1  UNL     1       5.899  38.071  -7.034  1.00  0.00     0.209 HD
ENDBRANCH  24  25
ENDBRANCH  23  24
ENDBRANCH  16  23
BRANCH   1  27
HETATM   27  C1  UNL     1       5.668  36.400  -1.470  1.00  0.00     0.127 C
HETATM   28  N1  UNL     1       5.539  36.284  -0.191  1.00  0.00    -0.387 N
ATOM     29  H12 UNL     1       6.342  36.493   0.402  1.00  0.00     0.157 HD
ATOM     30  H11 UNL     1       4.674  35.993   0.266  1.00  0.00     0.157 HD
HETATM   31  N2  UNL     1       6.860  36.800  -2.098  1.00  0.00    -0.082 NA
ENDBRANCH   1  27
TORSDOF 5
ENDMDL