MODEL 4
REMARK VINA RESULT: -7.533041121      1.820      3.556
REMARK  6 active torsions:
REMARK  status: ('A' for Active; 'I' for Inactive)
REMARK    1  A    between atoms: C5_5  and  N1_6
REMARK    2  A    between atoms: N1_6  and  C6_8
REMARK    3  A    between atoms: C6_8  and  O1_9
REMARK    4  A    between atoms: C6_8  and  C7_11
REMARK    5  A    between atoms: N2_13  and  C9_14
REMARK    6  A    between atoms: N4_24  and  C16_25
ROOT
HETATM    1  C7  UNL     1       4.437  35.280  -2.307  1.00  0.00     0.092 A
HETATM    2  C8  UNL     1       3.160  35.370  -1.814  1.00  0.00     0.148 A
HETATM    3  N2  UNL     1       2.806  34.207  -2.390  1.00  0.00    -0.258 N
HETATM    4  N5  UNL     1       4.012  34.133  -2.850  1.00  0.00    -0.292 N
ATOM      5  H5  UNL     1       4.480  33.437  -3.428  1.00  0.00     0.187 HD
ENDROOT
BRANCH   3   6
HETATM    6  C9  UNL     1       1.654  33.440  -2.368  1.00  0.00     0.150 A
HETATM    7  C10 UNL     1       0.678  33.553  -3.314  1.00  0.00     0.073 A
HETATM    8  C11 UNL     1      -0.420  32.686  -3.245  1.00  0.00    -0.012 A
HETATM    9  N4  UNL     1       0.469  34.435  -4.420  1.00  0.00    -0.370 N
HETATM   10  C12 UNL     1      -0.538  31.744  -2.258  1.00  0.00     0.101 A
HETATM   11  C14 UNL     1      -1.304  32.986  -4.415  1.00  0.00     0.062 C
HETATM   12  N3  UNL     1       0.406  31.640  -1.340  1.00  0.00    -0.331 N
HETATM   13  C13 UNL     1       1.470  32.444  -1.373  1.00  0.00     0.276 A
ATOM     14  H3  UNL     1       0.322  30.941  -0.603  1.00  0.00     0.168 HD
HETATM   15  O2  UNL     1       2.343  32.303  -0.477  1.00  0.00    -0.266 OA
HETATM   16  C15 UNL     1      -0.235  33.541  -5.379  1.00  0.00     0.128 C
BRANCH   9  17
HETATM   17  C16 UNL     1       0.809  35.813  -4.553  1.00  0.00     0.022 C
HETATM   18  C17 UNL     1       2.105  36.127  -5.231  1.00  0.00     0.037 C
HETATM   19  C18 UNL     1      -0.202  36.219  -5.715  1.00  0.00     0.037 C
HETATM   20  C19 UNL     1       0.360  36.754  -3.497  1.00  0.00     0.037 C
ENDBRANCH   9  17
ENDBRANCH   3   6
BRANCH   1  21
HETATM   21  C6  UNL     1       5.647  36.112  -2.224  1.00  0.00     0.273 C
BRANCH  21  22
HETATM   22  N1  UNL     1       5.985  36.737  -3.478  1.00  0.00    -0.349 N
ATOM     23  H1  UNL     1       6.765  36.378  -4.029  1.00  0.00     0.163 HD
BRANCH  22  24
HETATM   24  C5  UNL     1       5.237  37.853  -3.952  1.00  0.00     0.075 C
HETATM   25  C4  UNL     1       5.479  38.450  -5.280  1.00  0.00     0.078 C
HETATM   26  C3  UNL     1       4.178  39.144  -5.601  1.00  0.00     0.032 C
HETATM   27  C2  UNL     1       3.773  39.579  -4.180  1.00  0.00     0.079 C
HETATM   28  C1  UNL     1       4.503  40.881  -3.924  1.00  0.00     0.032 C
HETATM   29  N6  UNL     1       4.303  38.490  -3.378  1.00  0.00    -0.376 N
ATOM     30  H6  UNL     1       3.958  38.261  -2.445  1.00  0.00     0.161 HD
ENDBRANCH  22  24
ENDBRANCH  21  22
BRANCH  21  31
HETATM   31  O1  UNL     1       5.519  37.124  -1.259  1.00  0.00    -0.371 OA
ATOM     32  H1  UNL     1       5.547  36.715  -0.402  1.00  0.00     0.212 HD
ENDBRANCH  21  31
ENDBRANCH   1  21
TORSDOF 6
ENDMDL