MODEL 4
REMARK VINA RESULT: -7.596746552      1.839      2.467
REMARK  5 active torsions:
REMARK  status: ('A' for Active; 'I' for Inactive)
REMARK    1  A    between atoms: C2_2  and  C4_4
REMARK    2  A    between atoms: C5_5  and  N1_6
REMARK    3  A    between atoms: C11_17  and  N4_18
REMARK    4  A    between atoms: N4_18  and  C12_20
REMARK    5  A    between atoms: C18_26  and  C19_27
ROOT
HETATM    1  C4  UNL     1       1.888  37.111  -4.408  1.00  0.00     0.015 A
HETATM    2  C5  UNL     1       1.440  36.835  -3.125  1.00  0.00     0.113 A
HETATM    3  N3  UNL     1       0.525  35.887  -2.885  1.00  0.00    -0.328 N
ATOM      4  H3  UNL     1       0.239  35.735  -1.917  1.00  0.00     0.169 HD
HETATM    5  C11 UNL     1      -0.042  35.125  -3.830  1.00  0.00     0.122 A
HETATM    6  C18 UNL     1       0.344  35.333  -5.122  1.00  0.00     0.109 A
HETATM    7  C20 UNL     1       1.320  36.341  -5.393  1.00  0.00     0.077 A
HETATM    8  N5  UNL     1       1.643  36.436  -6.790  1.00  0.00    -0.100 NA
ENDROOT
BRANCH   2   9
HETATM    9  N1  UNL     1       1.898  37.555  -2.023  1.00  0.00    -0.365 N
HETATM   10  C6  UNL     1       3.070  37.039  -1.397  1.00  0.00     0.126 C
HETATM   11  C7  UNL     1       3.589  38.070  -0.373  1.00  0.00     0.047 C
HETATM   12  C8  UNL     1       3.942  39.354  -1.080  1.00  0.00     0.234 C
HETATM   13  N2  UNL     1       2.838  40.259  -0.954  1.00  0.00    -0.074 N
HETATM   14  C9  UNL     1       1.863  40.019  -1.995  1.00  0.00     0.252 C
ATOM     15  H22 UNL     1       2.418  40.217  -0.025  1.00  0.00     0.277 HD
ATOM     16  H21 UNL     1       3.146  41.230  -0.940  1.00  0.00     0.277 HD
HETATM   17  C10 UNL     1       1.146  38.730  -1.682  1.00  0.00     0.152 C
ENDBRANCH   2   9
BRANCH   1  18
HETATM   18  C2  UNL     1       2.906  38.065  -4.716  1.00  0.00     0.016 C
HETATM   19  C1  UNL     1       2.466  39.237  -5.531  1.00  0.00     0.015 C
HETATM   20  C3  UNL     1       4.202  37.593  -5.273  1.00  0.00     0.015 C
ENDBRANCH   1  18
BRANCH   5  21
HETATM   21  N4  UNL     1      -1.011  34.185  -3.455  1.00  0.00    -0.371 N
ATOM     22  H4  UNL     1      -1.884  34.161  -3.982  1.00  0.00     0.161 HD
BRANCH  21  23
HETATM   23  C12 UNL     1      -0.849  33.243  -2.359  1.00  0.00     0.083 C
HETATM   24  C13 UNL     1      -2.155  32.545  -2.103  1.00  0.00     0.025 C
HETATM   25  C14 UNL     1      -1.877  31.413  -1.119  1.00  0.00     0.002 C
HETATM   26  C15 UNL     1      -0.609  31.667  -0.338  1.00  0.00     0.000 C
HETATM   27  C16 UNL     1       0.627  31.725  -1.181  1.00  0.00     0.002 C
HETATM   28  C17 UNL     1       0.190  32.199  -2.581  1.00  0.00     0.025 C
ENDBRANCH  21  23
ENDBRANCH   5  21
BRANCH   6  29
HETATM   29  C19 UNL     1      -0.174  34.567  -6.243  1.00  0.00     0.215 C
HETATM   30  O1  UNL     1      -0.440  35.038  -7.350  1.00  0.00    -0.644 OA
HETATM   31  O2  UNL     1      -0.409  33.191  -6.122  1.00  0.00    -0.644 OA
ENDBRANCH   6  29
TORSDOF 5
ENDMDL