MODEL 1
REMARK VINA RESULT: -7.603174114      0.000      0.000
REMARK  6 active torsions:
REMARK  status: ('A' for Active; 'I' for Inactive)
REMARK    1  A    between atoms: C2_2  and  O1_4
REMARK    2  A    between atoms: O1_4  and  C4_5
REMARK    3  A    between atoms: C6_7  and  C7_8
REMARK    4  A    between atoms: N1_10  and  C9_11
REMARK    5  A    between atoms: C17_19  and  N2_20
REMARK    6  A    between atoms: C20_31  and  N6_32
ROOT
HETATM    1  C7  UNL     1       2.258  35.813  -3.118  1.00  0.00     0.074 A
HETATM    2  C8  UNL     1       2.320  37.169  -2.897  1.00  0.00     0.139 A
HETATM    3  N1  UNL     1       3.620  37.565  -3.006  1.00  0.00    -0.280 N
HETATM    4  N3  UNL     1       4.311  36.471  -3.283  1.00  0.00    -0.020 NA
HETATM    5  N4  UNL     1       3.517  35.417  -3.353  1.00  0.00    -0.282 N
ATOM      6  H4  UNL     1       3.813  34.462  -3.554  1.00  0.00     0.184 HD
ENDROOT
BRANCH   1   7
HETATM    7  C6  UNL     1       1.109  34.922  -3.113  1.00  0.00     0.011 A
HETATM    8  C5  UNL     1       1.190  33.615  -2.724  1.00  0.00     0.055 A
HETATM    9  C4  UNL     1       0.080  32.737  -2.714  1.00  0.00     0.113 A
HETATM   10  C20 UNL     1      -1.131  33.246  -3.120  1.00  0.00     0.132 A
HETATM   11  N5  UNL     1      -1.205  34.537  -3.503  1.00  0.00    -0.350 N
HETATM   12  C19 UNL     1      -0.143  35.361  -3.508  1.00  0.00     0.103 A
ATOM     13  H5  UNL     1      -2.108  34.905  -3.803  1.00  0.00     0.166 HD
BRANCH   9  14
HETATM   14  O1  UNL     1       0.276  31.474  -2.313  1.00  0.00    -0.343 OA
BRANCH  14  15
HETATM   15  C2  UNL     1       0.534  30.733  -1.226  1.00  0.00     0.121 C
HETATM   16  C1  UNL     1       0.308  31.472   0.099  1.00  0.00     0.040 C
HETATM   17  C3  UNL     1       2.007  30.291  -1.162  1.00  0.00     0.040 C
ENDBRANCH  14  15
ENDBRANCH   9  14
BRANCH  10  18
HETATM   18  N6  UNL     1      -2.215  32.511  -3.145  1.00  0.00    -0.383 N
ATOM     19  H62 UNL     1      -2.465  32.026  -4.006  1.00  0.00     0.157 HD
ATOM     20  H61 UNL     1      -2.816  32.412  -2.326  1.00  0.00     0.157 HD
ENDBRANCH  10  18
ENDBRANCH   1   7
BRANCH   3  21
HETATM   21  C9  UNL     1       4.165  38.901  -2.854  1.00  0.00     0.108 C
HETATM   22  C10 UNL     1       5.631  38.783  -2.559  1.00  0.00     0.027 C
HETATM   23  C11 UNL     1       6.261  40.001  -2.008  1.00  0.00     0.009 C
HETATM   24  C12 UNL     1       5.405  41.192  -1.854  1.00  0.00     0.021 C
HETATM   25  C13 UNL     1       5.585  42.146  -3.045  1.00  0.00     0.007 C
HETATM   26  C17 UNL     1       3.967  40.957  -1.569  1.00  0.00     0.129 C
HETATM   27  C14 UNL     1       4.858  43.437  -2.818  1.00  0.00     0.001 C
HETATM   28  C15 UNL     1       3.425  43.199  -2.357  1.00  0.00     0.002 C
HETATM   29  C16 UNL     1       3.136  41.730  -2.593  1.00  0.00     0.039 C
HETATM   30  C18 UNL     1       3.532  39.526  -1.633  1.00  0.00     0.066 C
BRANCH  26  31
HETATM   31  N2  UNL     1       3.549  41.477  -0.265  1.00  0.00    -0.070 N
ATOM     32  H23 UNL     1       3.403  40.717   0.400  1.00  0.00     0.275 HD
ATOM     33  H22 UNL     1       4.319  41.959   0.198  1.00  0.00     0.275 HD
ATOM     34  H21 UNL     1       2.725  42.075  -0.320  1.00  0.00     0.275 HD
ENDBRANCH  26  31
ENDBRANCH   3  21
TORSDOF 6
ENDMDL