MODEL 4
REMARK VINA RESULT: -7.561583777      3.026      6.859
REMARK  7 active torsions:
REMARK  status: ('A' for Active; 'I' for Inactive)
REMARK    1  A    between atoms: C2_2  and  C4_4
REMARK    2  A    between atoms: C4_4  and  N1_5
REMARK    3  A    between atoms: N1_5  and  C5_7
REMARK    4  A    between atoms: C5_7  and  C6_12
REMARK    5  A    between atoms: N2_8  and  O1_10
REMARK    6  A    between atoms: C9_15  and  N3_16
REMARK    7  A    between atoms: C16_25  and  N5_26
ROOT
HETATM    1  C6  UNL     1       0.016  33.317  -2.944  1.00  0.00     0.053 A
HETATM    2  C7  UNL     1       0.456  34.600  -3.151  1.00  0.00     0.041 A
HETATM    3  C8  UNL     1       1.735  34.881  -2.835  1.00  0.00     0.044 A
HETATM    4  C9  UNL     1       2.397  36.116  -2.956  1.00  0.00     0.132 A
HETATM    5  N4  UNL     1       3.691  36.194  -2.582  1.00  0.00    -0.176 N
ATOM      6  H4  UNL     1       4.149  37.100  -2.681  1.00  0.00     0.186 HD
HETATM    7  C16 UNL     1       4.420  35.202  -2.098  1.00  0.00     0.678 A
HETATM    8  N6  UNL     1       3.800  34.009  -1.973  1.00  0.00    -0.185 N
ATOM      9  H6  UNL     1       4.316  33.210  -1.605  1.00  0.00     0.185 HD
HETATM   10  C17 UNL     1       2.487  33.854  -2.333  1.00  0.00     0.105 A
HETATM   11  S1  UNL     1       1.399  32.544  -2.317  1.00  0.00    -0.067 SA
ENDROOT
BRANCH   1  12
HETATM   12  C5  UNL     1      -1.336  32.796  -3.203  1.00  0.00     0.138 C
HETATM   13  N2  UNL     1      -1.670  32.511  -4.409  1.00  0.00    -0.252 N
ATOM     14  H2  UNL     1      -2.618  32.149  -4.518  1.00  0.00     0.196 HD
BRANCH  12  15
HETATM   15  N1  UNL     1      -2.242  32.611  -2.126  1.00  0.00    -0.373 N
ATOM     16  H1  UNL     1      -2.956  33.314  -1.935  1.00  0.00     0.161 HD
BRANCH  15  17
HETATM   17  C4  UNL     1      -2.156  31.437  -1.304  1.00  0.00     0.125 C
BRANCH  17  18
HETATM   18  C2  UNL     1      -2.075  31.842   0.174  1.00  0.00    -0.005 C
HETATM   19  C1  UNL     1      -0.637  31.672   0.624  1.00  0.00     0.011 C
HETATM   20  C3  UNL     1      -2.908  30.892   0.996  1.00  0.00     0.011 C
ENDBRANCH  17  18
ENDBRANCH  15  17
ENDBRANCH  12  15
BRANCH  13  21
HETATM   21  O1  UNL     1      -0.976  32.614  -5.542  1.00  0.00    -0.288 OA
ATOM     22  H1  UNL     1      -1.267  32.584  -6.446  1.00  0.00     0.244 HD
ENDBRANCH  13  21
ENDBRANCH   1  12
BRANCH   4  23
HETATM   23  N3  UNL     1       1.761  37.285  -3.419  1.00  0.00    -0.366 N
HETATM   24  C10 UNL     1       1.094  38.195  -2.520  1.00  0.00     0.124 C
HETATM   25  C11 UNL     1       1.479  39.640  -2.847  1.00  0.00     0.020 C
HETATM   26  C12 UNL     1       0.744  40.037  -4.123  1.00  0.00     0.002 C
HETATM   27  C13 UNL     1       1.730  39.991  -5.259  1.00  0.00     0.002 C
HETATM   28  C14 UNL     1       2.583  38.765  -5.188  1.00  0.00     0.020 C
HETATM   29  C15 UNL     1       1.842  37.509  -4.867  1.00  0.00     0.124 C
ENDBRANCH   4  23
BRANCH   7  30
HETATM   30  N5  UNL     1       5.645  35.373  -1.765  1.00  0.00    -0.234 N
ATOM     31  H52 UNL     1       6.105  36.281  -1.831  1.00  0.00     0.174 HD
ATOM     32  H51 UNL     1       6.216  34.602  -1.421  1.00  0.00     0.174 HD
ENDBRANCH   7  30
TORSDOF 7
ENDMDL