MODEL 5
REMARK VINA RESULT: -6.485802849      4.945      6.909
REMARK  6 active torsions:
REMARK  status: ('A' for Active; 'I' for Inactive)
REMARK    1  A    between atoms: C5_5  and  N1_6
REMARK    2  A    between atoms: N1_6  and  C6_8
REMARK    3  A    between atoms: C7_11  and  N3_12
REMARK    4  A    between atoms: C9_19  and  N5_20
REMARK    5  A    between atoms: N5_20  and  N6_22
REMARK    6  A    between atoms: N6_22  and  N7_23
ROOT
HETATM    1  C6  UNL     1      36.714  33.464  -4.950  1.00  0.00     0.152 A
HETATM    2  N2  UNL     1      37.024  34.299  -5.930  1.00  0.00    -0.175 N
ATOM      3  H2  UNL     1      37.815  34.928  -5.796  1.00  0.00     0.186 HD
HETATM    4  C7  UNL     1      36.350  34.363  -7.092  1.00  0.00     0.680 A
HETATM    5  N4  UNL     1      35.309  33.532  -7.262  1.00  0.00    -0.154 N
ATOM      6  H4  UNL     1      34.789  33.568  -8.138  1.00  0.00     0.187 HD
HETATM    7  C8  UNL     1      34.925  32.646  -6.312  1.00  0.00     0.292 A
HETATM    8  O1  UNL     1      33.941  31.887  -6.521  1.00  0.00    -0.265 OA
HETATM    9  C9  UNL     1      35.634  32.610  -5.141  1.00  0.00     0.175 A
ENDROOT
BRANCH   1  10
HETATM   10  N1  UNL     1      37.402  33.380  -3.714  1.00  0.00    -0.369 N
ATOM     11  H1  UNL     1      37.970  32.552  -3.540  1.00  0.00     0.161 HD
BRANCH  10  12
HETATM   12  C5  UNL     1      37.350  34.389  -2.689  1.00  0.00     0.083 C
HETATM   13  C4  UNL     1      38.624  35.228  -2.801  1.00  0.00     0.025 C
HETATM   14  C3  UNL     1      38.461  36.349  -1.774  1.00  0.00     0.006 C
HETATM   15  C2  UNL     1      37.482  37.328  -2.378  1.00  0.00    -0.019 C
HETATM   16  C1  UNL     1      38.278  38.285  -3.274  1.00  0.00     0.010 C
HETATM   17  C11 UNL     1      36.463  36.669  -3.253  1.00  0.00     0.006 C
HETATM   18  C10 UNL     1      36.124  35.267  -2.847  1.00  0.00     0.025 C
ENDBRANCH  10  12
ENDBRANCH   1  10
BRANCH   9  19
HETATM   19  N5  UNL     1      35.263  31.694  -4.117  1.00  0.00    -0.207 N
ATOM     20  H5  UNL     1      35.710  30.781  -4.034  1.00  0.00     0.204 HD
BRANCH  19  21
HETATM   21  N6  UNL     1      34.381  32.050  -3.337  1.00  0.00    -0.243 NA
BRANCH  21  22
HETATM   22  N7  UNL     1      33.457  32.334  -2.575  1.00  0.00    -0.260 N
ATOM     23  H72 UNL     1      33.635  31.347  -2.387  1.00  0.00     0.193 HD
ATOM     24  H71 UNL     1      32.694  32.634  -1.969  1.00  0.00     0.193 HD
ENDBRANCH  21  22
ENDBRANCH  19  21
ENDBRANCH   9  19
BRANCH   4  25
HETATM   25  N3  UNL     1      36.701  35.198  -8.007  1.00  0.00    -0.234 N
ATOM     26  H32 UNL     1      37.304  35.994  -7.799  1.00  0.00     0.174 HD
ATOM     27  H31 UNL     1      36.379  35.080  -8.968  1.00  0.00     0.174 HD
ENDBRANCH   4  25
TORSDOF 6
ENDMDL