MODEL 5
REMARK VINA RESULT: -7.323226646      4.686      9.587
REMARK  5 active torsions:
REMARK  status: ('A' for Active; 'I' for Inactive)
REMARK    1  A    between atoms: C3_4  and  C4_5
REMARK    2  A    between atoms: C7_8  and  N2_9
REMARK    3  A    between atoms: N2_9  and  C8_11
REMARK    4  A    between atoms: C11_14  and  C12_15
REMARK    5  A    between atoms: N4_17  and  N5_19
ROOT
HETATM    1  N1  UNL     1      33.642  31.145  -0.202  1.00  0.00    -0.192 NA
HETATM    2  C1  UNL     1      33.746  31.614  -1.269  1.00  0.00     0.087 C
HETATM    3  C2  UNL     1      33.874  32.208  -2.561  1.00  0.00     0.094 C
HETATM    4  C3  UNL     1      35.014  32.738  -2.919  1.00  0.00     0.022 C
ENDROOT
BRANCH   4   5
HETATM    5  C4  UNL     1      35.280  33.376  -4.207  1.00  0.00    -0.035 A
HETATM    6  C5  UNL     1      35.479  34.739  -4.286  1.00  0.00     0.013 A
HETATM    7  C6  UNL     1      35.735  35.414  -5.471  1.00  0.00     0.030 A
HETATM    8  C7  UNL     1      35.802  34.720  -6.655  1.00  0.00     0.032 A
HETATM    9  C15 UNL     1      35.599  33.329  -6.579  1.00  0.00     0.030 A
HETATM   10  C16 UNL     1      35.347  32.680  -5.391  1.00  0.00     0.013 A
BRANCH   8  11
HETATM   11  N2  UNL     1      36.030  35.294  -7.917  1.00  0.00    -0.356 N
ATOM     12  H2  UNL     1      35.225  35.457  -8.521  1.00  0.00     0.166 HD
BRANCH  11  13
HETATM   13  C8  UNL     1      37.301  35.656  -8.399  1.00  0.00     0.032 A
HETATM   14  C9  UNL     1      37.632  35.301  -9.724  1.00  0.00     0.030 A
HETATM   15  C10 UNL     1      38.840  35.655 -10.260  1.00  0.00     0.017 A
HETATM   16  C11 UNL     1      39.800  36.380  -9.533  1.00  0.00     0.006 A
HETATM   17  C13 UNL     1      39.459  36.712  -8.255  1.00  0.00     0.017 A
HETATM   18  C14 UNL     1      38.244  36.365  -7.695  1.00  0.00     0.030 A
BRANCH  16  19
HETATM   19  C12 UNL     1      41.061  36.717 -10.175  1.00  0.00     0.140 C
HETATM   20  N3  UNL     1      41.099  37.970 -10.901  1.00  0.00    -0.080 NA
HETATM   21  N4  UNL     1      42.128  36.057 -10.181  1.00  0.00    -0.294 N
ATOM     22  H4  UNL     1      42.869  36.519 -10.708  1.00  0.00     0.187 HD
BRANCH  21  23
HETATM   23  N5  UNL     1      42.529  34.871  -9.650  1.00  0.00    -0.344 N
ATOM     24  H52 UNL     1      42.556  34.141 -10.362  1.00  0.00     0.176 HD
ATOM     25  H51 UNL     1      42.803  34.552  -8.721  1.00  0.00     0.176 HD
ENDBRANCH  21  23
ENDBRANCH  16  19
ENDBRANCH  11  13
ENDBRANCH   8  11
ENDBRANCH   4   5
TORSDOF 5
ENDMDL