MODEL 4
REMARK VINA RESULT: -7.417432798      4.180      4.951
REMARK  6 active torsions:
REMARK  status: ('A' for Active; 'I' for Inactive)
REMARK       I    between atoms: C1_2  and  N1_3
REMARK    1  A    between atoms: C1_2  and  O4_18
REMARK    2  A    between atoms: N1_3  and  C2_5
REMARK    3  A    between atoms: C5_8  and  C6_9
REMARK    4  A    between atoms: C6_9  and  O2_10
REMARK    5  A    between atoms: N2_12  and  O3_14
REMARK    6  A    between atoms: O4_18  and  C9_19
ROOT
HETATM    1  C2  UNL     1      35.728  32.267  -3.378  1.00  0.00     0.036 A
HETATM    2  C3  UNL     1      36.207  31.552  -2.311  1.00  0.00     0.030 A
HETATM    3  C4  UNL     1      35.426  31.064  -1.289  1.00  0.00     0.018 A
HETATM    4  C5  UNL     1      34.048  31.313  -1.336  1.00  0.00     0.017 A
HETATM    5  C7  UNL     1      33.514  32.021  -2.374  1.00  0.00     0.018 A
HETATM    6  C8  UNL     1      34.347  32.490  -3.380  1.00  0.00     0.030 A
ENDROOT
BRANCH   1   7
HETATM    7  N1  UNL     1      36.469  32.786  -4.441  1.00  0.00    -0.303 N
HETATM    8  C1  UNL     1      36.897  34.117  -4.645  1.00  0.00     0.365 C
HETATM    9  O1  UNL     1      36.682  35.090  -3.890  1.00  0.00    -0.238 OA
ATOM     10  H1  UNL     1      36.736  32.117  -5.163  1.00  0.00     0.171 HD
BRANCH   8  11
HETATM   11  O4  UNL     1      37.639  34.458  -5.781  1.00  0.00    -0.298 OA
BRANCH  11  12
HETATM   12  C9  UNL     1      37.149  35.266  -6.812  1.00  0.00     0.133 C
HETATM   13  C10 UNL     1      36.644  34.476  -7.995  1.00  0.00     0.032 C
HETATM   14  C11 UNL     1      37.421  35.025  -9.178  1.00  0.00     0.002 C
HETATM   15  C12 UNL     1      37.705  36.453  -8.774  1.00  0.00     0.002 C
HETATM   16  C13 UNL     1      38.137  36.267  -7.321  1.00  0.00     0.032 C
ENDBRANCH  11  12
ENDBRANCH   8  11
ENDBRANCH   1   7
BRANCH   4  17
HETATM   17  C6  UNL     1      33.212  30.810  -0.273  1.00  0.00     0.170 C
HETATM   18  N2  UNL     1      32.327  29.927  -0.343  1.00  0.00    -0.247 N
ATOM     19  H2  UNL     1      31.874  29.749   0.553  1.00  0.00     0.196 HD
BRANCH  17  20
HETATM   20  O2  UNL     1      33.414  31.390   1.029  1.00  0.00    -0.344 OA
ATOM     21  H2  UNL     1      32.744  31.990   1.334  1.00  0.00     0.219 HD
ENDBRANCH  17  20
BRANCH  18  22
HETATM   22  O3  UNL     1      31.848  29.172  -1.322  1.00  0.00    -0.288 OA
ATOM     23  H3  UNL     1      31.903  28.247  -1.534  1.00  0.00     0.244 HD
ENDBRANCH  18  22
ENDBRANCH   4  17
TORSDOF 6
ENDMDL