MODEL 1
REMARK VINA RESULT: -6.669572778      0.000      0.000
REMARK  4 active torsions:
REMARK  status: ('A' for Active; 'I' for Inactive)
REMARK    1  A    between atoms: C1_4  and  C2_6
REMARK    2  A    between atoms: C3_7  and  N3_8
REMARK    3  A    between atoms: N3_8  and  C4_10
REMARK    4  A    between atoms: C4_10  and  C5_11
ROOT
HETATM    1  C2  UNL     1      36.263  33.726  -4.584  1.00  0.00     0.047 A
HETATM    2  C3  UNL     1      37.076  33.921  -3.496  1.00  0.00     0.086 A
HETATM    3  S1  UNL     1      38.128  35.185  -4.045  1.00  0.00    -0.054 SA
HETATM    4  C9  UNL     1      37.502  35.406  -5.598  1.00  0.00     0.079 A
HETATM    5  C10 UNL     1      36.477  34.490  -5.678  1.00  0.00    -0.008 A
HETATM    6  C11 UNL     1      35.788  34.516  -7.039  1.00  0.00     0.044 C
HETATM    7  C12 UNL     1      36.901  34.616  -8.117  1.00  0.00     0.024 C
HETATM    8  C13 UNL     1      37.490  35.995  -8.070  1.00  0.00     0.120 C
HETATM    9  N4  UNL     1      37.824  36.301  -6.700  1.00  0.00    -0.384 N
ATOM     10  H4  UNL     1      38.305  37.178  -6.496  1.00  0.00     0.160 HD
ENDROOT
BRANCH   2  11
HETATM   11  N3  UNL     1      37.120  33.315  -2.195  1.00  0.00    -0.383 N
ATOM     12  H3  UNL     1      36.430  33.545  -1.481  1.00  0.00     0.160 HD
BRANCH  11  13
HETATM   13  C4  UNL     1      38.192  32.358  -1.934  1.00  0.00     0.125 C
BRANCH  13  14
HETATM   14  C5  UNL     1      37.834  31.347  -0.897  1.00  0.00     0.003 C
HETATM   15  C6  UNL     1      36.335  31.100  -0.900  1.00  0.00     0.006 C
HETATM   16  C7  UNL     1      36.569  30.014  -1.930  1.00  0.00     0.001 C
HETATM   17  C8  UNL     1      37.973  29.890  -1.375  1.00  0.00     0.006 C
ENDBRANCH  13  14
ENDBRANCH  11  13
ENDBRANCH   2  11
BRANCH   1  18
HETATM   18  C1  UNL     1      35.168  32.708  -4.527  1.00  0.00     0.123 C
HETATM   19  N1  UNL     1      35.043  31.806  -5.435  1.00  0.00    -0.387 N
ATOM     20  H12 UNL     1      34.296  31.112  -5.397  1.00  0.00     0.157 HD
ATOM     21  H11 UNL     1      35.733  31.855  -6.185  1.00  0.00     0.157 HD
HETATM   22  N2  UNL     1      34.213  32.640  -3.490  1.00  0.00    -0.082 NA
ENDBRANCH   1  18
TORSDOF 4
ENDMDL