MODEL 4
REMARK VINA RESULT: -6.806441502      4.122      4.650
REMARK  3 active torsions:
REMARK  status: ('A' for Active; 'I' for Inactive)
REMARK       I    between atoms: C1_4  and  N2_5
REMARK       I    between atoms: C1_4  and  N5_16
REMARK    1  A    between atoms: N2_5  and  N3_7
REMARK    2  A    between atoms: C2_9  and  C3_11
REMARK    3  A    between atoms: N5_16  and  C7_18
ROOT
HETATM    1  N1  UNL     1      35.249  35.315  -4.189  1.00  0.00    -0.233 N
ATOM      2  H11 UNL     1      34.396  35.334  -3.629  1.00  0.00     0.174 HD
ATOM      3  H12 UNL     1      35.783  36.168  -4.356  1.00  0.00     0.174 HD
HETATM    4  C1  UNL     1      35.674  34.220  -4.698  1.00  0.00     0.691 C
HETATM    5  N2  UNL     1      36.881  34.194  -5.489  1.00  0.00    -0.131 N
ATOM      6  H2  UNL     1      37.769  33.976  -5.038  1.00  0.00     0.205 HD
HETATM    7  N5  UNL     1      34.929  33.031  -4.466  1.00  0.00    -0.191 N
ATOM      8  H5  UNL     1      34.371  32.626  -5.217  1.00  0.00     0.184 HD
ENDROOT
BRANCH   5   9
HETATM    9  N3  UNL     1      36.859  34.459  -6.855  1.00  0.00    -0.272 N
HETATM   10  C2  UNL     1      37.529  35.415  -7.379  1.00  0.00     0.148 C
HETATM   11  N4  UNL     1      38.337  36.265  -6.597  1.00  0.00    -0.080 NA
ATOM     12  H3  UNL     1      36.289  33.870  -7.461  1.00  0.00     0.189 HD
BRANCH  10  13
HETATM   13  C3  UNL     1      37.483  35.669  -8.833  1.00  0.00     0.047 A
HETATM   14  C4  UNL     1      37.091  34.830  -9.828  1.00  0.00     0.023 A
HETATM   15  C5  UNL     1      37.136  35.289 -11.087  1.00  0.00     0.009 A
HETATM   16  C6  UNL     1      37.576  36.572 -11.273  1.00  0.00     0.050 A
HETATM   17  S1  UNL     1      37.911  37.097  -9.690  1.00  0.00    -0.099 SA
ENDBRANCH  10  13
ENDBRANCH   5   9
BRANCH   7  18
HETATM   18  C7  UNL     1      34.959  32.411  -3.202  1.00  0.00     0.049 A
HETATM   19  C8  UNL     1      36.142  32.043  -2.598  1.00  0.00     0.030 A
HETATM   20  C9  UNL     1      36.165  31.434  -1.356  1.00  0.00     0.002 A
HETATM   21  C10 UNL     1      35.001  31.175  -0.684  1.00  0.00     0.000 A
HETATM   22  C11 UNL     1      33.805  31.534  -1.271  1.00  0.00     0.002 A
HETATM   23  C12 UNL     1      33.778  32.146  -2.517  1.00  0.00     0.030 A
ENDBRANCH   7  18
TORSDOF 3
ENDMDL