MODEL 4
REMARK VINA RESULT: -6.828584915      1.794      2.392
REMARK  7 active torsions:
REMARK  status: ('A' for Active; 'I' for Inactive)
REMARK    1  A    between atoms: N1_1  and  S1_4
REMARK    2  A    between atoms: S1_4  and  C1_5
REMARK    3  A    between atoms: C1_5  and  N2_6
REMARK    4  A    between atoms: C1_5  and  N5_18
REMARK    5  A    between atoms: N2_6  and  N3_8
REMARK    6  A    between atoms: N4_10  and  C2_12
REMARK    7  A    between atoms: N5_18  and  C8_20
ROOT
HETATM    1  C1  UNL     1      36.382  35.086  -3.255  1.00  0.00     0.181 C
ENDROOT
BRANCH   1   2
HETATM    2  S1  UNL     1      36.118  36.676  -2.881  1.00  0.00     0.017 SA
BRANCH   2   3
HETATM    3  N1  UNL     1      37.197  37.530  -1.728  1.00  0.00    -0.367 N
ATOM      4  H12 UNL     1      38.180  37.257  -1.681  1.00  0.00     0.164 HD
ATOM      5  H11 UNL     1      36.832  38.272  -1.132  1.00  0.00     0.164 HD
ENDBRANCH   2   3
ENDBRANCH   1   2
BRANCH   1   6
HETATM    6  N2  UNL     1      35.306  34.203  -3.138  1.00  0.00    -0.264 N
ATOM      7  H2  UNL     1      34.705  34.263  -2.316  1.00  0.00     0.190 HD
BRANCH   6   8
HETATM    8  N3  UNL     1      35.023  33.226  -4.124  1.00  0.00    -0.240 N
HETATM    9  N4  UNL     1      34.843  32.044  -3.720  1.00  0.00    -0.286 N
ATOM     10  H4  UNL     1      34.638  31.309  -4.396  1.00  0.00     0.188 HD
ATOM     11  H3  UNL     1      34.969  33.466  -5.114  1.00  0.00     0.208 HD
BRANCH   9  12
HETATM   12  C2  UNL     1      34.921  31.714  -2.330  1.00  0.00     0.049 A
HETATM   13  C3  UNL     1      36.129  31.421  -1.722  1.00  0.00     0.031 A
HETATM   14  C4  UNL     1      36.184  31.106  -0.381  1.00  0.00     0.002 A
HETATM   15  C5  UNL     1      34.998  31.094   0.322  1.00  0.00     0.000 A
HETATM   16  C6  UNL     1      33.786  31.381  -0.254  1.00  0.00     0.002 A
HETATM   17  C7  UNL     1      33.753  31.694  -1.596  1.00  0.00     0.031 A
ENDBRANCH   9  12
ENDBRANCH   6   8
ENDBRANCH   1   6
BRANCH   1  18
HETATM   18  N5  UNL     1      37.660  34.716  -3.667  1.00  0.00    -0.334 N
ATOM     19  H5  UNL     1      37.750  34.458  -4.649  1.00  0.00     0.168 HD
BRANCH  18  20
HETATM   20  C8  UNL     1      38.851  34.651  -2.902  1.00  0.00     0.034 A
HETATM   21  C9  UNL     1      39.992  35.345  -3.199  1.00  0.00     0.029 A
HETATM   22  C10 UNL     1      41.150  35.252  -2.465  1.00  0.00     0.002 A
HETATM   23  C11 UNL     1      41.194  34.427  -1.372  1.00  0.00     0.000 A
HETATM   24  C12 UNL     1      40.063  33.721  -1.053  1.00  0.00     0.002 A
HETATM   25  C13 UNL     1      38.898  33.803  -1.777  1.00  0.00     0.029 A
ENDBRANCH  18  20
ENDBRANCH   1  18
TORSDOF 7
ENDMDL