MODEL 2
REMARK VINA RESULT: -6.669521158      2.204      2.836
REMARK  3 active torsions:
REMARK  status: ('A' for Active; 'I' for Inactive)
REMARK       I    between atoms: N1_2  and  C2_4
REMARK    1  A    between atoms: C2_4  and  C3_6
REMARK    2  A    between atoms: C5_11  and  N3_12
REMARK    3  A    between atoms: N3_12  and  C6_14
ROOT
HETATM    1  C3  UNL     1      40.921  36.734  -2.669  1.00  0.00     0.069 A
HETATM    2  C4  UNL     1      39.570  36.110  -2.905  1.00  0.00     0.254 C
HETATM    3  N2  UNL     1      39.087  35.683  -1.612  1.00  0.00    -0.053 N
ATOM      4  H21 UNL     1      38.070  35.619  -1.584  1.00  0.00     0.279 HD
ATOM      5  H22 UNL     1      39.210  36.401  -0.900  1.00  0.00     0.279 HD
HETATM    6  C5  UNL     1      39.727  34.425  -1.240  1.00  0.00     0.285 C
HETATM    7  C11 UNL     1      41.207  34.558  -1.394  1.00  0.00     0.060 C
HETATM    8  C12 UNL     1      41.720  35.906  -1.774  1.00  0.00     0.010 A
HETATM    9  C13 UNL     1      42.161  36.033  -3.192  1.00  0.00     0.027 A
ENDROOT
BRANCH   6  10
HETATM   10  N3  UNL     1      39.227  33.436  -2.175  1.00  0.00    -0.349 N
ATOM     11  H3  UNL     1      39.748  33.276  -3.037  1.00  0.00     0.163 HD
BRANCH  10  12
HETATM   12  C6  UNL     1      38.048  32.681  -1.946  1.00  0.00     0.103 A
HETATM   13  C7  UNL     1      38.114  31.563  -1.129  1.00  0.00     0.048 A
HETATM   14  C8  UNL     1      37.016  30.777  -0.873  1.00  0.00     0.007 A
HETATM   15  C9  UNL     1      35.805  31.099  -1.441  1.00  0.00     0.042 A
HETATM   16  C10 UNL     1      35.774  32.212  -2.246  1.00  0.00     0.102 A
HETATM   17  S1  UNL     1      34.356  32.622  -2.934  1.00  0.00    -0.060 SA
HETATM   18  N4  UNL     1      36.860  32.986  -2.496  1.00  0.00    -0.334 N
ATOM     19  H4  UNL     1      36.775  33.802  -3.103  1.00  0.00     0.168 HD
ENDBRANCH  10  12
ENDBRANCH   6  10
BRANCH   1  20
HETATM   20  C2  UNL     1      40.959  38.214  -2.618  1.00  0.00     0.228 C
HETATM   21  N1  UNL     1      41.964  38.932  -1.922  1.00  0.00    -0.365 N
HETATM   22  C1  UNL     1      41.990  40.380  -1.880  1.00  0.00     0.149 C
ATOM     23  H1  UNL     1      42.694  38.412  -1.435  1.00  0.00     0.161 HD
HETATM   24  O1  UNL     1      40.070  38.868  -3.210  1.00  0.00    -0.273 OA
ENDBRANCH   1  20
TORSDOF 3
ENDMDL