MODEL 3
REMARK VINA RESULT: -7.259822282      1.719      2.236
REMARK  4 active torsions:
REMARK  status: ('A' for Active; 'I' for Inactive)
REMARK       I    between atoms: C1_4  and  N2_5
REMARK       I    between atoms: C1_4  and  N4_21
REMARK    1  A    between atoms: N2_5  and  C2_7
REMARK    2  A    between atoms: C7_12  and  N3_13
REMARK    3  A    between atoms: N3_13  and  C8_15
REMARK    4  A    between atoms: N4_21  and  N5_23
ROOT
HETATM    1  C2  UNL     1      36.218  34.440  -4.071  1.00  0.00     0.075 A
HETATM    2  C3  UNL     1      35.961  35.370  -5.055  1.00  0.00     0.032 A
HETATM    3  C4  UNL     1      35.545  35.046  -6.327  1.00  0.00     0.002 A
HETATM    4  C5  UNL     1      35.392  33.703  -6.584  1.00  0.00     0.002 A
HETATM    5  C6  UNL     1      35.629  32.713  -5.653  1.00  0.00     0.032 A
HETATM    6  C7  UNL     1      36.050  33.086  -4.372  1.00  0.00     0.060 A
ENDROOT
BRANCH   1   7
HETATM    7  N2  UNL     1      36.631  34.922  -2.797  1.00  0.00    -0.189 N
HETATM    8  C1  UNL     1      37.969  35.365  -2.579  1.00  0.00     0.695 C
HETATM    9  N1  UNL     1      38.202  36.622  -2.488  1.00  0.00    -0.233 N
HETATM   10  N4  UNL     1      39.030  34.448  -2.463  1.00  0.00    -0.072 N
ATOM     11  H12 UNL     1      37.433  37.287  -2.573  1.00  0.00     0.174 HD
ATOM     12  H11 UNL     1      39.159  36.939  -2.333  1.00  0.00     0.174 HD
ATOM     13  H4  UNL     1      38.808  33.478  -2.239  1.00  0.00     0.212 HD
ATOM     14  H2  UNL     1      35.960  34.951  -2.029  1.00  0.00     0.184 HD
BRANCH  10  15
HETATM   15  N5  UNL     1      40.364  34.791  -2.636  1.00  0.00    -0.024 N
HETATM   16  O1  UNL     1      41.206  34.286  -1.881  1.00  0.00    -0.516 OA
HETATM   17  O2  UNL     1      40.723  35.666  -3.622  1.00  0.00    -0.516 OA
ENDBRANCH  10  15
ENDBRANCH   1   7
BRANCH   6  18
HETATM   18  N3  UNL     1      36.359  32.153  -3.386  1.00  0.00    -0.354 N
ATOM     19  H3  UNL     1      37.234  31.641  -3.496  1.00  0.00     0.166 HD
BRANCH  18  20
HETATM   20  C8  UNL     1      35.579  31.845  -2.247  1.00  0.00     0.032 A
HETATM   21  C9  UNL     1      34.209  31.863  -2.203  1.00  0.00     0.029 A
HETATM   22  C10 UNL     1      33.512  31.522  -1.039  1.00  0.00     0.002 A
HETATM   23  C11 UNL     1      34.163  31.153   0.117  1.00  0.00     0.000 A
HETATM   24  C12 UNL     1      35.540  31.131   0.088  1.00  0.00     0.002 A
HETATM   25  C13 UNL     1      36.220  31.467  -1.060  1.00  0.00     0.029 A
ENDBRANCH  18  20
ENDBRANCH   6  18
TORSDOF 4
ENDMDL