MODEL 4
REMARK VINA RESULT: -6.243602842      0.855      1.009
REMARK  8 active torsions:
REMARK  status: ('A' for Active; 'I' for Inactive)
REMARK    1  A    between atoms: C2_2  and  N2_6
REMARK    2  A    between atoms: N2_6  and  N3_8
REMARK    3  A    between atoms: N3_8  and  C3_10
REMARK    4  A    between atoms: C3_10  and  N4_12
REMARK    5  A    between atoms: N4_12  and  C4_14
REMARK    6  A    between atoms: C7_17  and  N5_18
REMARK    7  A    between atoms: N5_18  and  C8_20
REMARK    8  A    between atoms: C8_20  and  C9_21
ROOT
HETATM    1  N4  UNL     1      35.211  33.997  -3.284  1.00  0.00    -0.326 N
ATOM      2  H4  UNL     1      34.505  34.665  -2.974  1.00  0.00     0.169 HD
ENDROOT
BRANCH   1   3
HETATM    3  C3  UNL     1      34.822  32.863  -4.003  1.00  0.00     0.191 C
HETATM    4  S1  UNL     1      35.255  32.686  -5.575  1.00  0.00    -0.039 SA
BRANCH   3   5
HETATM    5  N3  UNL     1      34.040  31.857  -3.352  1.00  0.00    -0.275 N
ATOM      6  H3  UNL     1      33.952  30.947  -3.803  1.00  0.00     0.189 HD
BRANCH   5   7
HETATM    7  N2  UNL     1      33.397  32.054  -2.149  1.00  0.00    -0.288 N
ATOM      8  H2  UNL     1      32.534  32.596  -2.140  1.00  0.00     0.188 HD
BRANCH   7   9
HETATM    9  C2  UNL     1      33.884  31.535  -0.919  1.00  0.00     0.085 C
HETATM   10  C1  UNL     1      35.310  31.228  -0.686  1.00  0.00     0.090 C
HETATM   11  N1  UNL     1      33.059  31.315   0.050  1.00  0.00    -0.388 N
ATOM     12  H12 UNL     1      33.408  30.942   0.932  1.00  0.00     0.157 HD
ATOM     13  H11 UNL     1      32.075  31.527  -0.111  1.00  0.00     0.157 HD
ENDBRANCH   7   9
ENDBRANCH   5   7
ENDBRANCH   3   5
ENDBRANCH   1   3
BRANCH   1  14
HETATM   14  C4  UNL     1      36.593  34.229  -2.979  1.00  0.00     0.078 A
HETATM   15  C5  UNL     1      37.189  35.415  -2.633  1.00  0.00     0.040 A
HETATM   16  C6  UNL     1      38.511  35.391  -2.390  1.00  0.00     0.040 A
HETATM   17  C7  UNL     1      39.147  34.185  -2.509  1.00  0.00     0.082 A
HETATM   18  S2  UNL     1      37.895  33.127  -2.953  1.00  0.00    -0.054 SA
BRANCH  17  19
HETATM   19  N5  UNL     1      40.559  33.973  -2.286  1.00  0.00    -0.320 N
ATOM     20  H5  UNL     1      41.117  33.327  -2.843  1.00  0.00     0.176 HD
BRANCH  19  21
HETATM   21  C8  UNL     1      41.054  34.676  -1.316  1.00  0.00    -0.066 C
BRANCH  21  22
HETATM   22  C9  UNL     1      41.473  35.165  -0.190  1.00  0.00     0.066 C
HETATM   23  C10 UNL     1      40.499  35.655   0.788  1.00  0.00     0.024 C
HETATM   24  C11 UNL     1      42.911  35.225   0.077  1.00  0.00     0.024 C
ENDBRANCH  21  22
ENDBRANCH  19  21
ENDBRANCH  17  19
ENDBRANCH   1  14
TORSDOF 8
ENDMDL