MODEL 1
REMARK VINA RESULT: -7.289346932      0.000      0.000
REMARK  3 active torsions:
REMARK  status: ('A' for Active; 'I' for Inactive)
REMARK       I    between atoms: C1_4  and  N2_5
REMARK       I    between atoms: C1_4  and  N4_15
REMARK    1  A    between atoms: N2_5  and  N3_7
REMARK    2  A    between atoms: N4_15  and  C8_17
REMARK    3  A    between atoms: C11_20  and  N5_21
ROOT
HETATM    1  N1  UNL     1      35.742  34.830  -4.143  1.00  0.00    -0.233 N
ATOM      2  H11 UNL     1      36.091  35.770  -4.331  1.00  0.00     0.174 HD
ATOM      3  H12 UNL     1      34.743  34.634  -4.073  1.00  0.00     0.174 HD
HETATM    4  C1  UNL     1      36.537  33.813  -3.976  1.00  0.00     0.690 C
HETATM    5  N2  UNL     1      36.054  32.514  -3.715  1.00  0.00    -0.133 N
ATOM      6  H2  UNL     1      36.646  31.698  -3.877  1.00  0.00     0.205 HD
HETATM    7  N4  UNL     1      37.929  34.085  -4.073  1.00  0.00    -0.191 N
ATOM      8  H4  UNL     1      38.414  34.006  -4.966  1.00  0.00     0.184 HD
ENDROOT
BRANCH   5   9
HETATM    9  N3  UNL     1      34.756  32.360  -3.233  1.00  0.00    -0.295 N
HETATM   10  C2  UNL     1      34.560  31.721  -2.152  1.00  0.00     0.004 C
HETATM   11  C3  UNL     1      33.210  31.537  -1.613  1.00  0.00     0.054 C
HETATM   12  C7  UNL     1      35.711  31.146  -1.416  1.00  0.00     0.054 C
HETATM   13  C4  UNL     1      33.280  30.439  -0.562  1.00  0.00     0.006 C
HETATM   14  C5  UNL     1      34.177  30.931   0.544  1.00  0.00     0.001 C
HETATM   15  C6  UNL     1      35.487  31.467   0.059  1.00  0.00     0.006 C
ATOM     16  H3  UNL     1      33.968  32.758  -3.744  1.00  0.00     0.186 HD
ENDBRANCH   5   9
BRANCH   7  17
HETATM   17  C8  UNL     1      38.630  34.468  -2.902  1.00  0.00     0.049 A
HETATM   18  C9  UNL     1      39.218  33.486  -2.122  1.00  0.00     0.032 A
HETATM   19  C10 UNL     1      39.914  33.791  -0.971  1.00  0.00     0.038 A
HETATM   20  C11 UNL     1      40.031  35.118  -0.579  1.00  0.00     0.103 A
HETATM   21  C12 UNL     1      39.430  36.094  -1.380  1.00  0.00     0.038 A
HETATM   22  C13 UNL     1      38.737  35.788  -2.525  1.00  0.00     0.032 A
BRANCH  20  23
HETATM   23  N5  UNL     1      40.739  35.451   0.595  1.00  0.00    -0.116 N
HETATM   24  O1  UNL     1      41.939  35.193   0.684  1.00  0.00    -0.532 OA
HETATM   25  O2  UNL     1      40.091  36.056   1.623  1.00  0.00    -0.532 OA
ENDBRANCH  20  23
ENDBRANCH   7  17
TORSDOF 3
ENDMDL