MODEL 4
REMARK VINA RESULT: -5.771331714      1.500      2.950
REMARK  5 active torsions:
REMARK  status: ('A' for Active; 'I' for Inactive)
REMARK    1  A    between atoms: O1_2  and  C2_3
REMARK    2  A    between atoms: C2_3  and  C3_4
REMARK    3  A    between atoms: C5_6  and  O2_7
REMARK    4  A    between atoms: C8_14  and  C9_15
REMARK    5  A    between atoms: C9_15  and  O6_16
ROOT
HETATM    1  C3  UNL     1      -5.734   3.922  16.208  1.00  0.00     0.027 C
HETATM    2  C4  UNL     1      -5.789   5.433  16.013  1.00  0.00     0.076 C
HETATM    3  C5  UNL     1      -5.926   5.187  14.545  1.00  0.00     0.169 C
HETATM    4  O3  UNL     1      -5.129   5.886  13.699  1.00  0.00    -0.352 OA
HETATM    5  C6  UNL     1      -3.782   5.757  13.837  1.00  0.00     0.209 C
HETATM    6  C7  UNL     1      -3.259   4.387  14.043  1.00  0.00     0.224 C
HETATM    7  O4  UNL     1      -2.788   4.088  15.333  1.00  0.00    -0.229 OA
HETATM    8  O5  UNL     1      -3.355   2.897  15.180  1.00  0.00    -0.223 OA
HETATM    9  C8  UNL     1      -4.275   3.322  14.214  1.00  0.00     0.157 C
HETATM   10  C10 UNL     1      -5.593   3.744  14.714  1.00  0.00     0.097 C
ENDROOT
BRANCH   1  11
HETATM   11  C2  UNL     1      -6.990   3.345  16.806  1.00  0.00     0.172 C
BRANCH  11  12
HETATM   12  O1  UNL     1      -7.217   2.029  16.451  1.00  0.00    -0.396 OA
HETATM   13  C1  UNL     1      -7.084   1.141  17.487  1.00  0.00     0.201 C
ENDBRANCH  11  12
ENDBRANCH   1  11
BRANCH   3  14
HETATM   14  O2  UNL     1      -7.265   5.326  14.166  1.00  0.00    -0.365 OA
ATOM     15  H2  UNL     1      -7.314   5.656  13.277  1.00  0.00     0.213 HD
ENDBRANCH   3  14
BRANCH   9  16
HETATM   16  C9  UNL     1      -4.342   2.431  12.990  1.00  0.00     0.209 C
BRANCH  16  17
HETATM   17  O6  UNL     1      -4.482   1.112  13.376  1.00  0.00    -0.398 OA
ATOM     18  H6  UNL     1      -4.783   0.590  12.642  1.00  0.00     0.209 HD
ENDBRANCH  16  17
ENDBRANCH   9  16
TORSDOF 5
ENDMDL