MODEL 4
REMARK VINA RESULT: -5.618965958      1.176      1.180
REMARK  4 active torsions:
REMARK  status: ('A' for Active; 'I' for Inactive)
REMARK    1  A    between atoms: C4_6  and  C5_7
REMARK    2  A    between atoms: C5_7  and  S1_8
REMARK    3  A    between atoms: S1_8  and  C6_9
REMARK    4  A    between atoms: C8_15  and  O4_16
ROOT
HETATM    1  C1  UNL     1      -6.888   1.696  18.339  1.00  0.00     0.042 C
HETATM    2  C2  UNL     1      -6.790   1.688  16.844  1.00  0.00     0.152 C
HETATM    3  O1  UNL     1      -6.802   2.994  16.359  1.00  0.00    -0.351 OA
HETATM    4  C3  UNL     1      -5.548   3.509  16.693  1.00  0.00     0.295 C
HETATM    5  O2  UNL     1      -5.083   4.439  15.778  1.00  0.00    -0.328 OA
HETATM    6  C4  UNL     1      -4.260   3.782  14.889  1.00  0.00     0.273 C
HETATM    7  O3  UNL     1      -3.773   2.652  15.473  1.00  0.00    -0.348 OA
HETATM    8  C7  UNL     1      -4.570   2.381  16.579  1.00  0.00     0.211 C
HETATM    9  C8  UNL     1      -5.454   1.186  16.369  1.00  0.00     0.180 C
ENDROOT
BRANCH   6  10
HETATM   10  C5  UNL     1      -5.100   3.407  13.691  1.00  0.00     0.140 C
BRANCH  10  11
HETATM   11  S1  UNL     1      -4.315   1.988  12.858  1.00  0.00    -0.120 SA
BRANCH  11  12
HETATM   12  C6  UNL     1      -4.768   2.106  11.125  1.00  0.00     0.126 C
HETATM   13  N1  UNL     1      -4.419   3.152  10.500  1.00  0.00    -0.403 N
ATOM     14  H12 UNL     1      -3.902   3.890  10.978  1.00  0.00     0.155 HD
ATOM     15  H11 UNL     1      -4.676   3.219   9.515  1.00  0.00     0.155 HD
ENDBRANCH  11  12
ENDBRANCH  10  11
ENDBRANCH   6  10
BRANCH   9  16
HETATM   16  O4  UNL     1      -5.019   0.079  17.097  1.00  0.00    -0.390 OA
ATOM     17  H4  UNL     1      -4.103   0.148  17.342  1.00  0.00     0.210 HD
ENDBRANCH   9  16
TORSDOF 4
ENDMDL