MODEL 5
REMARK VINA RESULT: -6.306283611      2.116      4.866
REMARK  4 active torsions:
REMARK  status: ('A' for Active; 'I' for Inactive)
REMARK    1  A    between atoms: C4_5  and  C5_6
REMARK    2  A    between atoms: C5_6  and  O2_7
REMARK    3  A    between atoms: C6_10  and  N1_11
REMARK    4  A    between atoms: C10_17  and  O4_18
ROOT
HETATM    1  C1  UNL     1      -3.124   6.845  11.730  1.00  0.00     0.015 C
HETATM    2  C2  UNL     1      -3.309   5.794  12.261  1.00  0.00    -0.082 C
HETATM    3  C3  UNL     1      -3.537   4.527  12.930  1.00  0.00     0.235 C
HETATM    4  O1  UNL     1      -4.141   3.581  12.072  1.00  0.00    -0.339 OA
HETATM    5  C4  UNL     1      -4.256   2.392  12.777  1.00  0.00     0.287 C
HETATM    6  O3  UNL     1      -5.184   2.506  13.824  1.00  0.00    -0.330 OA
HETATM    7  C6  UNL     1      -4.639   3.394  14.745  1.00  0.00     0.278 C
HETATM    8  C10 UNL     1      -4.531   4.739  14.064  1.00  0.00     0.209 C
ENDROOT
BRANCH   8   9
HETATM    9  O4  UNL     1      -4.121   5.737  14.927  1.00  0.00    -0.388 OA
ATOM     10  H4  UNL     1      -4.099   5.438  15.828  1.00  0.00     0.210 HD
ENDBRANCH   8   9
BRANCH   5  11
HETATM   11  C5  UNL     1      -4.674   1.276  11.825  1.00  0.00     0.224 C
BRANCH  11  12
HETATM   12  O2  UNL     1      -5.538   1.764  10.859  1.00  0.00    -0.396 OA
ATOM     13  H2  UNL     1      -5.221   1.543   9.991  1.00  0.00     0.209 HD
ENDBRANCH  11  12
ENDBRANCH   5  11
BRANCH   7  14
HETATM   14  N1  UNL     1      -5.380   3.426  15.961  1.00  0.00    -0.272 N
HETATM   15  C7  UNL     1      -5.403   2.423  16.856  1.00  0.00     0.114 A
HETATM   16  C8  UNL     1      -6.232   2.833  17.897  1.00  0.00     0.037 A
HETATM   17  C9  UNL     1      -6.685   4.092  17.579  1.00  0.00     0.108 A
HETATM   18  N2  UNL     1      -6.137   4.409  16.388  1.00  0.00    -0.308 N
ATOM     19  H2  UNL     1      -6.290   5.286  15.891  1.00  0.00     0.186 HD
ENDBRANCH   7  14
TORSDOF 4
ENDMDL