MODEL 3
REMARK VINA RESULT: -6.419411354      2.928      4.349
REMARK  4 active torsions:
REMARK  status: ('A' for Active; 'I' for Inactive)
REMARK    1  A    between atoms: O1_2  and  C2_3
REMARK    2  A    between atoms: C5_7  and  C7_10
REMARK    3  A    between atoms: C7_10  and  O3_11
REMARK    4  A    between atoms: C9_15  and  O5_16
ROOT
HETATM    1  C2  UNL     1      -4.814   2.027  11.021  1.00  0.00     0.154 C
HETATM    2  C3  UNL     1      -4.621   1.695  12.499  1.00  0.00     0.069 C
HETATM    3  C4  UNL     1      -4.493   3.028  13.139  1.00  0.00     0.160 C
HETATM    4  O2  UNL     1      -3.297   3.193  13.855  1.00  0.00    -0.334 OA
HETATM    5  C5  UNL     1      -3.180   4.590  13.815  1.00  0.00     0.280 C
HETATM    6  C6  UNL     1      -4.263   5.145  14.596  1.00  0.00     0.131 C
HETATM    7  N1  UNL     1      -5.131   5.575  15.201  1.00  0.00    -0.191 NA
HETATM    8  O4  UNL     1      -3.311   4.925  12.472  1.00  0.00    -0.331 OA
HETATM    9  C8  UNL     1      -4.315   4.059  12.045  1.00  0.00     0.186 C
HETATM   10  C9  UNL     1      -3.863   3.206  10.879  1.00  0.00     0.178 C
ENDROOT
BRANCH   5  11
HETATM   11  C7  UNL     1      -1.855   5.051  14.361  1.00  0.00     0.249 C
BRANCH  11  12
HETATM   12  O3  UNL     1      -1.442   4.111  15.302  1.00  0.00    -0.394 OA
ATOM     13  H3  UNL     1      -1.560   3.251  14.914  1.00  0.00     0.209 HD
ENDBRANCH  11  12
ENDBRANCH   5  11
BRANCH  10  14
HETATM   14  O5  UNL     1      -4.122   3.887   9.702  1.00  0.00    -0.390 OA
ATOM     15  H5  UNL     1      -3.308   4.088   9.256  1.00  0.00     0.210 HD
ENDBRANCH  10  14
BRANCH   1  16
HETATM   16  O1  UNL     1      -4.435   0.946  10.264  1.00  0.00    -0.388 OA
HETATM   17  C1  UNL     1      -4.775  -0.204  11.015  1.00  0.00     0.202 C
ENDBRANCH   1  16
TORSDOF 4
ENDMDL