MODEL 5
REMARK VINA RESULT: -5.835271833      3.273      4.097
REMARK  4 active torsions:
REMARK  status: ('A' for Active; 'I' for Inactive)
REMARK    1  A    between atoms: C2_2  and  O1_3
REMARK    2  A    between atoms: C3_5  and  O2_6
REMARK    3  A    between atoms: C4_9  and  C5_10
REMARK    4  A    between atoms: N1_11  and  N2_13
ROOT
HETATM    1  C1  UNL     1      -7.439   1.369  17.116  1.00  0.00     0.054 C
HETATM    2  C2  UNL     1      -6.201   2.223  17.094  1.00  0.00     0.134 C
HETATM    3  C3  UNL     1      -5.003   1.420  16.685  1.00  0.00     0.294 C
HETATM    4  O3  UNL     1      -5.425   1.554  15.362  1.00  0.00    -0.345 OA
HETATM    5  C4  UNL     1      -5.967   2.788  15.724  1.00  0.00     0.203 C
ENDROOT
BRANCH   5   6
HETATM    6  C5  UNL     1      -4.888   3.826  15.648  1.00  0.00     0.115 C
HETATM    7  N1  UNL     1      -4.516   4.164  14.459  1.00  0.00    -0.315 N
ATOM      8  H1  UNL     1      -4.972   3.711  13.666  1.00  0.00     0.185 HD
BRANCH   7   9
HETATM    9  N2  UNL     1      -3.537   5.105  14.198  1.00  0.00    -0.324 N
HETATM   10  C6  UNL     1      -2.128   4.774  14.356  1.00  0.00     0.168 C
HETATM   11  C7  UNL     1      -1.280   5.575  13.409  1.00  0.00     0.189 C
HETATM   12  O4  UNL     1      -1.478   6.930  13.480  1.00  0.00    -0.388 OA
HETATM   13  C8  UNL     1      -2.636   7.320  14.105  1.00  0.00     0.189 C
HETATM   14  C9  UNL     1      -3.831   6.461  13.754  1.00  0.00     0.168 C
ENDBRANCH   7   9
ENDBRANCH   5   6
BRANCH   2  15
HETATM   15  O1  UNL     1      -6.037   3.082  18.156  1.00  0.00    -0.382 OA
ATOM     16  H1  UNL     1      -6.502   3.909  18.101  1.00  0.00     0.210 HD
ENDBRANCH   2  15
BRANCH   3  17
HETATM   17  O2  UNL     1      -5.006   0.088  17.078  1.00  0.00    -0.368 OA
ATOM     18  H2  UNL     1      -5.748  -0.428  16.783  1.00  0.00     0.212 HD
ENDBRANCH   3  17
TORSDOF 4
ENDMDL