MODEL 5
REMARK VINA RESULT: -6.134221256      1.438      2.800
REMARK  3 active torsions:
REMARK  status: ('A' for Active; 'I' for Inactive)
REMARK    1  A    between atoms: C7_9  and  O3_10
REMARK    2  A    between atoms: C8_12  and  C9_13
REMARK    3  A    between atoms: C9_13  and  O4_14
ROOT
HETATM    1  C1  UNL     1      -4.729   0.913  11.320  1.00  0.00     0.059 C
HETATM    2  C2  UNL     1      -4.019   1.840  12.279  1.00  0.00     0.220 C
HETATM    3  O1  UNL     1      -2.658   1.897  12.030  1.00  0.00    -0.365 OA
HETATM    4  C3  UNL     1      -2.263   3.206  12.035  1.00  0.00     0.220 C
HETATM    5  C4  UNL     1      -3.371   3.905  12.794  1.00  0.00     0.251 C
HETATM    6  O2  UNL     1      -3.439   3.513  14.118  1.00  0.00    -0.329 OA
HETATM    7  C5  UNL     1      -4.807   3.550  14.363  1.00  0.00     0.196 C
HETATM    8  C6  UNL     1      -5.329   2.582  15.369  1.00  0.00     0.103 C
HETATM    9  C7  UNL     1      -5.220   3.678  16.420  1.00  0.00     0.134 C
HETATM   10  C8  UNL     1      -5.183   4.676  15.264  1.00  0.00     0.102 C
HETATM   11  O5  UNL     1      -5.457   3.445  13.163  1.00  0.00    -0.258 OA
HETATM   12  N1  UNL     1      -4.530   3.187  12.236  1.00  0.00    -0.133 NA
ENDROOT
BRANCH  10  13
HETATM   13  C9  UNL     1      -6.526   5.294  15.069  1.00  0.00     0.176 C
BRANCH  13  14
HETATM   14  O4  UNL     1      -6.500   6.034  13.892  1.00  0.00    -0.400 OA
ATOM     15  H4  UNL     1      -6.049   5.525  13.228  1.00  0.00     0.209 HD
ENDBRANCH  13  14
ENDBRANCH  10  13
BRANCH   9  16
HETATM   16  O3  UNL     1      -6.361   3.721  17.186  1.00  0.00    -0.395 OA
ATOM     17  H3  UNL     1      -6.210   3.304  18.027  1.00  0.00     0.210 HD
ENDBRANCH   9  16
TORSDOF 3
ENDMDL