MODEL 1
REMARK VINA RESULT: -6.553518415      0.000      0.000
REMARK  4 active torsions:
REMARK  status: ('A' for Active; 'I' for Inactive)
REMARK    1  A    between atoms: O1_1  and  C1_3
REMARK    2  A    between atoms: C1_3  and  C2_4
REMARK    3  A    between atoms: C3_6  and  N1_7
REMARK    4  A    between atoms: C10_17  and  O4_18
ROOT
HETATM    1  C2  UNL     1      -4.614   1.873  16.486  1.00  0.00     0.185 C
HETATM    2  O2  UNL     1      -3.950   2.555  15.467  1.00  0.00    -0.352 OA
HETATM    3  C3  UNL     1      -4.391   3.865  15.692  1.00  0.00     0.275 C
HETATM    4  C7  UNL     1      -5.903   3.651  15.662  1.00  0.00     0.208 C
HETATM    5  O3  UNL     1      -6.591   4.658  16.278  1.00  0.00    -0.378 OA
HETATM    6  C8  UNL     1      -6.694   4.410  17.612  1.00  0.00     0.171 C
HETATM    7  C9  UNL     1      -6.233   3.019  17.898  1.00  0.00     0.069 C
HETATM    8  C10 UNL     1      -6.013   2.418  16.544  1.00  0.00     0.118 C
ENDROOT
BRANCH   3   9
HETATM    9  N1  UNL     1      -3.955   4.770  14.670  1.00  0.00    -0.272 N
HETATM   10  C4  UNL     1      -3.305   4.504  13.541  1.00  0.00     0.114 A
HETATM   11  C5  UNL     1      -3.080   5.677  12.841  1.00  0.00     0.037 A
HETATM   12  C6  UNL     1      -3.632   6.670  13.612  1.00  0.00     0.108 A
HETATM   13  N2  UNL     1      -4.153   6.085  14.709  1.00  0.00    -0.308 N
ATOM     14  H2  UNL     1      -4.630   6.580  15.463  1.00  0.00     0.186 HD
ENDBRANCH   3   9
BRANCH   1  15
HETATM   15  C1  UNL     1      -4.676   0.389  16.226  1.00  0.00     0.199 C
BRANCH  15  16
HETATM   16  O1  UNL     1      -4.672   0.102  14.871  1.00  0.00    -0.398 OA
ATOM     17  H1  UNL     1      -5.510   0.293  14.467  1.00  0.00     0.209 HD
ENDBRANCH  15  16
ENDBRANCH   1  15
BRANCH   8  18
HETATM   18  O4  UNL     1      -6.980   1.544  16.137  1.00  0.00    -0.384 OA
ATOM     19  H4  UNL     1      -7.691   1.941  15.649  1.00  0.00     0.210 HD
ENDBRANCH   8  18
TORSDOF 4
ENDMDL