MODEL 2
REMARK VINA RESULT: -6.489097580      2.409      4.404
REMARK  4 active torsions:
REMARK  status: ('A' for Active; 'I' for Inactive)
REMARK    1  A    between atoms: C4_5  and  C5_6
REMARK    2  A    between atoms: C5_6  and  O2_7
REMARK    3  A    between atoms: C6_10  and  N1_11
REMARK    4  A    between atoms: C10_17  and  O4_18
ROOT
HETATM    1  C1  UNL     1      -2.158   6.371  14.076  1.00  0.00     0.015 C
HETATM    2  C2  UNL     1      -2.912   5.435  14.135  1.00  0.00    -0.082 C
HETATM    3  C3  UNL     1      -3.816   4.307  14.223  1.00  0.00     0.235 C
HETATM    4  O1  UNL     1      -3.651   3.575  15.393  1.00  0.00    -0.339 OA
HETATM    5  C4  UNL     1      -4.664   2.638  15.444  1.00  0.00     0.287 C
HETATM    6  O3  UNL     1      -4.451   1.703  14.462  1.00  0.00    -0.332 OA
HETATM    7  C6  UNL     1      -4.690   2.298  13.202  1.00  0.00     0.263 C
HETATM    8  C10 UNL     1      -3.647   3.358  13.027  1.00  0.00     0.208 C
ENDROOT
BRANCH   8   9
HETATM    9  O4  UNL     1      -3.878   4.153  11.896  1.00  0.00    -0.388 OA
ATOM     10  H4  UNL     1      -3.509   5.002  12.112  1.00  0.00     0.210 HD
ENDBRANCH   8   9
BRANCH   5  11
HETATM   11  C5  UNL     1      -4.795   2.002  16.810  1.00  0.00     0.224 C
BRANCH  11  12
HETATM   12  O2  UNL     1      -4.022   0.819  16.786  1.00  0.00    -0.396 OA
ATOM     13  H2  UNL     1      -4.218   0.346  17.586  1.00  0.00     0.209 HD
ENDBRANCH  11  12
ENDBRANCH   5  11
BRANCH   7  14
HETATM   14  N1  UNL     1      -4.661   1.256  12.237  1.00  0.00    -0.322 N
HETATM   15  C7  UNL     1      -4.316  -0.016  12.497  1.00  0.00     0.111 A
HETATM   16  C8  UNL     1      -4.407  -0.724  11.336  1.00  0.00     0.106 A
HETATM   17  N2  UNL     1      -4.807   0.113  10.360  1.00  0.00    -0.361 N
HETATM   18  C9  UNL     1      -4.955   1.321  10.946  1.00  0.00     0.184 A
ATOM     19  H2  UNL     1      -4.966  -0.119   9.380  1.00  0.00     0.166 HD
ENDBRANCH   7  14
TORSDOF 4
ENDMDL