MODEL 3
REMARK VINA RESULT: -5.289658252      1.866      3.800
REMARK  3 active torsions:
REMARK  status: ('A' for Active; 'I' for Inactive)
REMARK    1  A    between atoms: O1_2  and  C2_3
REMARK    2  A    between atoms: C3_4  and  C4_5
REMARK    3  A    between atoms: C4_5  and  O2_6
ROOT
HETATM    1  C2  UNL     1      -3.641   3.439  13.115  1.00  0.00     0.168 C
HETATM    2  C3  UNL     1      -3.539   2.779  11.746  1.00  0.00     0.134 C
HETATM    3  C5  UNL     1      -3.480   4.016  10.896  1.00  0.00     0.291 C
HETATM    4  O3  UNL     1      -4.724   4.335  10.349  1.00  0.00    -0.330 OA
HETATM    5  C6  UNL     1      -4.387   5.333   9.408  1.00  0.00     0.200 C
HETATM    6  C7  UNL     1      -2.896   5.170   9.187  1.00  0.00     0.200 C
HETATM    7  O4  UNL     1      -2.690   3.904   9.784  1.00  0.00    -0.330 OA
HETATM    8  O5  UNL     1      -3.029   5.055  11.673  1.00  0.00    -0.319 OA
HETATM    9  C8  UNL     1      -2.634   4.566  12.893  1.00  0.00     0.086 C
HETATM   10  C9  UNL     1      -1.229   4.033  12.769  1.00  0.00     0.048 C
HETATM   11  C10 UNL     1      -2.747   5.555  14.015  1.00  0.00     0.048 C
ENDROOT
BRANCH   2  12
HETATM   12  C4  UNL     1      -4.751   1.928  11.460  1.00  0.00     0.179 C
BRANCH  12  13
HETATM   13  O2  UNL     1      -4.639   1.400  10.192  1.00  0.00    -0.400 OA
ATOM     14  H2  UNL     1      -3.808   0.944  10.120  1.00  0.00     0.209 HD
ENDBRANCH  12  13
ENDBRANCH   2  12
BRANCH   1  15
HETATM   15  O1  UNL     1      -4.885   4.018  13.188  1.00  0.00    -0.387 OA
HETATM   16  C1  UNL     1      -5.567   3.762  14.352  1.00  0.00     0.202 C
ENDBRANCH   1  15
TORSDOF 3
ENDMDL