MODEL 4
REMARK VINA RESULT: -6.204791304      1.020      1.087
REMARK  4 active torsions:
REMARK  status: ('A' for Active; 'I' for Inactive)
REMARK    1  A    between atoms: O1_1  and  C1_3
REMARK    2  A    between atoms: C1_3  and  C2_4
REMARK    3  A    between atoms: C4_7  and  O3_8
REMARK    4  A    between atoms: C7_12  and  N1_13
ROOT
HETATM    1  C2  UNL     1      -4.082   2.178  12.774  1.00  0.00     0.286 C
HETATM    2  O2  UNL     1      -3.218   3.128  12.329  1.00  0.00    -0.351 OA
HETATM    3  C3  UNL     1      -3.549   4.425  12.556  1.00  0.00     0.162 C
HETATM    4  C4  UNL     1      -2.298   5.230  12.911  1.00  0.00     0.148 C
HETATM    5  C5  UNL     1      -2.756   5.332  14.350  1.00  0.00     0.046 C
HETATM    6  C6  UNL     1      -4.059   4.720  13.941  1.00  0.00     0.070 C
HETATM    7  C7  UNL     1      -4.419   3.414  14.594  1.00  0.00     0.253 C
HETATM    8  O4  UNL     1      -5.092   2.657  13.605  1.00  0.00    -0.333 OA
ENDROOT
BRANCH   7   9
HETATM    9  N1  UNL     1      -5.260   3.584  15.750  1.00  0.00    -0.274 N
HETATM   10  C8  UNL     1      -5.485   2.610  16.647  1.00  0.00     0.114 A
HETATM   11  C9  UNL     1      -6.335   3.084  17.642  1.00  0.00     0.037 A
HETATM   12  C10 UNL     1      -6.598   4.390  17.285  1.00  0.00     0.108 A
HETATM   13  N2  UNL     1      -5.935   4.669  16.134  1.00  0.00    -0.308 N
ATOM     14  H2  UNL     1      -5.949   5.563  15.643  1.00  0.00     0.186 HD
ENDBRANCH   7   9
BRANCH   1  15
HETATM   15  C1  UNL     1      -4.655   1.338  11.646  1.00  0.00     0.224 C
BRANCH  15  16
HETATM   16  O1  UNL     1      -5.565   2.092  10.905  1.00  0.00    -0.396 OA
ATOM     17  H1  UNL     1      -6.444   1.755  11.031  1.00  0.00     0.209 HD
ENDBRANCH  15  16
ENDBRANCH   1  15
BRANCH   4  18
HETATM   18  O3  UNL     1      -1.111   4.513  12.767  1.00  0.00    -0.393 OA
ATOM     19  H3  UNL     1      -0.390   5.031  12.429  1.00  0.00     0.210 HD
ENDBRANCH   4  18
TORSDOF 4
ENDMDL