MODEL 2
REMARK VINA RESULT: -6.149989047      2.371      2.892
REMARK  3 active torsions:
REMARK  status: ('A' for Active; 'I' for Inactive)
REMARK    1  A    between atoms: C5_6  and  C6_7
REMARK    2  A    between atoms: N1_8  and  O2_10
REMARK    3  A    between atoms: C7_12  and  O3_13
ROOT
HETATM    1  C1  UNL     1      -3.386   7.372  13.599  1.00  0.00     0.051 C
HETATM    2  C2  UNL     1      -4.070   6.021  13.333  1.00  0.00     0.114 C
HETATM    3  C3  UNL     1      -4.920   6.267  12.077  1.00  0.00     0.051 C
HETATM    4  O1  UNL     1      -4.917   5.819  14.393  1.00  0.00    -0.375 OA
HETATM    5  C4  UNL     1      -5.429   4.527  14.372  1.00  0.00     0.181 C
HETATM    6  C5  UNL     1      -4.314   3.620  14.851  1.00  0.00     0.083 C
HETATM    7  C7  UNL     1      -3.048   3.852  14.113  1.00  0.00     0.195 C
HETATM    8  C8  UNL     1      -3.071   4.942  13.105  1.00  0.00     0.283 C
HETATM    9  N2  UNL     1      -1.754   5.551  13.059  1.00  0.00    -0.035 N
ATOM     10  H21 UNL     1      -1.290   5.554  13.968  1.00  0.00     0.281 HD
ATOM     11  H22 UNL     1      -1.793   6.561  12.921  1.00  0.00     0.281 HD
HETATM   12  C9  UNL     1      -0.994   4.892  12.060  1.00  0.00     0.262 C
HETATM   13  C10 UNL     1      -2.001   4.007  11.377  1.00  0.00     0.199 C
HETATM   14  O4  UNL     1      -3.246   4.345  11.837  1.00  0.00    -0.348 OA
ENDROOT
BRANCH   7  15
HETATM   15  O3  UNL     1      -2.017   4.076  15.054  1.00  0.00    -0.390 OA
ATOM     16  H3  UNL     1      -1.403   4.700  14.684  1.00  0.00     0.210 HD
ENDBRANCH   7  15
BRANCH   6  17
HETATM   17  C6  UNL     1      -4.806   2.223  14.749  1.00  0.00     0.096 C
HETATM   18  N1  UNL     1      -4.380   1.260  15.488  1.00  0.00    -0.284 N
ATOM     19  H1  UNL     1      -4.756   0.318  15.372  1.00  0.00     0.192 HD
BRANCH  18  20
HETATM   20  O2  UNL     1      -3.412   1.510  16.438  1.00  0.00    -0.291 OA
ATOM     21  H2  UNL     1      -3.636   2.014  17.212  1.00  0.00     0.244 HD
ENDBRANCH  18  20
ENDBRANCH   6  17
TORSDOF 3
ENDMDL