MODEL 5
REMARK VINA RESULT: -5.509197754      2.727      4.012
REMARK  4 active torsions:
REMARK  status: ('A' for Active; 'I' for Inactive)
REMARK    1  A    between atoms: O1_2  and  C2_3
REMARK    2  A    between atoms: C5_7  and  S1_8
REMARK    3  A    between atoms: C7_11  and  O3_12
REMARK    4  A    between atoms: C8_14  and  O4_15
ROOT
HETATM    1  S1  UNL     1      -4.818   3.362  13.605  1.00  0.00    -0.041 SA
HETATM    2  C6  UNL     1      -4.057   4.912  13.969  1.00  0.00     0.134 C
HETATM    3  N1  UNL     1      -3.568   5.937  14.196  1.00  0.00    -0.184 NA
ENDROOT
BRANCH   1   4
HETATM    4  C5  UNL     1      -3.729   2.511  12.411  1.00  0.00     0.122 C
HETATM    5  C3  UNL     1      -4.553   2.117  11.226  1.00  0.00     0.138 C
HETATM    6  O2  UNL     1      -4.009   2.522  10.014  1.00  0.00    -0.352 OA
HETATM    7  C4  UNL     1      -4.781   0.620  11.153  1.00  0.00     0.041 C
HETATM    8  C2  UNL     1      -3.795   3.900  10.053  1.00  0.00     0.290 C
HETATM    9  C8  UNL     1      -2.553   4.117  10.875  1.00  0.00     0.203 C
HETATM   10  C7  UNL     1      -2.521   3.310  12.119  1.00  0.00     0.168 C
BRANCH   8  11
HETATM   11  O1  UNL     1      -4.876   4.546  10.625  1.00  0.00    -0.363 OA
HETATM   12  C1  UNL     1      -4.774   5.925  10.430  1.00  0.00     0.204 C
ENDBRANCH   8  11
BRANCH   9  13
HETATM   13  O4  UNL     1      -1.458   3.867  10.025  1.00  0.00    -0.388 OA
ATOM     14  H4  UNL     1      -0.819   3.387  10.539  1.00  0.00     0.210 HD
ENDBRANCH   9  13
BRANCH  10  15
HETATM   15  O3  UNL     1      -1.389   2.466  12.049  1.00  0.00    -0.392 OA
ATOM     16  H3  UNL     1      -1.562   1.738  11.463  1.00  0.00     0.210 HD
ENDBRANCH  10  15
ENDBRANCH   1   4
TORSDOF 4
ENDMDL