MODEL 3
REMARK VINA RESULT: -5.670866933      2.770      4.510
REMARK  3 active torsions:
REMARK  status: ('A' for Active; 'I' for Inactive)
REMARK    1  A    between atoms: O1_2  and  C2_3
REMARK    2  A    between atoms: C8_12  and  O4_13
REMARK    3  A    between atoms: C9_15  and  O5_16
ROOT
HETATM    1  C2  UNL     1      -4.914   1.864  11.682  1.00  0.00     0.293 C
HETATM    2  O2  UNL     1      -4.918   2.507  10.475  1.00  0.00    -0.327 OA
HETATM    3  C3  UNL     1      -4.199   3.636  10.357  1.00  0.00     0.293 C
HETATM    4  O3  UNL     1      -3.582   3.853   9.135  1.00  0.00    -0.270 OA
HETATM    5  N1  UNL     1      -2.595   4.724   9.331  1.00  0.00    -0.194 NA
HETATM    6  C4  UNL     1      -1.493   4.569   8.410  1.00  0.00     0.144 C
HETATM    7  C5  UNL     1      -2.102   4.585  10.675  1.00  0.00     0.093 C
HETATM    8  C6  UNL     1      -2.274   5.899  11.384  1.00  0.00     0.029 C
HETATM    9  C7  UNL     1      -2.944   3.486  11.233  1.00  0.00     0.094 C
HETATM   10  C8  UNL     1      -3.404   3.656  12.624  1.00  0.00     0.162 C
HETATM   11  C9  UNL     1      -4.503   2.653  12.864  1.00  0.00     0.202 C
ENDROOT
BRANCH   1  12
HETATM   12  O1  UNL     1      -4.139   0.713  11.556  1.00  0.00    -0.363 OA
HETATM   13  C1  UNL     1      -4.019   0.029  12.763  1.00  0.00     0.204 C
ENDBRANCH   1  12
BRANCH  11  14
HETATM   14  O5  UNL     1      -5.608   3.249  13.512  1.00  0.00    -0.388 OA
ATOM     15  H5  UNL     1      -5.601   4.196  13.427  1.00  0.00     0.210 HD
ENDBRANCH  11  14
BRANCH  10  16
HETATM   16  O4  UNL     1      -2.340   3.518  13.506  1.00  0.00    -0.392 OA
ATOM     17  H4  UNL     1      -2.633   3.646  14.401  1.00  0.00     0.210 HD
ENDBRANCH  10  16
TORSDOF 3
ENDMDL