MODEL 1
REMARK VINA RESULT: -6.221180881      0.000      0.000
REMARK  3 active torsions:
REMARK  status: ('A' for Active; 'I' for Inactive)
REMARK    1  A    between atoms: O1_1  and  C1_3
REMARK    2  A    between atoms: C2_4  and  N1_5
REMARK    3  A    between atoms: N3_13  and  C8_14
ROOT
HETATM    1  C1  UNL     1      -4.072   2.737  14.892  1.00  0.00     0.250 C
HETATM    2  C2  UNL     1      -3.928   4.170  14.465  1.00  0.00     0.180 C
HETATM    3  C6  UNL     1      -5.328   4.617  14.311  1.00  0.00     0.021 C
HETATM    4  C7  UNL     1      -6.106   3.779  14.979  1.00  0.00     0.089 C
HETATM    5  N3  UNL     1      -5.340   2.770  15.595  1.00  0.00    -0.334 N
ENDROOT
BRANCH   2   6
HETATM    6  N1  UNL     1      -3.195   4.257  13.195  1.00  0.00    -0.291 N
HETATM    7  C3  UNL     1      -3.601   4.986  12.141  1.00  0.00     0.112 A
HETATM    8  C4  UNL     1      -2.663   4.823  11.142  1.00  0.00     0.037 A
HETATM    9  C5  UNL     1      -1.683   3.976  11.621  1.00  0.00     0.108 A
HETATM   10  N2  UNL     1      -2.059   3.664  12.875  1.00  0.00    -0.309 N
ATOM     11  H2  UNL     1      -1.534   3.049  13.497  1.00  0.00     0.186 HD
ENDBRANCH   2   6
BRANCH   1  12
HETATM   12  O1  UNL     1      -4.202   1.876  13.802  1.00  0.00    -0.374 OA
ATOM     13  H1  UNL     1      -4.597   2.306  13.052  1.00  0.00     0.212 HD
ENDBRANCH   1  12
BRANCH   5  14
HETATM   14  C8  UNL     1      -5.696   1.932  16.684  1.00  0.00     0.251 C
HETATM   15  C9  UNL     1      -7.176   1.924  16.989  1.00  0.00     0.224 C
HETATM   16  O2  UNL     1      -7.380   0.641  17.523  1.00  0.00    -0.363 OA
HETATM   17  C10 UNL     1      -6.129   0.035  17.574  1.00  0.00     0.340 C
HETATM   18  O3  UNL     1      -5.489   0.557  16.424  1.00  0.00    -0.340 OA
ENDBRANCH   5  14
TORSDOF 3
ENDMDL