MODEL 2
REMARK VINA RESULT: -6.222834759      1.213      1.629
REMARK  4 active torsions:
REMARK  status: ('A' for Active; 'I' for Inactive)
REMARK    1  A    between atoms: C2_2  and  O1_3
REMARK    2  A    between atoms: O1_3  and  C3_4
REMARK    3  A    between atoms: C8_12  and  O5_13
REMARK    4  A    between atoms: C9_15  and  O6_16
ROOT
HETATM    1  C3  UNL     1      -4.569   1.956  13.835  1.00  0.00     0.294 C
HETATM    2  O2  UNL     1      -3.726   2.915  14.377  1.00  0.00    -0.327 OA
HETATM    3  C4  UNL     1      -3.755   4.124  13.752  1.00  0.00     0.290 C
HETATM    4  C5  UNL     1      -2.427   4.295  13.010  1.00  0.00     0.232 C
HETATM    5  O3  UNL     1      -2.692   3.605  11.833  1.00  0.00    -0.348 OA
HETATM    6  C6  UNL     1      -4.041   3.695  11.583  1.00  0.00     0.192 C
HETATM    7  C7  UNL     1      -4.232   4.546  10.350  1.00  0.00     0.082 C
HETATM    8  O4  UNL     1      -4.658   4.217  12.705  1.00  0.00    -0.321 OA
HETATM    9  C8  UNL     1      -4.638   2.298  11.392  1.00  0.00     0.213 C
HETATM   10  C9  UNL     1      -4.049   1.440  12.498  1.00  0.00     0.207 C
ENDROOT
BRANCH   1  11
HETATM   11  O1  UNL     1      -4.557   0.865  14.704  1.00  0.00    -0.359 OA
BRANCH  11  12
HETATM   12  C2  UNL     1      -4.492   1.313  16.022  1.00  0.00     0.166 C
HETATM   13  C1  UNL     1      -5.731   0.882  16.771  1.00  0.00     0.033 C
ENDBRANCH  11  12
ENDBRANCH   1  11
BRANCH  10  14
HETATM   14  O6  UNL     1      -4.579   0.160  12.329  1.00  0.00    -0.388 OA
ATOM     15  H6  UNL     1      -4.096  -0.415  12.911  1.00  0.00     0.210 HD
ENDBRANCH  10  14
BRANCH   9  16
HETATM   16  O5  UNL     1      -4.405   1.794  10.142  1.00  0.00    -0.387 OA
ATOM     17  H5  UNL     1      -5.207   1.638   9.656  1.00  0.00     0.210 HD
ENDBRANCH   9  16
TORSDOF 4
ENDMDL