MODEL 3
REMARK VINA RESULT: -5.985745967      2.133      2.772
REMARK  4 active torsions:
REMARK  status: ('A' for Active; 'I' for Inactive)
REMARK    1  A    between atoms: C2_3  and  C3_4
REMARK    2  A    between atoms: C4_6  and  N2_7
REMARK    3  A    between atoms: C8_13  and  O2_14
REMARK    4  A    between atoms: C9_18  and  O3_19
ROOT
HETATM    1  N1  UNL     1      -3.900   0.922  16.550  1.00  0.00    -0.197 NA
HETATM    2  C1  UNL     1      -4.466   1.721  15.936  1.00  0.00     0.061 C
HETATM    3  C2  UNL     1      -5.178   2.717  15.173  1.00  0.00     0.160 C
ENDROOT
BRANCH   3   4
HETATM    4  C3  UNL     1      -4.410   3.147  13.923  1.00  0.00     0.185 C
HETATM    5  O1  UNL     1      -5.045   4.319  13.476  1.00  0.00    -0.350 OA
HETATM    6  C4  UNL     1      -4.272   4.843  12.472  1.00  0.00     0.291 C
HETATM    7  C8  UNL     1      -4.083   3.938  11.305  1.00  0.00     0.266 C
HETATM    8  N4  UNL     1      -4.258   2.562  11.539  1.00  0.00    -0.366 N
HETATM    9  C9  UNL     1      -4.567   2.133  12.840  1.00  0.00     0.245 C
ATOM     10  H4  UNL     1      -4.162   1.889  10.778  1.00  0.00     0.158 HD
BRANCH   6  11
HETATM   11  N2  UNL     1      -4.845   6.134  12.100  1.00  0.00    -0.270 N
HETATM   12  C5  UNL     1      -5.956   6.688  12.622  1.00  0.00     0.114 A
HETATM   13  C6  UNL     1      -6.187   7.903  12.030  1.00  0.00     0.037 A
HETATM   14  C7  UNL     1      -5.173   8.078  11.119  1.00  0.00     0.108 A
HETATM   15  N3  UNL     1      -4.383   6.989  11.193  1.00  0.00    -0.308 N
ATOM     16  H3  UNL     1      -3.546   6.841  10.630  1.00  0.00     0.186 HD
ENDBRANCH   6  11
BRANCH   7  17
HETATM   17  O2  UNL     1      -4.954   4.318  10.257  1.00  0.00    -0.372 OA
ATOM     18  H2  UNL     1      -5.783   3.864  10.346  1.00  0.00     0.212 HD
ENDBRANCH   7  17
BRANCH   9  19
HETATM   19  O3  UNL     1      -3.766   1.032  13.172  1.00  0.00    -0.374 OA
ATOM     20  H3  UNL     1      -4.291   0.249  13.052  1.00  0.00     0.212 HD
ENDBRANCH   9  19
ENDBRANCH   3   4
TORSDOF 4
ENDMDL