MODEL 1
REMARK VINA RESULT: -7.348125794      0.000      0.000
REMARK  4 active torsions:
REMARK  status: ('A' for Active; 'I' for Inactive)
REMARK    1  A    between atoms: C2_2  and  C3_3
REMARK    2  A    between atoms: C7_10  and  C8_11
REMARK    3  A    between atoms: C8_11  and  O3_12
REMARK    4  A    between atoms: C9_14  and  O4_15
ROOT
HETATM    1  C3  UNL     1      -3.068   2.820  11.999  1.00  0.00     0.163 C
HETATM    2  C4  UNL     1      -3.523   3.309  10.710  1.00  0.00     0.062 C
HETATM    3  N1  UNL     1      -3.897   3.693   9.681  1.00  0.00    -0.197 NA
ENDROOT
BRANCH   1   4
HETATM    4  C2  UNL     1      -3.914   3.401  13.117  1.00  0.00     0.091 C
HETATM    5  C1  UNL     1      -3.907   4.902  13.053  1.00  0.00     0.049 C
HETATM    6  C5  UNL     1      -5.343   2.930  12.903  1.00  0.00     0.209 C
HETATM    7  O1  UNL     1      -6.198   3.360  13.872  1.00  0.00    -0.356 OA
HETATM    8  C6  UNL     1      -5.676   3.500  15.128  1.00  0.00     0.291 C
HETATM    9  O2  UNL     1      -6.561   2.870  16.015  1.00  0.00    -0.348 OA
HETATM   10  C10 UNL     1      -4.329   2.931  15.347  1.00  0.00     0.209 C
HETATM   11  C7  UNL     1      -5.829   2.036  16.819  1.00  0.00     0.179 C
HETATM   12  C9  UNL     1      -4.722   1.545  15.884  1.00  0.00     0.183 C
HETATM   13  O5  UNL     1      -3.480   2.892  14.306  1.00  0.00    -0.364 OA
BRANCH  11  14
HETATM   14  C8  UNL     1      -6.623   0.887  17.371  1.00  0.00     0.198 C
BRANCH  14  15
HETATM   15  O3  UNL     1      -6.008  -0.288  16.942  1.00  0.00    -0.398 OA
ATOM     16  H3  UNL     1      -6.342  -0.996  17.480  1.00  0.00     0.209 HD
ENDBRANCH  14  15
ENDBRANCH  11  14
BRANCH  12  17
HETATM   17  O4  UNL     1      -3.662   1.001  16.565  1.00  0.00    -0.390 OA
ATOM     18  H4  UNL     1      -3.301   1.597  17.210  1.00  0.00     0.210 HD
ENDBRANCH  12  17
ENDBRANCH   1   4
TORSDOF 4
ENDMDL