MODEL 4
REMARK VINA RESULT: -5.882780437      1.570      4.513
REMARK  3 active torsions:
REMARK  status: ('A' for Active; 'I' for Inactive)
REMARK    1  A    between atoms: O1_2  and  C2_3
REMARK    2  A    between atoms: C3_4  and  C4_5
REMARK    3  A    between atoms: C4_5  and  O2_6
ROOT
HETATM    1  C2  UNL     1      -5.039   2.155  13.460  1.00  0.00     0.183 C
HETATM    2  C3  UNL     1      -5.023   2.146  14.959  1.00  0.00     0.177 C
HETATM    3  O3  UNL     1      -4.475   3.359  15.364  1.00  0.00    -0.372 OA
HETATM    4  C5  UNL     1      -3.553   3.732  14.419  1.00  0.00     0.166 C
HETATM    5  C6  UNL     1      -3.504   5.213  14.158  1.00  0.00     0.097 C
HETATM    6  C7  UNL     1      -2.134   5.701  14.361  1.00  0.00     0.009 C
HETATM    7  C8  UNL     1      -1.495   5.566  13.217  1.00  0.00     0.134 C
HETATM    8  O4  UNL     1      -2.342   5.016  12.243  1.00  0.00    -0.332 OA
HETATM    9  C9  UNL     1      -3.693   5.286  12.668  1.00  0.00     0.276 C
HETATM   10  O5  UNL     1      -4.535   4.243  12.371  1.00  0.00    -0.350 OA
HETATM   11  C10 UNL     1      -3.988   3.178  13.096  1.00  0.00     0.186 C
ENDROOT
BRANCH   2  12
HETATM   12  C4  UNL     1      -4.214   0.970  15.456  1.00  0.00     0.198 C
BRANCH  12  13
HETATM   13  O2  UNL     1      -4.965  -0.183  15.547  1.00  0.00    -0.398 OA
ATOM     14  H2  UNL     1      -4.612  -0.796  16.181  1.00  0.00     0.209 HD
ENDBRANCH  12  13
ENDBRANCH   2  12
BRANCH   1  15
HETATM   15  O1  UNL     1      -4.657   0.943  12.943  1.00  0.00    -0.385 OA
HETATM   16  C1  UNL     1      -4.698   0.909  11.547  1.00  0.00     0.202 C
ENDBRANCH   1  15
TORSDOF 3
ENDMDL