MODEL 4
REMARK VINA RESULT: -5.375341902      1.170      1.170
REMARK  4 active torsions:
REMARK  status: ('A' for Active; 'I' for Inactive)
REMARK    1  A    between atoms: O1_1  and  C1_3
REMARK    2  A    between atoms: C1_3  and  C2_4
REMARK    3  A    between atoms: C7_13  and  C8_14
REMARK    4  A    between atoms: C8_14  and  O5_15
ROOT
HETATM    1  C2  UNL     1      -4.632   2.356  14.603  1.00  0.00     0.176 C
HETATM    2  O2  UNL     1      -3.421   3.014  14.931  1.00  0.00    -0.376 OA
HETATM    3  C3  UNL     1      -3.773   4.379  14.909  1.00  0.00     0.237 C
HETATM    4  C4  UNL     1      -4.077   4.782  13.503  1.00  0.00     0.195 C
HETATM    5  C5  UNL     1      -5.246   5.782  13.603  1.00  0.00     0.147 C
HETATM    6  S1  UNL     1      -5.018   6.534  11.937  1.00  0.00    -0.138 SA
HETATM    7  C6  UNL     1      -3.296   5.915  11.726  1.00  0.00     0.245 C
HETATM    8  O3  UNL     1      -3.016   5.555  13.043  1.00  0.00    -0.342 OA
HETATM    9  O4  UNL     1      -4.461   3.798  12.658  1.00  0.00    -0.342 OA
HETATM   10  C7  UNL     1      -5.004   2.652  13.187  1.00  0.00     0.179 C
ENDROOT
BRANCH  10  11
HETATM   11  C8  UNL     1      -4.835   1.451  12.287  1.00  0.00     0.198 C
BRANCH  11  12
HETATM   12  O5  UNL     1      -5.718   1.533  11.183  1.00  0.00    -0.398 OA
ATOM     13  H5  UNL     1      -5.794   2.432  10.885  1.00  0.00     0.209 HD
ENDBRANCH  11  12
ENDBRANCH  10  11
BRANCH   1  14
HETATM   14  C1  UNL     1      -4.517   0.913  14.933  1.00  0.00     0.198 C
BRANCH  14  15
HETATM   15  O1  UNL     1      -3.753   0.689  16.054  1.00  0.00    -0.398 OA
ATOM     16  H1  UNL     1      -4.234   0.239  16.739  1.00  0.00     0.209 HD
ENDBRANCH  14  15
ENDBRANCH   1  14
TORSDOF 4
ENDMDL