MODEL 4
REMARK VINA RESULT: -6.127621320      1.675      1.856
REMARK  7 active torsions:
REMARK  status: ('A' for Active; 'I' for Inactive)
REMARK    1  A    between atoms: C3_4  and  C4_5
REMARK    2  A    between atoms: C4_5  and  N2_6
REMARK    3  A    between atoms: C6_9  and  O2_10
REMARK    4  A    between atoms: C7_12  and  O3_13
REMARK    5  A    between atoms: C8_15  and  N3_16
REMARK    6  A    between atoms: N3_16  and  N4_18
REMARK    7  A    between atoms: N4_18  and  N5_19
ROOT
HETATM    1  N1  UNL     1      -5.730   0.172  18.012  1.00  0.00    -0.182 NA
HETATM    2  C1  UNL     1      -5.827   1.068  17.288  1.00  0.00     0.152 C
HETATM    3  C2  UNL     1      -5.929   2.159  16.395  1.00  0.00     0.019 C
HETATM    4  C3  UNL     1      -5.995   3.101  15.609  1.00  0.00    -0.045 C
ENDROOT
BRANCH   4   5
HETATM    5  C4  UNL     1      -6.049   4.204  14.649  1.00  0.00     0.160 C
BRANCH   5   6
HETATM    6  N2  UNL     1      -4.953   4.159  13.817  1.00  0.00    -0.313 N
HETATM    7  C5  UNL     1      -4.375   5.316  13.262  1.00  0.00     0.234 C
HETATM    8  O1  UNL     1      -2.991   5.269  13.451  1.00  0.00    -0.313 OA
HETATM    9  C6  UNL     1      -2.403   4.201  12.845  1.00  0.00     0.296 C
HETATM   10  C7  UNL     1      -3.040   2.873  13.171  1.00  0.00     0.218 C
HETATM   11  C8  UNL     1      -4.564   2.936  13.181  1.00  0.00     0.253 C
BRANCH   9  12
HETATM   12  O2  UNL     1      -1.077   4.118  13.362  1.00  0.00    -0.368 OA
ATOM     13  H2  UNL     1      -0.906   3.198  13.525  1.00  0.00     0.212 HD
ENDBRANCH   9  12
BRANCH  10  14
HETATM   14  O3  UNL     1      -2.598   1.931  12.253  1.00  0.00    -0.387 OA
ATOM     15  H3  UNL     1      -3.206   1.201  12.250  1.00  0.00     0.210 HD
ENDBRANCH  10  14
BRANCH  11  16
HETATM   16  N3  UNL     1      -4.995   3.052  11.806  1.00  0.00    -0.226 N
ATOM     17  H3  UNL     1      -5.160   3.978  11.410  1.00  0.00     0.199 HD
BRANCH  16  18
HETATM   18  N4  UNL     1      -5.164   2.065  11.109  1.00  0.00    -0.246 NA
BRANCH  18  19
HETATM   19  N5  UNL     1      -5.190   0.958  10.591  1.00  0.00    -0.261 N
ATOM     20  H52 UNL     1      -4.381   0.666  11.141  1.00  0.00     0.193 HD
ATOM     21  H51 UNL     1      -5.381   0.113  10.052  1.00  0.00     0.193 HD
ENDBRANCH  18  19
ENDBRANCH  16  18
ENDBRANCH  11  16
ENDBRANCH   5   6
ENDBRANCH   4   5
TORSDOF 7
ENDMDL