MODEL 2
REMARK VINA RESULT: -5.789376395      2.034      4.117
REMARK  4 active torsions:
REMARK  status: ('A' for Active; 'I' for Inactive)
REMARK    1  A    between atoms: O1_2  and  C2_3
REMARK    2  A    between atoms: C6_9  and  O4_10
REMARK    3  A    between atoms: C7_12  and  O5_13
REMARK    4  A    between atoms: C8_15  and  O6_16
ROOT
HETATM    1  C2  UNL     1      -2.598   3.932  10.441  1.00  0.00     0.294 C
HETATM    2  O2  UNL     1      -2.242   2.619  10.148  1.00  0.00    -0.320 OA
HETATM    3  C3  UNL     1      -2.430   1.759  11.216  1.00  0.00     0.192 C
HETATM    4  C4  UNL     1      -1.205   0.925  11.419  1.00  0.00     0.082 C
HETATM    5  O3  UNL     1      -2.690   2.427  12.412  1.00  0.00    -0.342 OA
HETATM    6  C5  UNL     1      -4.013   2.885  12.207  1.00  0.00     0.190 C
HETATM    7  C6  UNL     1      -3.940   3.972  11.185  1.00  0.00     0.205 C
HETATM    8  C7  UNL     1      -4.711   1.651  11.753  1.00  0.00     0.184 C
HETATM    9  C8  UNL     1      -3.664   0.939  10.929  1.00  0.00     0.214 C
ENDROOT
BRANCH   1  10
HETATM   10  O1  UNL     1      -1.603   4.439  11.283  1.00  0.00    -0.363 OA
HETATM   11  C1  UNL     1      -0.566   4.880  10.481  1.00  0.00     0.204 C
ENDBRANCH   1  10
BRANCH   7  12
HETATM   12  O4  UNL     1      -5.009   4.030  10.327  1.00  0.00    -0.388 OA
ATOM     13  H4  UNL     1      -4.745   4.242   9.439  1.00  0.00     0.210 HD
ENDBRANCH   7  12
BRANCH   9  14
HETATM   14  O6  UNL     1      -3.526  -0.386  11.255  1.00  0.00    -0.383 OA
HETATM   15  C9  UNL     1      -4.192  -0.757  12.413  1.00  0.00     0.202 C
ENDBRANCH   9  14
BRANCH   8  16
HETATM   16  O5  UNL     1      -5.859   1.932  11.058  1.00  0.00    -0.390 OA
ATOM     17  H5  UNL     1      -6.508   1.242  11.144  1.00  0.00     0.210 HD
ENDBRANCH   8  16
TORSDOF 4
ENDMDL