MODEL 5
REMARK VINA RESULT: -5.554878828      2.783      3.907
REMARK  6 active torsions:
REMARK  status: ('A' for Active; 'I' for Inactive)
REMARK    1  A    between atoms: O1_2  and  C2_3
REMARK    2  A    between atoms: C5_8  and  O4_9
REMARK    3  A    between atoms: C6_11  and  O5_12
REMARK    4  A    between atoms: C7_14  and  N1_15
REMARK    5  A    between atoms: N1_15  and  N2_17
REMARK    6  A    between atoms: N2_17  and  N3_18
ROOT
HETATM    1  C2  UNL     1      -2.935   3.802  10.458  1.00  0.00     0.289 C
HETATM    2  O2  UNL     1      -2.165   2.705  10.091  1.00  0.00    -0.335 OA
HETATM    3  C3  UNL     1      -1.069   2.658  10.956  1.00  0.00     0.341 C
HETATM    4  O3  UNL     1      -1.397   1.730  11.946  1.00  0.00    -0.364 OA
HETATM    5  C4  UNL     1      -2.154   0.740  11.336  1.00  0.00     0.204 C
HETATM    6  C5  UNL     1      -3.620   1.006  11.330  1.00  0.00     0.173 C
HETATM    7  C6  UNL     1      -4.041   2.228  12.076  1.00  0.00     0.179 C
HETATM    8  C7  UNL     1      -4.174   3.451  11.199  1.00  0.00     0.200 C
ENDROOT
BRANCH   8   9
HETATM    9  N1  UNL     1      -4.522   4.567  12.058  1.00  0.00    -0.240 N
ATOM     10  H1  UNL     1      -4.086   5.483  11.950  1.00  0.00     0.197 HD
BRANCH   9  11
HETATM   11  N2  UNL     1      -5.370   4.352  12.922  1.00  0.00    -0.248 NA
BRANCH  11  12
HETATM   12  N3  UNL     1      -6.048   4.216  13.960  1.00  0.00    -0.261 N
ATOM     13  H32 UNL     1      -6.154   3.219  13.769  1.00  0.00     0.193 HD
ATOM     14  H31 UNL     1      -6.570   4.310  14.831  1.00  0.00     0.193 HD
ENDBRANCH  11  12
ENDBRANCH   9  11
ENDBRANCH   8   9
BRANCH   1  15
HETATM   15  O1  UNL     1      -3.294   4.506   9.311  1.00  0.00    -0.364 OA
HETATM   16  C1  UNL     1      -2.500   5.632   9.124  1.00  0.00     0.204 C
ENDBRANCH   1  15
BRANCH   7  17
HETATM   17  O5  UNL     1      -3.267   2.479  13.212  1.00  0.00    -0.391 OA
ATOM     18  H5  UNL     1      -3.567   2.015  13.984  1.00  0.00     0.210 HD
ENDBRANCH   7  17
BRANCH   6  19
HETATM   19  O4  UNL     1      -4.257  -0.130  11.880  1.00  0.00    -0.391 OA
ATOM     20  H4  UNL     1      -4.857   0.179  12.550  1.00  0.00     0.210 HD
ENDBRANCH   6  19
TORSDOF 6
ENDMDL