MODEL 2
REMARK VINA RESULT: -5.943605709      1.434      3.685
REMARK  6 active torsions:
REMARK  status: ('A' for Active; 'I' for Inactive)
REMARK    1  A    between atoms: C4_5  and  N2_6
REMARK    2  A    between atoms: N2_6  and  N3_8
REMARK    3  A    between atoms: N3_8  and  N4_9
REMARK    4  A    between atoms: C6_13  and  O1_14
REMARK    5  A    between atoms: C7_16  and  C8_17
REMARK    6  A    between atoms: C8_17  and  O2_18
ROOT
HETATM    1  N1  UNL     1      -4.204   0.299  16.343  1.00  0.00    -0.195 NA
HETATM    2  C1  UNL     1      -4.296   0.943  15.386  1.00  0.00     0.091 C
HETATM    3  C2  UNL     1      -4.409   1.750  14.145  1.00  0.00     0.230 C
HETATM    4  C3  UNL     1      -5.406   2.853  14.478  1.00  0.00     0.074 C
HETATM    5  C4  UNL     1      -5.670   3.767  13.334  1.00  0.00     0.120 C
HETATM    6  C5  UNL     1      -4.673   3.640  12.209  1.00  0.00     0.062 C
HETATM    7  C6  UNL     1      -4.925   2.442  11.345  1.00  0.00     0.151 C
HETATM    8  C7  UNL     1      -4.382   1.165  11.893  1.00  0.00     0.175 C
HETATM    9  O3  UNL     1      -4.825   0.913  13.160  1.00  0.00    -0.362 OA
ENDROOT
BRANCH   5  10
HETATM   10  N2  UNL     1      -5.624   5.140  13.800  1.00  0.00    -0.248 N
ATOM     11  H2  UNL     1      -5.285   5.882  13.187  1.00  0.00     0.197 HD
BRANCH  10  12
HETATM   12  N3  UNL     1      -5.999   5.402  14.949  1.00  0.00    -0.248 NA
BRANCH  12  13
HETATM   13  N4  UNL     1      -6.007   5.802  16.132  1.00  0.00    -0.261 N
ATOM     14  H42 UNL     1      -6.341   4.925  16.532  1.00  0.00     0.193 HD
ATOM     15  H41 UNL     1      -5.908   6.397  16.955  1.00  0.00     0.193 HD
ENDBRANCH  12  13
ENDBRANCH  10  12
ENDBRANCH   5  10
BRANCH   8  16
HETATM   16  C8  UNL     1      -2.881   1.051  11.736  1.00  0.00     0.198 C
BRANCH  16  17
HETATM   17  O2  UNL     1      -2.568   0.563  10.468  1.00  0.00    -0.398 OA
ATOM     18  H2  UNL     1      -2.008   1.179  10.010  1.00  0.00     0.209 HD
ENDBRANCH  16  17
ENDBRANCH   8  16
BRANCH   7  19
HETATM   19  O1  UNL     1      -4.436   2.680  10.084  1.00  0.00    -0.393 OA
ATOM     20  H1  UNL     1      -3.663   2.146   9.941  1.00  0.00     0.210 HD
ENDBRANCH   7  19
TORSDOF 6
ENDMDL