MODEL 5
REMARK VINA RESULT: -6.118280650      2.877      5.314
REMARK  3 active torsions:
REMARK  status: ('A' for Active; 'I' for Inactive)
REMARK    1  A    between atoms: N4_13  and  C9_14
REMARK    2  A    between atoms: C9_14  and  C10_15
REMARK    3  A    between atoms: C10_15  and  O2_16
ROOT
HETATM    1  N1  UNL     1      -2.816   4.687   8.248  1.00  0.00    -0.171 NA
HETATM    2  C1  UNL     1      -2.704   4.557   9.399  1.00  0.00     0.197 C
HETATM    3  N2  UNL     1      -2.549   4.394  10.782  1.00  0.00    -0.230 N
HETATM    4  C2  UNL     1      -3.738   4.502  11.590  1.00  0.00     0.297 C
HETATM    5  N3  UNL     1      -4.885   3.787  11.043  1.00  0.00    -0.079 NA
HETATM    6  O1  UNL     1      -5.255   2.723  11.747  1.00  0.00    -0.285 OA
HETATM    7  C3  UNL     1      -5.112   1.491  11.090  1.00  0.00     0.196 C
HETATM    8  C4  UNL     1      -4.243   0.514  11.836  1.00  0.00     0.028 C
HETATM    9  C5  UNL     1      -3.165  -0.141  11.041  1.00  0.00     0.002 C
HETATM   10  C6  UNL     1      -1.766   0.458  11.307  1.00  0.00     0.001 C
HETATM   11  C7  UNL     1      -1.985   1.938  11.176  1.00  0.00     0.016 C
HETATM   12  C8  UNL     1      -0.785   2.801  10.991  1.00  0.00     0.114 C
HETATM   13  N4  UNL     1      -1.256   4.153  11.247  1.00  0.00    -0.217 NA
ENDROOT
BRANCH  13  14
HETATM   14  C9  UNL     1      -0.294   5.066  10.656  1.00  0.00     0.140 C
BRANCH  14  15
HETATM   15  C10 UNL     1       1.041   4.827  11.285  1.00  0.00     0.180 C
BRANCH  15  16
HETATM   16  O2  UNL     1       1.043   5.347  12.598  1.00  0.00    -0.400 OA
ATOM     17  H2  UNL     1       1.593   4.806  13.152  1.00  0.00     0.209 HD
ENDBRANCH  15  16
ENDBRANCH  14  15
ENDBRANCH  13  14
TORSDOF 3
ENDMDL