MODEL 3
REMARK VINA RESULT: -5.637108534      1.712      2.500
REMARK  3 active torsions:
REMARK  status: ('A' for Active; 'I' for Inactive)
REMARK    1  A    between atoms: C5_10  and  C6_11
REMARK    2  A    between atoms: C9_16  and  C10_17
REMARK    3  A    between atoms: C10_17  and  O2_18
ROOT
HETATM    1  N1  UNL     1      -5.317   3.842  16.471  1.00  0.00    -0.195 NA
HETATM    2  C1  UNL     1      -5.587   3.844  15.346  1.00  0.00     0.085 C
HETATM    3  C2  UNL     1      -5.941   3.824  13.902  1.00  0.00     0.197 C
HETATM    4  N2  UNL     1      -6.827   4.956  13.709  1.00  0.00    -0.369 N
ATOM      5  H2  UNL     1      -7.828   4.878  13.886  1.00  0.00     0.161 HD
HETATM    6  C3  UNL     1      -6.252   6.176  13.267  1.00  0.00     0.172 C
HETATM    7  N3  UNL     1      -5.316   6.104  12.383  1.00  0.00    -0.386 N
ATOM      8  H3  UNL     1      -4.867   6.949  12.029  1.00  0.00     0.160 HD
HETATM    9  C4  UNL     1      -4.920   4.805  11.904  1.00  0.00     0.130 C
HETATM   10  C5  UNL     1      -4.724   3.852  13.064  1.00  0.00     0.067 C
ENDROOT
BRANCH  10  11
HETATM   11  C6  UNL     1      -4.209   2.524  12.617  1.00  0.00     0.106 C
HETATM   12  C7  UNL     1      -4.339   1.503  13.657  1.00  0.00     0.074 C
HETATM   13  N4  UNL     1      -4.430   0.697  14.485  1.00  0.00    -0.196 NA
HETATM   14  C8  UNL     1      -2.867   2.486  11.972  1.00  0.00     0.196 C
HETATM   15  O1  UNL     1      -3.432   2.411  10.699  1.00  0.00    -0.380 OA
HETATM   16  C9  UNL     1      -4.628   2.016  11.294  1.00  0.00     0.170 C
BRANCH  16  17
HETATM   17  C10 UNL     1      -4.731   0.486  11.201  1.00  0.00     0.197 C
BRANCH  17  18
HETATM   18  O2  UNL     1      -4.681   0.183   9.837  1.00  0.00    -0.398 OA
ATOM     19  H2  UNL     1      -5.507  -0.240   9.635  1.00  0.00     0.209 HD
ENDBRANCH  17  18
ENDBRANCH  16  17
ENDBRANCH  10  11
TORSDOF 3
ENDMDL