MODEL 1
REMARK VINA RESULT: -6.342644180      0.000      0.000
REMARK  4 active torsions:
REMARK  status: ('A' for Active; 'I' for Inactive)
REMARK    1  A    between atoms: O1_1  and  C1_3
REMARK    2  A    between atoms: C1_3  and  C2_4
REMARK    3  A    between atoms: C3_6  and  N1_7
REMARK    4  A    between atoms: C10_17  and  O4_18
ROOT
HETATM    1  C2  UNL     1      -3.318   0.345  12.365  1.00  0.00     0.179 C
HETATM    2  O2  UNL     1      -3.639   1.442  13.107  1.00  0.00    -0.355 OA
HETATM    3  C3  UNL     1      -4.486   2.352  12.554  1.00  0.00     0.246 C
HETATM    4  C7  UNL     1      -3.877   3.311  11.591  1.00  0.00     0.090 C
HETATM    5  C8  UNL     1      -2.450   3.060  11.259  1.00  0.00     0.158 A
HETATM    6  O3  UNL     1      -1.616   2.331  12.062  1.00  0.00    -0.372 OA
HETATM    7  C9  UNL     1      -2.080   1.755  10.777  1.00  0.00     0.182 A
HETATM    8  C10 UNL     1      -3.068   0.650  10.896  1.00  0.00     0.180 C
ENDROOT
BRANCH   3   9
HETATM    9  N1  UNL     1      -5.058   3.141  13.649  1.00  0.00    -0.274 N
HETATM   10  C4  UNL     1      -5.048   2.835  14.962  1.00  0.00     0.114 A
HETATM   11  C5  UNL     1      -5.687   3.822  15.691  1.00  0.00     0.037 A
HETATM   12  C6  UNL     1      -6.087   4.749  14.751  1.00  0.00     0.108 A
HETATM   13  N2  UNL     1      -5.691   4.297  13.561  1.00  0.00    -0.308 N
ATOM     14  H2  UNL     1      -5.857   4.789  12.682  1.00  0.00     0.186 HD
ENDBRANCH   3   9
BRANCH   1  15
HETATM   15  C1  UNL     1      -4.244  -0.830  12.542  1.00  0.00     0.198 C
BRANCH  15  16
HETATM   16  O1  UNL     1      -3.950  -1.911  11.753  1.00  0.00    -0.398 OA
ATOM     17  H1  UNL     1      -4.536  -2.034  11.016  1.00  0.00     0.209 HD
ENDBRANCH  15  16
ENDBRANCH   1  15
BRANCH   8  18
HETATM   18  O4  UNL     1      -4.222   0.818  10.173  1.00  0.00    -0.390 OA
ATOM     19  H4  UNL     1      -4.207   0.375   9.333  1.00  0.00     0.210 HD
ENDBRANCH   8  18
TORSDOF 4
ENDMDL