MODEL 1
REMARK VINA RESULT: -6.907937710      0.000      0.000
REMARK  4 active torsions:
REMARK  status: ('A' for Active; 'I' for Inactive)
REMARK    1  A    between atoms: O1_2  and  C2_3
REMARK    2  A    between atoms: C3_4  and  C4_5
REMARK    3  A    between atoms: C8_12  and  O5_13
REMARK    4  A    between atoms: C9_15  and  O6_16
ROOT
HETATM    1  C4  UNL     1      -4.570   3.197  14.087  1.00  0.00     0.183 C
HETATM    2  O2  UNL     1      -3.647   2.174  13.927  1.00  0.00    -0.319 OA
HETATM    3  C5  UNL     1      -3.890   1.554  12.731  1.00  0.00     0.313 C
HETATM    4  O3  UNL     1      -4.596   0.398  12.945  1.00  0.00    -0.329 OA
HETATM    5  C6  UNL     1      -3.921  -0.644  12.307  1.00  0.00     0.200 C
HETATM    6  C7  UNL     1      -3.156   0.150  11.267  1.00  0.00     0.200 C
HETATM    7  O4  UNL     1      -2.696   1.202  12.077  1.00  0.00    -0.329 OA
HETATM    8  C8  UNL     1      -4.601   2.534  11.829  1.00  0.00     0.242 C
HETATM    9  C9  UNL     1      -4.938   3.693  12.720  1.00  0.00     0.187 C
ENDROOT
BRANCH   1  10
HETATM   10  C3  UNL     1      -5.781   2.760  14.802  1.00  0.00     0.032 C
HETATM   11  C2  UNL     1      -5.838   2.803  16.113  1.00  0.00     0.132 C
BRANCH  11  12
HETATM   12  O1  UNL     1      -6.952   2.404  16.839  1.00  0.00    -0.368 OA
HETATM   13  C1  UNL     1      -7.248   1.053  17.124  1.00  0.00     0.208 C
ENDBRANCH  11  12
ENDBRANCH   1  10
BRANCH   9  14
HETATM   14  O6  UNL     1      -4.177   4.816  12.389  1.00  0.00    -0.390 OA
ATOM     15  H6  UNL     1      -4.060   4.870  11.449  1.00  0.00     0.210 HD
ENDBRANCH   9  14
BRANCH   8  16
HETATM   16  O5  UNL     1      -5.725   2.007  11.227  1.00  0.00    -0.385 OA
ATOM     17  H5  UNL     1      -5.927   2.409  10.390  1.00  0.00     0.210 HD
ENDBRANCH   8  16
TORSDOF 4
ENDMDL