MODEL 5
REMARK VINA RESULT: -5.797387679      2.306      5.142
REMARK  4 active torsions:
REMARK  status: ('A' for Active; 'I' for Inactive)
REMARK    1  A    between atoms: O1_2  and  C2_3
REMARK    2  A    between atoms: C5_7  and  O3_8
REMARK    3  A    between atoms: C5_7  and  C6_10
REMARK    4  A    between atoms: C6_10  and  O4_11
ROOT
HETATM    1  C2  UNL     1      -6.557   0.729  17.992  1.00  0.00     0.298 C
HETATM    2  C3  UNL     1      -7.207   1.614  16.919  1.00  0.00     0.098 C
HETATM    3  C4  UNL     1      -6.066   2.213  16.145  1.00  0.00     0.162 C
HETATM    4  O2  UNL     1      -6.469   2.816  14.958  1.00  0.00    -0.345 OA
HETATM    5  C5  UNL     1      -5.395   3.595  14.529  1.00  0.00     0.183 C
HETATM    6  C7  UNL     1      -4.194   2.720  14.320  1.00  0.00     0.073 C
HETATM    7  C8  UNL     1      -4.542   1.245  14.484  1.00  0.00     0.043 C
HETATM    8  C9  UNL     1      -5.090   1.074  15.861  1.00  0.00     0.190 C
HETATM    9  O5  UNL     1      -5.800  -0.106  16.041  1.00  0.00    -0.230 OA
HETATM   10  O6  UNL     1      -5.905  -0.302  17.339  1.00  0.00    -0.208 OA
ENDROOT
BRANCH   5  11
HETATM   11  O3  UNL     1      -5.175   4.545  15.542  1.00  0.00    -0.364 OA
ATOM     12  H3  UNL     1      -4.776   5.296  15.116  1.00  0.00     0.213 HD
ENDBRANCH   5  11
BRANCH   5  13
HETATM   13  C6  UNL     1      -5.723   4.368  13.272  1.00  0.00     0.232 C
BRANCH  13  14
HETATM   14  O4  UNL     1      -6.860   5.129  13.538  1.00  0.00    -0.396 OA
ATOM     15  H4  UNL     1      -7.113   5.553  12.726  1.00  0.00     0.209 HD
ENDBRANCH  13  14
ENDBRANCH   5  13
BRANCH   1  16
HETATM   16  O1  UNL     1      -5.677   1.563  18.680  1.00  0.00    -0.363 OA
HETATM   17  C1  UNL     1      -6.374   2.587  19.337  1.00  0.00     0.204 C
ENDBRANCH   1  16
TORSDOF 4
ENDMDL