MODEL 4
REMARK VINA RESULT: -6.580364757      2.136      3.639
REMARK  4 active torsions:
REMARK  status: ('A' for Active; 'I' for Inactive)
REMARK    1  A    between atoms: C3_4  and  C4_5
REMARK    2  A    between atoms: C5_7  and  N2_8
REMARK    3  A    between atoms: C9_14  and  O2_15
REMARK    4  A    between atoms: C10_17  and  O3_18
ROOT
HETATM    1  N1  UNL     1      -4.778   6.908  12.320  1.00  0.00    -0.192 NA
HETATM    2  C1  UNL     1      -5.661   6.370  12.834  1.00  0.00     0.087 C
HETATM    3  C2  UNL     1      -6.770   5.690  13.456  1.00  0.00     0.092 C
HETATM    4  C3  UNL     1      -6.608   4.532  14.052  1.00  0.00     0.018 C
ENDROOT
BRANCH   4   5
HETATM    5  C4  UNL     1      -5.282   3.882  14.107  1.00  0.00     0.179 C
HETATM    6  O1  UNL     1      -5.079   3.181  12.953  1.00  0.00    -0.350 OA
HETATM    7  C5  UNL     1      -4.870   1.861  13.236  1.00  0.00     0.275 C
HETATM    8  C9  UNL     1      -4.448   1.764  14.684  1.00  0.00     0.200 C
HETATM    9  C10 UNL     1      -5.121   2.978  15.278  1.00  0.00     0.184 C
BRANCH   7  10
HETATM   10  N2  UNL     1      -3.896   1.270  12.337  1.00  0.00    -0.272 N
HETATM   11  C6  UNL     1      -4.032   0.168  11.567  1.00  0.00     0.114 A
HETATM   12  C7  UNL     1      -2.862  -0.049  10.858  1.00  0.00     0.037 A
HETATM   13  C8  UNL     1      -2.018   0.965  11.235  1.00  0.00     0.108 A
HETATM   14  N3  UNL     1      -2.674   1.727  12.115  1.00  0.00    -0.308 N
ATOM     15  H3  UNL     1      -2.281   2.557  12.559  1.00  0.00     0.186 HD
ENDBRANCH   7  10
BRANCH   8  16
HETATM   16  O2  UNL     1      -4.896   0.586  15.279  1.00  0.00    -0.388 OA
ATOM     17  H2  UNL     1      -5.659   0.733  15.825  1.00  0.00     0.210 HD
ENDBRANCH   8  16
BRANCH   9  18
HETATM   18  O3  UNL     1      -6.333   2.660  15.887  1.00  0.00    -0.390 OA
ATOM     19  H3  UNL     1      -6.225   2.303  16.761  1.00  0.00     0.210 HD
ENDBRANCH   9  18
ENDBRANCH   4   5
TORSDOF 4
ENDMDL