MODEL 4
REMARK VINA RESULT: -5.530242128      1.291      1.377
REMARK  4 active torsions:
REMARK  status: ('A' for Active; 'I' for Inactive)
REMARK    1  A    between atoms: O1_2  and  C2_3
REMARK    2  A    between atoms: C4_5  and  O2_6
REMARK    3  A    between atoms: C6_9  and  C8_11
REMARK    4  A    between atoms: C8_11  and  O3_12
ROOT
HETATM    1  C2  UNL     1      -1.448   4.245  10.532  1.00  0.00     0.127 C
HETATM    2  C3  UNL     1      -1.120   4.404   9.034  1.00  0.00     0.053 C
HETATM    3  C4  UNL     1      -2.958   4.283  10.649  1.00  0.00     0.159 C
HETATM    4  C5  UNL     1      -3.592   2.940  10.347  1.00  0.00     0.077 C
HETATM    5  C6  UNL     1      -3.395   1.969  11.499  1.00  0.00     0.105 C
HETATM    6  C7  UNL     1      -2.768   0.716  10.927  1.00  0.00     0.050 C
HETATM    7  O4  UNL     1      -2.548   2.624  12.400  1.00  0.00    -0.263 OA
HETATM    8  N1  UNL     1      -1.301   2.307  12.083  1.00  0.00    -0.031 NA
HETATM    9  O5  UNL     1      -0.263   3.100  12.299  1.00  0.00    -0.248 OA
HETATM   10  C9  UNL     1      -0.810   2.994  11.006  1.00  0.00     0.314 A
ENDROOT
BRANCH   5  11
HETATM   11  C8  UNL     1      -4.702   1.591  12.144  1.00  0.00     0.203 C
BRANCH  11  12
HETATM   12  O3  UNL     1      -5.748   1.805  11.232  1.00  0.00    -0.398 OA
ATOM     13  H3  UNL     1      -6.103   0.967  10.958  1.00  0.00     0.209 HD
ENDBRANCH  11  12
ENDBRANCH   5  11
BRANCH   3  14
HETATM   14  O2  UNL     1      -3.519   5.198   9.761  1.00  0.00    -0.392 OA
ATOM     15  H2  UNL     1      -2.948   5.944   9.619  1.00  0.00     0.210 HD
ENDBRANCH   3  14
BRANCH   1  16
HETATM   16  O1  UNL     1      -0.978   5.412  11.125  1.00  0.00    -0.379 OA
HETATM   17  C1  UNL     1      -0.059   6.105  10.376  1.00  0.00     0.202 C
ENDBRANCH   1  16
TORSDOF 4
ENDMDL