MODEL 5
REMARK VINA RESULT: -6.668513322      1.522      3.401
REMARK  16 active torsions:
REMARK  status: ('A' for Active; 'I' for Inactive)
REMARK    1  A    between atoms: N1_2  and  C2_3
REMARK       I    between atoms: N1_2  and  C12_22
REMARK    2  A    between atoms: C2_3  and  C3_4
REMARK    3  A    between atoms: C3_4  and  C4_5
REMARK    4  A    between atoms: C4_5  and  C5_6
REMARK    5  A    between atoms: C5_6  and  N2_7
REMARK    6  A    between atoms: N2_7  and  C6_8
REMARK    7  A    between atoms: N2_7  and  C9_15
REMARK    8  A    between atoms: C6_8  and  C7_9
REMARK    9  A    between atoms: C7_9  and  C8_10
REMARK   10  A    between atoms: C8_10  and  N3_11
REMARK   11  A    between atoms: C9_15  and  C10_16
REMARK   12  A    between atoms: C10_16  and  N4_17
REMARK   13  A    between atoms: C12_22  and  C13_24
REMARK   14  A    between atoms: C13_24  and  N7_25
REMARK   15  A    between atoms: C13_24  and  C14_29
REMARK   16  A    between atoms: C14_29  and  C15_30
ROOT
HETATM    1  C3  UNL     1      30.314  19.242  11.025  1.00  0.00     0.025 C
ENDROOT
BRANCH   1   2
HETATM    2  C2  UNL     1      30.719  18.892   9.587  1.00  0.00     0.125 C
BRANCH   2   3
HETATM    3  N1  UNL     1      32.024  18.224   9.704  1.00  0.00    -0.355 N
HETATM    4  C1  UNL     1      32.138  17.144  10.635  1.00  0.00     0.152 C
HETATM    5  C12 UNL     1      33.074  18.682   8.898  1.00  0.00     0.250 C
HETATM    6  O1  UNL     1      32.843  19.671   8.100  1.00  0.00    -0.271 OA
BRANCH   5   7
HETATM    7  C13 UNL     1      34.458  18.176   8.831  1.00  0.00     0.279 C
BRANCH   7   8
HETATM    8  N7  UNL     1      34.734  17.366   7.688  1.00  0.00    -0.066 N
ATOM      9  H73 UNL     1      33.980  16.695   7.536  1.00  0.00     0.275 HD
ATOM     10  H72 UNL     1      34.652  17.917   6.833  1.00  0.00     0.275 HD
ATOM     11  H71 UNL     1      35.634  16.888   7.718  1.00  0.00     0.275 HD
ENDBRANCH   7   8
BRANCH   7  12
HETATM   12  C14 UNL     1      35.446  19.328   9.001  1.00  0.00     0.081 C
BRANCH  12  13
HETATM   13  C15 UNL     1      36.633  18.904   9.767  1.00  0.00    -0.056 A
HETATM   14  C16 UNL     1      37.810  19.569   9.626  1.00  0.00     0.007 A
HETATM   15  C17 UNL     1      38.946  19.200  10.318  1.00  0.00     0.001 A
HETATM   16  C18 UNL     1      38.890  18.124  11.181  1.00  0.00     0.000 A
HETATM   17  C19 UNL     1      37.692  17.463  11.314  1.00  0.00     0.001 A
HETATM   18  C20 UNL     1      36.556  17.814  10.635  1.00  0.00     0.007 A
ENDBRANCH  12  13
ENDBRANCH   7  12
ENDBRANCH   5   7
ENDBRANCH   2   3
ENDBRANCH   1   2
BRANCH   1  19
HETATM   19  C4  UNL     1      28.960  19.921  10.953  1.00  0.00     0.046 C
BRANCH  19  20
HETATM   20  C5  UNL     1      28.274  19.732  12.290  1.00  0.00     0.068 C
BRANCH  20  21
HETATM   21  N2  UNL     1      27.596  20.913  12.649  1.00  0.00    -0.353 N
BRANCH  21  22
HETATM   22  C6  UNL     1      27.437  21.918  11.702  1.00  0.00     0.069 C
BRANCH  22  23
HETATM   23  C7  UNL     1      28.043  23.258  12.042  1.00  0.00     0.072 C
BRANCH  23  24
HETATM   24  C8  UNL     1      27.011  24.332  11.898  1.00  0.00     0.234 C
BRANCH  24  25
HETATM   25  N3  UNL     1      26.104  24.361  13.020  1.00  0.00    -0.079 N
ATOM     26  H33 UNL     1      26.598  24.216  13.900  1.00  0.00     0.274 HD
ATOM     27  H32 UNL     1      25.751  25.303  13.188  1.00  0.00     0.274 HD
ATOM     28  H31 UNL     1      25.340  23.694  12.909  1.00  0.00     0.274 HD
ENDBRANCH  24  25
ENDBRANCH  23  24
ENDBRANCH  22  23
ENDBRANCH  21  22
BRANCH  21  29
HETATM   29  C9  UNL     1      26.738  20.839  13.765  1.00  0.00     0.087 C
BRANCH  29  30
HETATM   30  C10 UNL     1      27.265  21.398  15.044  1.00  0.00     0.166 C
BRANCH  30  31
HETATM   31  N4  UNL     1      26.083  21.705  15.868  1.00  0.00    -0.362 N
HETATM   32  C11 UNL     1      25.843  21.098  16.964  1.00  0.00     0.197 C
HETATM   33  N5  UNL     1      24.680  21.460  17.694  1.00  0.00    -0.067 NA
HETATM   34  N6  UNL     1      26.753  20.093  17.391  1.00  0.00    -0.067 NA
ATOM     35  H4  UNL     1      25.436  22.427  15.553  1.00  0.00     0.162 HD
ENDBRANCH  30  31
ENDBRANCH  29  30
ENDBRANCH  21  29
ENDBRANCH  20  21
ENDBRANCH  19  20
ENDBRANCH   1  19
TORSDOF 16
ENDMDL