MODEL 2
REMARK VINA RESULT: -5.784104954      1.913      2.194
REMARK  18 active torsions:
REMARK  status: ('A' for Active; 'I' for Inactive)
REMARK    1  A    between atoms: N1_2  and  C2_3
REMARK    2  A    between atoms: N1_2  and  C4_9
REMARK    3  A    between atoms: N1_2  and  C6_13
REMARK    4  A    between atoms: C2_3  and  C3_4
REMARK    5  A    between atoms: C3_4  and  N2_5
REMARK    6  A    between atoms: C4_9  and  C5_10
REMARK    7  A    between atoms: C6_13  and  C7_14
REMARK    8  A    between atoms: N4_16  and  C9_17
REMARK    9  A    between atoms: C9_17  and  C10_18
REMARK   10  A    between atoms: C10_18  and  C11_19
REMARK   11  A    between atoms: C11_19  and  O2_20
REMARK   12  A    between atoms: C12_22  and  C13_23
REMARK   13  A    between atoms: C13_23  and  C14_24
REMARK   14  A    between atoms: C14_24  and  C15_25
REMARK   15  A    between atoms: C15_25  and  C16_26
REMARK   16  A    between atoms: C16_26  and  C17_27
REMARK   17  A    between atoms: C17_27  and  C18_28
REMARK   18  A    between atoms: C18_28  and  C19_29
ROOT
HETATM    1  C7  UNL     1      26.987  20.099  14.717  1.00  0.00     0.051 A
HETATM    2  C8  UNL     1      27.122  21.110  13.796  1.00  0.00     0.117 A
HETATM    3  N4  UNL     1      27.769  20.923  12.602  1.00  0.00    -0.357 N
HETATM    4  C12 UNL     1      28.295  19.736  12.291  1.00  0.00     0.026 A
HETATM    5  C20 UNL     1      28.165  18.714  13.213  1.00  0.00     0.113 A
HETATM    6  N6  UNL     1      27.533  18.921  14.366  1.00  0.00    -0.365 N
ATOM      7  H6  UNL     1      27.457  18.142  15.020  1.00  0.00     0.165 HD
ENDROOT
BRANCH   1   8
HETATM    8  C6  UNL     1      26.293  20.336  15.976  1.00  0.00     0.295 C
BRANCH   8   9
HETATM    9  N1  UNL     1      24.919  19.876  16.029  1.00  0.00    -0.056 N
HETATM   10  C1  UNL     1      24.234  20.020  14.764  1.00  0.00     0.273 C
BRANCH   9  11
HETATM   11  C2  UNL     1      24.241  20.703  16.986  1.00  0.00     0.265 C
BRANCH  11  12
HETATM   12  C3  UNL     1      25.117  21.509  17.873  1.00  0.00     0.257 C
BRANCH  12  13
HETATM   13  N2  UNL     1      24.409  22.550  18.597  1.00  0.00    -0.078 N
ATOM     14  H23 UNL     1      24.991  23.382  18.693  1.00  0.00     0.274 HD
ATOM     15  H22 UNL     1      23.655  22.936  18.029  1.00  0.00     0.274 HD
ATOM     16  H21 UNL     1      24.058  22.248  19.506  1.00  0.00     0.274 HD
ENDBRANCH  12  13
ENDBRANCH  11  12
ENDBRANCH   9  11
BRANCH   9  17
HETATM   17  C4  UNL     1      24.952  18.483  16.398  1.00  0.00     0.336 C
BRANCH  17  18
HETATM   18  C5  UNL     1      24.277  17.580  15.458  1.00  0.00     0.257 C
HETATM   19  N3  UNL     1      25.028  17.145  14.333  1.00  0.00    -0.061 NA
HETATM   20  O1  UNL     1      23.107  17.145  15.534  1.00  0.00    -0.275 OA
ENDBRANCH  17  18
ENDBRANCH   9  17
ENDBRANCH   8   9
ENDBRANCH   1   8
BRANCH   3  21
HETATM   21  C9  UNL     1      27.884  22.036  11.699  1.00  0.00     0.130 C
BRANCH  21  22
HETATM   22  C10 UNL     1      26.511  22.553  11.328  1.00  0.00     0.046 C
BRANCH  22  23
HETATM   23  C11 UNL     1      25.905  21.726  10.210  1.00  0.00     0.165 C
BRANCH  23  24
HETATM   24  O2  UNL     1      24.858  22.445   9.600  1.00  0.00    -0.401 OA
ATOM     25  H2  UNL     1      25.216  23.140   9.060  1.00  0.00     0.209 HD
ENDBRANCH  23  24
ENDBRANCH  22  23
ENDBRANCH  21  22
ENDBRANCH   3  21
BRANCH   4  26
HETATM   26  C13 UNL     1      29.035  19.483  11.032  1.00  0.00     0.058 C
BRANCH  26  27
HETATM   27  C14 UNL     1      29.534  18.091  10.845  1.00  0.00     0.006 C
BRANCH  27  28
HETATM   28  C15 UNL     1      30.969  17.954  10.460  1.00  0.00     0.000 C
BRANCH  28  29
HETATM   29  C16 UNL     1      31.545  19.322  10.116  1.00  0.00     0.000 C
BRANCH  29  30
HETATM   30  C17 UNL     1      32.740  19.580  10.982  1.00  0.00     0.005 C
BRANCH  30  31
HETATM   31  C18 UNL     1      33.581  18.345  11.144  1.00  0.00     0.044 C
BRANCH  31  32
HETATM   32  C19 UNL     1      34.975  18.547  10.663  1.00  0.00     0.052 C
HETATM   33  N5  UNL     1      35.919  17.736  10.942  1.00  0.00    -0.411 N
ATOM     34  H52 UNL     1      35.693  16.925  11.517  1.00  0.00     0.155 HD
ATOM     35  H51 UNL     1      36.874  17.875  10.612  1.00  0.00     0.155 HD
ENDBRANCH  31  32
ENDBRANCH  30  31
ENDBRANCH  29  30
ENDBRANCH  28  29
ENDBRANCH  27  28
ENDBRANCH  26  27
ENDBRANCH   4  26
TORSDOF 18
ENDMDL