MODEL 1
REMARK VINA RESULT: -6.138857270      0.000      0.000
REMARK  15 active torsions:
REMARK  status: ('A' for Active; 'I' for Inactive)
REMARK    1  A    between atoms: N1_2  and  C2_5
REMARK    2  A    between atoms: C2_5  and  C3_6
REMARK    3  A    between atoms: C3_6  and  C4_7
REMARK    4  A    between atoms: C4_7  and  C5_8
REMARK    5  A    between atoms: C5_8  and  C6_9
REMARK    6  A    between atoms: N2_10  and  C7_12
REMARK    7  A    between atoms: C7_12  and  C8_13
REMARK    8  A    between atoms: C7_12  and  C17_30
REMARK    9  A    between atoms: C8_13  and  N3_14
REMARK   10  A    between atoms: N3_14  and  C9_15
REMARK   11  A    between atoms: N3_14  and  C11_21
REMARK   12  A    between atoms: C9_15  and  C10_16
REMARK   13  A    between atoms: C10_16  and  N4_17
REMARK   14  A    between atoms: C11_21  and  C12_22
REMARK   15  A    between atoms: C15_27  and  O1_28
ROOT
HETATM    1  C7  UNL     1      26.945  23.708  16.183  1.00  0.00     0.049 C
ENDROOT
BRANCH   1   2
HETATM    2  N2  UNL     1      26.697  25.029  15.815  1.00  0.00    -0.371 N
HETATM    3  C6  UNL     1      27.014  25.770  14.726  1.00  0.00     0.061 C
ATOM      4  H2  UNL     1      26.164  25.548  16.513  1.00  0.00     0.164 HD
BRANCH   3   5
HETATM    5  C5  UNL     1      28.439  26.183  14.441  1.00  0.00     0.044 C
BRANCH   5   6
HETATM    6  C4  UNL     1      28.508  27.048  13.177  1.00  0.00     0.007 C
BRANCH   6   7
HETATM    7  C3  UNL     1      28.058  26.281  11.981  1.00  0.00     0.028 C
BRANCH   7   8
HETATM    8  C2  UNL     1      27.324  27.155  10.981  1.00  0.00     0.231 C
BRANCH   8   9
HETATM    9  N1  UNL     1      26.117  27.641  11.667  1.00  0.00    -0.079 N
HETATM   10  C1  UNL     1      25.563  28.711  10.856  1.00  0.00     0.266 C
ATOM     11  H12 UNL     1      26.291  27.920  12.632  1.00  0.00     0.276 HD
ATOM     12  H11 UNL     1      25.444  26.900  11.864  1.00  0.00     0.276 HD
ENDBRANCH   8   9
ENDBRANCH   7   8
ENDBRANCH   6   7
ENDBRANCH   5   6
ENDBRANCH   3   5
ENDBRANCH   1   2
BRANCH   1  13
HETATM   13  C8  UNL     1      27.314  22.728  15.137  1.00  0.00     0.330 C
BRANCH  13  14
HETATM   14  N3  UNL     1      26.277  22.267  14.245  1.00  0.00     0.101 N
BRANCH  14  15
HETATM   15  C9  UNL     1      26.266  22.927  12.973  1.00  0.00     0.300 C
BRANCH  15  16
HETATM   16  C10 UNL     1      26.877  22.040  11.880  1.00  0.00     0.259 C
BRANCH  16  17
HETATM   17  N4  UNL     1      28.171  22.665  11.572  1.00  0.00    -0.078 N
ATOM     18  H43 UNL     1      28.523  22.453  10.639  1.00  0.00     0.274 HD
ATOM     19  H42 UNL     1      28.124  23.677  11.449  1.00  0.00     0.274 HD
ATOM     20  H41 UNL     1      28.789  22.367  12.327  1.00  0.00     0.274 HD
ENDBRANCH  16  17
ENDBRANCH  15  16
ENDBRANCH  14  15
BRANCH  14  21
HETATM   21  C11 UNL     1      26.318  20.829  14.129  1.00  0.00     0.332 C
BRANCH  21  22
HETATM   22  C12 UNL     1      25.348  20.061  14.913  1.00  0.00     0.071 A
HETATM   23  N5  UNL     1      24.420  20.474  15.770  1.00  0.00    -0.365 N
HETATM   24  C13 UNL     1      23.794  19.410  16.297  1.00  0.00     0.091 A
ATOM     25  H5  UNL     1      24.216  21.449  15.993  1.00  0.00     0.165 HD
HETATM   26  C14 UNL     1      24.336  18.270  15.762  1.00  0.00     0.055 A
HETATM   27  C15 UNL     1      25.307  18.679  14.897  1.00  0.00     0.093 A
BRANCH  27  28
HETATM   28  O1  UNL     1      26.127  17.832  14.121  1.00  0.00    -0.354 OA
HETATM   29  C16 UNL     1      27.285  17.292  14.722  1.00  0.00     0.210 C
ENDBRANCH  27  28
ENDBRANCH  21  22
ENDBRANCH  14  21
ENDBRANCH  13  14
ENDBRANCH   1  13
BRANCH   1  30
HETATM   30  C17 UNL     1      26.272  23.262  17.411  1.00  0.00     0.004 A
HETATM   31  C18 UNL     1      26.494  22.037  18.024  1.00  0.00     0.020 A
HETATM   32  C19 UNL     1      25.805  21.652  19.156  1.00  0.00     0.075 A
HETATM   33  C20 UNL     1      24.852  22.472  19.736  1.00  0.00     0.245 A
HETATM   34  O2  UNL     1      24.216  22.129  20.770  1.00  0.00    -0.268 OA
HETATM   35  N6  UNL     1      24.638  23.650  19.146  1.00  0.00    -0.333 N
HETATM   36  C21 UNL     1      25.295  24.043  18.050  1.00  0.00     0.104 A
ATOM     37  H6  UNL     1      23.942  24.278  19.549  1.00  0.00     0.168 HD
ENDBRANCH   1  30
TORSDOF 15
ENDMDL