MODEL 5
REMARK VINA RESULT: -6.205738463      1.182      1.584
REMARK  18 active torsions:
REMARK  status: ('A' for Active; 'I' for Inactive)
REMARK    1  A    between atoms: C2_2  and  C3_3
REMARK    2  A    between atoms: C3_3  and  N1_4
REMARK    3  A    between atoms: N1_4  and  C4_6
REMARK    4  A    between atoms: C5_9  and  N3_10
REMARK    5  A    between atoms: N3_10  and  C6_12
REMARK    6  A    between atoms: C6_12  and  C7_13
REMARK    7  A    between atoms: C7_13  and  C8_14
REMARK    8  A    between atoms: C9_15  and  C10_16
REMARK    9  A    between atoms: C10_16  and  N4_17
REMARK   10  A    between atoms: C11_23  and  N6_24
REMARK   11  A    between atoms: N6_24  and  C12_26
REMARK   12  A    between atoms: C12_26  and  C13_27
REMARK   13  A    between atoms: C13_27  and  C14_28
REMARK   14  A    between atoms: C14_28  and  C15_29
REMARK   15  A    between atoms: C15_29  and  N7_30
REMARK   16  A    between atoms: N7_30  and  C16_33
REMARK   17  A    between atoms: C16_33  and  C17_34
REMARK   18  A    between atoms: C17_34  and  N8_35
ROOT
HETATM    1  C4  UNL     1      26.695  24.023  12.378  1.00  0.00     0.707 A
HETATM    2  N2  UNL     1      25.977  23.292  13.238  1.00  0.00    -0.021 N
ATOM      3  H2  UNL     1      25.267  23.762  13.799  1.00  0.00     0.203 HD
HETATM    4  C5  UNL     1      26.148  21.968  13.398  1.00  0.00     0.710 A
HETATM    5  N5  UNL     1      27.075  21.311  12.679  1.00  0.00    -0.021 N
ATOM      6  H5  UNL     1      27.214  20.307  12.793  1.00  0.00     0.203 HD
HETATM    7  C11 UNL     1      27.820  22.023  11.799  1.00  0.00     0.707 A
HETATM    8  N9  UNL     1      27.632  23.342  11.656  1.00  0.00    -0.022 N
ATOM      9  H9  UNL     1      28.208  23.853  10.987  1.00  0.00     0.203 HD
ENDROOT
BRANCH   7  10
HETATM   10  N6  UNL     1      28.691  21.363  11.152  1.00  0.00    -0.225 N
ATOM     11  H6  UNL     1      29.541  21.866  10.898  1.00  0.00     0.177 HD
BRANCH  10  12
HETATM   12  C12 UNL     1      28.621  20.011  10.742  1.00  0.00     0.138 C
BRANCH  12  13
HETATM   13  C13 UNL     1      29.963  19.284  10.750  1.00  0.00     0.022 C
BRANCH  13  14
HETATM   14  C14 UNL     1      30.406  18.885   9.366  1.00  0.00     0.029 C
BRANCH  14  15
HETATM   15  C15 UNL     1      31.829  19.281   9.155  1.00  0.00     0.232 C
BRANCH  15  16
HETATM   16  N7  UNL     1      32.411  18.511   8.093  1.00  0.00    -0.073 N
ATOM     17  H72 UNL     1      31.698  18.006   7.568  1.00  0.00     0.277 HD
ATOM     18  H71 UNL     1      32.761  19.114   7.348  1.00  0.00     0.277 HD
BRANCH  16  19
HETATM   19  C16 UNL     1      33.428  17.631   8.566  1.00  0.00     0.262 C
BRANCH  19  20
HETATM   20  C17 UNL     1      34.306  18.346   9.578  1.00  0.00     0.298 C
BRANCH  20  21
HETATM   21  N8  UNL     1      35.694  18.117   9.332  1.00  0.00     0.081 N
HETATM   22  C18 UNL     1      36.235  19.095   8.442  1.00  0.00     0.309 C
HETATM   23  C19 UNL     1      36.485  17.954  10.513  1.00  0.00     0.309 C
ENDBRANCH  20  21
ENDBRANCH  19  20
ENDBRANCH  16  19
ENDBRANCH  15  16
ENDBRANCH  14  15
ENDBRANCH  13  14
ENDBRANCH  12  13
ENDBRANCH  10  12
ENDBRANCH   7  10
BRANCH   4  24
HETATM   24  N3  UNL     1      25.462  21.272  14.221  1.00  0.00    -0.204 N
ATOM     25  H3  UNL     1      24.572  21.656  14.536  1.00  0.00     0.183 HD
BRANCH  24  26
HETATM   26  C6  UNL     1      25.841  20.023  14.723  1.00  0.00     0.082 C
BRANCH  26  27
HETATM   27  C7  UNL     1      26.301  19.983  16.134  1.00  0.00     0.072 C
BRANCH  27  28
HETATM   28  C8  UNL     1      25.359  20.185  17.220  1.00  0.00    -0.024 C
HETATM   29  C9  UNL     1      24.704  21.392  17.660  1.00  0.00    -0.004 C
BRANCH  29  30
HETATM   30  C10 UNL     1      25.378  22.568  18.220  1.00  0.00     0.256 C
BRANCH  30  31
HETATM   31  N4  UNL     1      25.772  23.579  17.252  1.00  0.00    -0.076 N
ATOM     32  H43 UNL     1      26.318  23.153  16.503  1.00  0.00     0.274 HD
ATOM     33  H42 UNL     1      24.959  23.895  16.723  1.00  0.00     0.274 HD
ATOM     34  H41 UNL     1      26.272  24.381  17.637  1.00  0.00     0.274 HD
ENDBRANCH  30  31
ENDBRANCH  29  30
ENDBRANCH  27  28
ENDBRANCH  26  27
ENDBRANCH  24  26
ENDBRANCH   4  24
BRANCH   1  35
HETATM   35  N1  UNL     1      26.583  25.262  12.169  1.00  0.00    -0.222 N
ATOM     36  H1  UNL     1      25.934  25.782  12.760  1.00  0.00     0.178 HD
BRANCH  35  37
HETATM   37  C3  UNL     1      27.287  25.987  11.179  1.00  0.00     0.164 C
BRANCH  37  38
HETATM   38  C2  UNL     1      27.278  27.474  11.461  1.00  0.00    -0.017 C
HETATM   39  C1  UNL     1      26.876  28.303  10.535  1.00  0.00     0.008 C
ENDBRANCH  37  38
ENDBRANCH  35  37
ENDBRANCH   1  35
TORSDOF 18
ENDMDL