MODEL 3
REMARK VINA RESULT: -5.757452992      2.720      5.753
REMARK  16 active torsions:
REMARK  status: ('A' for Active; 'I' for Inactive)
REMARK    1  A    between atoms: N1_2  and  C3_5
REMARK    2  A    between atoms: C3_5  and  C4_6
REMARK    3  A    between atoms: C4_6  and  N2_7
REMARK    4  A    between atoms: N2_7  and  C5_9
REMARK    5  A    between atoms: C5_9  and  C6_13
REMARK    6  A    between atoms: C6_13  and  C7_14
REMARK    7  A    between atoms: C6_13  and  N4_17
REMARK    8  A    between atoms: C7_14  and  C8_15
REMARK    9  A    between atoms: N4_17  and  C9_18
REMARK   10  A    between atoms: N4_17  and  C13_26
REMARK   11  A    between atoms: C9_18  and  C10_19
REMARK   12  A    between atoms: C10_19  and  C11_20
REMARK   13  A    between atoms: C11_20  and  C12_21
REMARK   14  A    between atoms: C12_21  and  N5_22
REMARK   15  A    between atoms: C13_26  and  C14_27
REMARK   16  A    between atoms: C17_30  and  C18_31
ROOT
HETATM    1  N4  UNL     1      27.240  24.094  13.631  1.00  0.00     0.104 N
ENDROOT
BRANCH   1   2
HETATM    2  C6  UNL     1      27.307  22.720  13.268  1.00  0.00     0.295 C
BRANCH   2   3
HETATM    3  C5  UNL     1      25.906  22.120  13.404  1.00  0.00     0.105 C
HETATM    4  N3  UNL     1      25.035  22.385  12.505  1.00  0.00    -0.387 N
ATOM      5  H32 UNL     1      24.101  21.985  12.596  1.00  0.00     0.157 HD
ATOM      6  H31 UNL     1      25.292  22.985  11.722  1.00  0.00     0.157 HD
BRANCH   3   7
HETATM    7  N2  UNL     1      25.552  21.295  14.481  1.00  0.00    -0.376 N
ATOM      8  H2  UNL     1      25.250  21.782  15.325  1.00  0.00     0.160 HD
BRANCH   7   9
HETATM    9  C4  UNL     1      25.555  19.881  14.563  1.00  0.00     0.157 C
BRANCH   9  10
HETATM   10  C3  UNL     1      26.927  19.247  14.670  1.00  0.00     0.330 C
BRANCH  10  11
HETATM   11  N1  UNL     1      26.838  17.823  14.852  1.00  0.00     0.007 N
HETATM   12  C1  UNL     1      27.397  17.389  16.117  1.00  0.00     0.355 C
HETATM   13  C2  UNL     1      25.473  17.335  14.810  1.00  0.00     0.355 C
HETATM   14  O1  UNL     1      27.528  17.144  13.890  1.00  0.00    -0.065 OA
ENDBRANCH  10  11
ENDBRANCH   9  10
ENDBRANCH   7   9
ENDBRANCH   3   7
ENDBRANCH   2   3
BRANCH   2  15
HETATM   15  C7  UNL     1      27.663  22.437  11.852  1.00  0.00     0.113 C
BRANCH  15  16
HETATM   16  C8  UNL     1      28.194  21.099  11.559  1.00  0.00     0.233 C
HETATM   17  O2  UNL     1      29.211  20.944  10.875  1.00  0.00    -0.307 OA
ENDBRANCH  15  16
ENDBRANCH   2  15
ENDBRANCH   1   2
BRANCH   1  18
HETATM   18  C9  UNL     1      27.514  25.031  12.614  1.00  0.00     0.274 C
BRANCH  18  19
HETATM   19  C10 UNL     1      26.612  26.245  12.567  1.00  0.00     0.032 C
BRANCH  19  20
HETATM   20  C11 UNL     1      27.293  27.270  11.677  1.00  0.00     0.029 C
BRANCH  20  21
HETATM   21  C12 UNL     1      26.205  28.102  10.994  1.00  0.00     0.229 C
BRANCH  21  22
HETATM   22  N5  UNL     1      26.882  28.982  10.071  1.00  0.00    -0.079 N
ATOM     23  H53 UNL     1      26.301  29.263   9.281  1.00  0.00     0.274 HD
ATOM     24  H52 UNL     1      27.042  29.916  10.447  1.00  0.00     0.274 HD
ATOM     25  H51 UNL     1      27.739  28.505   9.792  1.00  0.00     0.274 HD
ENDBRANCH  21  22
ENDBRANCH  20  21
ENDBRANCH  19  20
ENDBRANCH  18  19
ENDBRANCH   1  18
BRANCH   1  26
HETATM   26  C13 UNL     1      28.014  24.390  14.819  1.00  0.00     0.312 C
BRANCH  26  27
HETATM   27  C14 UNL     1      27.279  24.210  16.085  1.00  0.00    -0.030 A
HETATM   28  C15 UNL     1      26.476  25.176  16.642  1.00  0.00     0.010 A
HETATM   29  C16 UNL     1      25.823  24.932  17.845  1.00  0.00     0.015 A
HETATM   30  C17 UNL     1      25.954  23.735  18.509  1.00  0.00     0.004 A
HETATM   31  C19 UNL     1      26.761  22.740  17.967  1.00  0.00     0.015 A
HETATM   32  C20 UNL     1      27.389  23.008  16.789  1.00  0.00     0.010 A
BRANCH  30  33
HETATM   33  C18 UNL     1      25.251  23.514  19.777  1.00  0.00     0.120 C
HETATM   34  N6  UNL     1      24.128  22.904  19.771  1.00  0.00    -0.387 N
ATOM     35  H62 UNL     1      23.714  22.564  18.903  1.00  0.00     0.157 HD
ATOM     36  H61 UNL     1      23.639  22.750  20.653  1.00  0.00     0.157 HD
HETATM   37  N7  UNL     1      25.818  23.980  20.968  1.00  0.00    -0.082 NA
ENDBRANCH  30  33
ENDBRANCH  26  27
ENDBRANCH   1  26
TORSDOF 16
ENDMDL