MODEL 3
REMARK VINA RESULT: -6.399751044      1.408      1.776
REMARK  17 active torsions:
REMARK  status: ('A' for Active; 'I' for Inactive)
REMARK    1  A    between atoms: N1_2  and  C3_4
REMARK    2  A    between atoms: N1_2  and  C9_14
REMARK    3  A    between atoms: C3_4  and  C4_5
REMARK    4  A    between atoms: C4_5  and  C5_6
REMARK    5  A    between atoms: C5_6  and  C6_7
REMARK    6  A    between atoms: C6_7  and  C7_8
REMARK    7  A    between atoms: C7_8  and  C8_9
REMARK    8  A    between atoms: C8_9  and  N2_10
REMARK    9  A    between atoms: C9_14  and  C10_15
REMARK   10  A    between atoms: C10_15  and  C11_16
REMARK   11  A    between atoms: C11_16  and  C12_17
REMARK   12  A    between atoms: C12_17  and  C13_18
REMARK   13  A    between atoms: C13_18  and  C14_19
REMARK   14  A    between atoms: C14_19  and  N3_20
REMARK   15  A    between atoms: C16_22  and  C17_23
REMARK   16  A    between atoms: C17_23  and  N4_24
REMARK       I    between atoms: N5_29  and  C19_30
REMARK       I    between atoms: C19_30  and  N6_32
REMARK   17  A    between atoms: N6_32  and  N7_34
ROOT
HETATM    1  N3  UNL     1      28.081  21.057  11.657  1.00  0.00    -0.288 N
HETATM    2  C15 UNL     1      27.698  20.472  12.820  1.00  0.00     0.121 A
HETATM    3  C16 UNL     1      27.140  21.254  13.789  1.00  0.00     0.002 A
HETATM    4  C18 UNL     1      26.990  22.596  13.544  1.00  0.00     0.133 A
HETATM    5  N5  UNL     1      27.381  23.161  12.372  1.00  0.00    -0.200 N
HETATM    6  C19 UNL     1      27.208  24.555  12.157  1.00  0.00     0.360 C
HETATM    7  O1  UNL     1      26.695  25.259  13.055  1.00  0.00    -0.243 OA
HETATM    8  N6  UNL     1      27.605  25.153  10.955  1.00  0.00    -0.256 N
ATOM      9  H6  UNL     1      28.023  24.578  10.224  1.00  0.00     0.191 HD
HETATM   10  N8  UNL     1      27.909  22.354  11.484  1.00  0.00    -0.231 N
ATOM     11  H8  UNL     1      28.208  22.757  10.595  1.00  0.00     0.209 HD
ENDROOT
BRANCH   1  12
HETATM   12  C14 UNL     1      28.666  20.183  10.663  1.00  0.00     0.150 C
BRANCH  12  13
HETATM   13  C13 UNL     1      29.055  18.844  11.269  1.00  0.00     0.022 C
BRANCH  13  14
HETATM   14  C12 UNL     1      30.247  18.262  10.564  1.00  0.00     0.002 C
BRANCH  14  15
HETATM   15  C11 UNL     1      31.297  19.297  10.226  1.00  0.00     0.002 C
BRANCH  15  16
HETATM   16  C10 UNL     1      32.338  18.657   9.372  1.00  0.00     0.028 C
BRANCH  16  17
HETATM   17  C9  UNL     1      33.703  18.934   9.962  1.00  0.00     0.236 C
BRANCH  17  18
HETATM   18  N1  UNL     1      34.749  18.913   8.935  1.00  0.00    -0.075 N
HETATM   19  C1  UNL     1      34.420  17.763   8.085  1.00  0.00     0.272 C
HETATM   20  C2  UNL     1      34.513  20.067   8.113  1.00  0.00     0.272 C
BRANCH  18  21
HETATM   21  C3  UNL     1      35.987  18.783   9.580  1.00  0.00     0.236 C
BRANCH  21  22
HETATM   22  C4  UNL     1      36.160  17.959  10.781  1.00  0.00     0.028 C
BRANCH  22  23
HETATM   23  C5  UNL     1      37.501  17.458  11.145  1.00  0.00     0.002 C
BRANCH  23  24
HETATM   24  C6  UNL     1      38.589  18.509  11.045  1.00  0.00     0.002 C
BRANCH  24  25
HETATM   25  C7  UNL     1      39.906  17.846  11.343  1.00  0.00     0.027 C
BRANCH  25  26
HETATM   26  C8  UNL     1      40.489  18.274  12.655  1.00  0.00     0.229 C
BRANCH  26  27
HETATM   27  N2  UNL     1      41.020  19.626  12.535  1.00  0.00    -0.079 N
ATOM     28  H23 UNL     1      42.003  19.677  12.800  1.00  0.00     0.274 HD
ATOM     29  H22 UNL     1      41.115  19.917  11.563  1.00  0.00     0.274 HD
ATOM     30  H21 UNL     1      40.441  20.269  13.075  1.00  0.00     0.274 HD
ENDBRANCH  26  27
ENDBRANCH  25  26
ENDBRANCH  24  25
ENDBRANCH  23  24
ENDBRANCH  22  23
ENDBRANCH  21  22
ENDBRANCH  18  21
ENDBRANCH  17  18
ENDBRANCH  16  17
ENDBRANCH  15  16
ENDBRANCH  14  15
ENDBRANCH  13  14
ENDBRANCH  12  13
ENDBRANCH   1  12
BRANCH   3  31
HETATM   31  C17 UNL     1      26.711  20.621  15.084  1.00  0.00     0.271 C
BRANCH  31  32
HETATM   32  N4  UNL     1      25.920  21.609  15.790  1.00  0.00    -0.075 N
ATOM     33  H43 UNL     1      26.479  22.226  16.379  1.00  0.00     0.274 HD
ATOM     34  H42 UNL     1      25.536  22.329  15.178  1.00  0.00     0.274 HD
ATOM     35  H41 UNL     1      25.205  21.098  16.307  1.00  0.00     0.274 HD
ENDBRANCH  31  32
ENDBRANCH   3  31
BRANCH   8  36
HETATM   36  N7  UNL     1      27.438  26.529  10.736  1.00  0.00    -0.341 N
ATOM     37  H72 UNL     1      26.747  27.028  11.297  1.00  0.00     0.177 HD
ATOM     38  H71 UNL     1      27.989  27.026  10.036  1.00  0.00     0.177 HD
ENDBRANCH   8  36
TORSDOF 17
ENDMDL