MODEL 1
REMARK VINA RESULT: -6.869458520      0.000      0.000
REMARK  16 active torsions:
REMARK  status: ('A' for Active; 'I' for Inactive)
REMARK    1  A    between atoms: N1_2  and  C3_5
REMARK    2  A    between atoms: N1_2  and  C12_20
REMARK    3  A    between atoms: C3_5  and  C4_6
REMARK    4  A    between atoms: C4_6  and  C5_7
REMARK    5  A    between atoms: C5_7  and  C6_8
REMARK    6  A    between atoms: C6_8  and  C7_9
REMARK    7  A    between atoms: C7_9  and  C8_10
REMARK    8  A    between atoms: C8_10  and  N3_11
REMARK    9  A    between atoms: N3_11  and  C9_13
REMARK   10  A    between atoms: C9_13  and  C10_14
REMARK   11  A    between atoms: C10_14  and  N4_15
REMARK   12  A    between atoms: C12_20  and  C13_21
REMARK   13  A    between atoms: C13_21  and  C14_22
REMARK   14  A    between atoms: C14_22  and  N7_23
REMARK   15  A    between atoms: N7_23  and  C15_25
REMARK   16  A    between atoms: C15_25  and  C16_26
ROOT
HETATM    1  C1  UNL     1      32.430  20.539  10.181  1.00  0.00     0.292 C
HETATM    2  N1  UNL     1      33.406  19.677   9.545  1.00  0.00     0.016 N
HETATM    3  C2  UNL     1      33.912  20.340   8.402  1.00  0.00     0.283 C
HETATM    4  N2  UNL     1      34.321  20.899   7.475  1.00  0.00    -0.165 NA
ENDROOT
BRANCH   2   5
HETATM    5  C3  UNL     1      34.464  19.405  10.472  1.00  0.00     0.256 C
BRANCH   5   6
HETATM    6  C4  UNL     1      34.921  17.963  10.509  1.00  0.00     0.029 C
BRANCH   6   7
HETATM    7  C5  UNL     1      36.326  17.825   9.968  1.00  0.00     0.002 C
BRANCH   7   8
HETATM    8  C6  UNL     1      37.415  17.977  10.956  1.00  0.00     0.002 C
BRANCH   8   9
HETATM    9  C7  UNL     1      38.544  18.873  10.585  1.00  0.00     0.019 C
BRANCH   9  10
HETATM   10  C8  UNL     1      39.892  18.361  11.075  1.00  0.00     0.113 C
BRANCH  10  11
HETATM   11  N3  UNL     1      39.827  17.943  12.455  1.00  0.00    -0.420 N
ATOM     12  H3  UNL     1      39.120  17.290  12.794  1.00  0.00     0.153 HD
BRANCH  11  13
HETATM   13  C9  UNL     1      40.815  18.506  13.310  1.00  0.00     0.133 C
BRANCH  13  14
HETATM   14  C10 UNL     1      40.649  19.959  13.641  1.00  0.00     0.141 C
BRANCH  14  15
HETATM   15  N4  UNL     1      41.698  20.773  13.047  1.00  0.00    -0.365 N
HETATM   16  C11 UNL     1      41.404  21.771  12.261  1.00  0.00     0.197 C
HETATM   17  N5  UNL     1      40.040  22.030  12.012  1.00  0.00    -0.067 NA
HETATM   18  N6  UNL     1      42.417  22.572  11.674  1.00  0.00    -0.067 NA
ATOM     19  H4  UNL     1      42.676  20.560  13.248  1.00  0.00     0.161 HD
ENDBRANCH  14  15
ENDBRANCH  13  14
ENDBRANCH  11  13
ENDBRANCH  10  11
ENDBRANCH   9  10
ENDBRANCH   8   9
ENDBRANCH   7   8
ENDBRANCH   6   7
ENDBRANCH   5   6
ENDBRANCH   2   5
BRANCH   2  20
HETATM   20  C12 UNL     1      32.749  18.449   9.118  1.00  0.00     0.257 C
BRANCH  20  21
HETATM   21  C13 UNL     1      31.364  18.797   8.628  1.00  0.00     0.048 C
BRANCH  21  22
HETATM   22  C14 UNL     1      30.354  17.772   9.130  1.00  0.00     0.116 C
BRANCH  22  23
HETATM   23  N7  UNL     1      29.531  18.219  10.187  1.00  0.00    -0.415 N
ATOM     24  H7  UNL     1      29.426  17.657  11.032  1.00  0.00     0.153 HD
BRANCH  23  25
HETATM   25  C15 UNL     1      28.854  19.456  10.059  1.00  0.00     0.190 C
BRANCH  25  26
HETATM   26  C16 UNL     1      28.459  20.107  11.332  1.00  0.00     0.090 C
HETATM   27  N8  UNL     1      28.353  19.378  12.424  1.00  0.00    -0.379 N
HETATM   28  C17 UNL     1      27.966  19.991  13.682  1.00  0.00     0.122 C
ATOM     29  H8  UNL     1      28.545  18.377  12.386  1.00  0.00     0.160 HD
HETATM   30  C18 UNL     1      26.894  21.039  13.473  1.00  0.00     0.039 C
HETATM   31  C19 UNL     1      27.433  22.086  12.552  1.00  0.00     0.122 C
HETATM   32  N9  UNL     1      28.173  21.476  11.478  1.00  0.00    -0.379 N
ATOM     33  H9  UNL     1      28.525  22.099  10.751  1.00  0.00     0.160 HD
ENDBRANCH  25  26
ENDBRANCH  23  25
ENDBRANCH  22  23
ENDBRANCH  21  22
ENDBRANCH  20  21
ENDBRANCH   2  20
TORSDOF 16
ENDMDL