MODEL 5
REMARK VINA RESULT: -6.655822601      2.740      3.477
REMARK  17 active torsions:
REMARK  status: ('A' for Active; 'I' for Inactive)
REMARK    1  A    between atoms: N2_3  and  C2_4
REMARK    2  A    between atoms: C2_4  and  C3_5
REMARK    3  A    between atoms: C2_4  and  N5_17
REMARK    4  A    between atoms: C3_5  and  N3_6
REMARK    5  A    between atoms: N3_6  and  C4_8
REMARK    6  A    between atoms: C4_8  and  C5_9
REMARK    7  A    between atoms: C5_9  and  N4_10
REMARK       I    between atoms: N4_10  and  C6_12
REMARK    8  A    between atoms: C6_12  and  C7_14
REMARK    9  A    between atoms: N5_17  and  C10_19
REMARK   10  A    between atoms: C10_19  and  C11_20
REMARK   11  A    between atoms: C11_20  and  N6_21
REMARK   12  A    between atoms: N6_21  and  C12_24
REMARK   13  A    between atoms: C12_24  and  C13_25
REMARK   14  A    between atoms: C13_25  and  C14_26
REMARK   15  A    between atoms: C14_26  and  N7_27
REMARK   16  A    between atoms: N7_27  and  C15_30
REMARK   17  A    between atoms: C15_30  and  C16_31
ROOT
HETATM    1  N1  UNL     1      24.596  17.184  14.751  1.00  0.00    -0.156 NA
HETATM    2  C1  UNL     1      25.576  17.727  14.430  1.00  0.00     0.270 C
HETATM    3  N2  UNL     1      26.623  18.310  14.041  1.00  0.00    -0.315 NA
ENDROOT
BRANCH   3   4
HETATM    4  C2  UNL     1      27.615  18.869  13.681  1.00  0.00     0.182 C
BRANCH   4   5
HETATM    5  C3  UNL     1      27.856  20.299  14.238  1.00  0.00     0.207 C
BRANCH   5   6
HETATM    6  N3  UNL     1      27.169  21.237  13.464  1.00  0.00    -0.412 N
ATOM      7  H3  UNL     1      26.725  20.950  12.591  1.00  0.00     0.153 HD
BRANCH   6   8
HETATM    8  C4  UNL     1      27.089  22.597  13.891  1.00  0.00     0.134 C
BRANCH   8   9
HETATM    9  C5  UNL     1      26.538  22.431  15.360  1.00  0.00     0.141 C
BRANCH   9  10
HETATM   10  N4  UNL     1      26.451  23.766  15.927  1.00  0.00    -0.359 N
HETATM   11  C6  UNL     1      26.162  23.896  17.293  1.00  0.00     0.221 C
HETATM   12  O1  UNL     1      25.980  22.886  17.997  1.00  0.00    -0.273 OA
ATOM     13  H4  UNL     1      26.596  24.590  15.344  1.00  0.00     0.162 HD
BRANCH  11  14
HETATM   14  C7  UNL     1      26.084  25.249  17.951  1.00  0.00     0.078 A
HETATM   15  C8  UNL     1      27.511  25.843  17.980  1.00  0.00     0.015 A
HETATM   16  C9  UNL     1      26.726  25.535  19.231  1.00  0.00     0.015 A
ENDBRANCH  11  14
ENDBRANCH   9  10
ENDBRANCH   8   9
ENDBRANCH   6   8
ENDBRANCH   5   6
ENDBRANCH   4   5
BRANCH   4  17
HETATM   17  N5  UNL     1      28.596  18.411  12.779  1.00  0.00    -0.365 N
ATOM     18  H5  UNL     1      29.134  17.573  13.001  1.00  0.00     0.161 HD
BRANCH  17  19
HETATM   19  C10 UNL     1      28.851  19.123  11.531  1.00  0.00     0.149 C
BRANCH  19  20
HETATM   20  C11 UNL     1      30.313  18.858  11.151  1.00  0.00     0.251 C
BRANCH  20  21
HETATM   21  N6  UNL     1      30.669  17.481  11.326  1.00  0.00    -0.074 N
ATOM     22  H62 UNL     1      30.288  17.075  12.181  1.00  0.00     0.277 HD
ATOM     23  H61 UNL     1      30.200  16.860  10.667  1.00  0.00     0.277 HD
BRANCH  21  24
HETATM   24  C12 UNL     1      32.115  17.404  11.253  1.00  0.00     0.234 C
BRANCH  24  25
HETATM   25  C13 UNL     1      32.650  17.484   9.853  1.00  0.00     0.055 C
BRANCH  25  26
HETATM   26  C14 UNL     1      33.638  18.636   9.694  1.00  0.00     0.234 C
BRANCH  26  27
HETATM   27  N7  UNL     1      34.665  18.507  10.753  1.00  0.00    -0.071 N
ATOM     28  H72 UNL     1      35.088  19.406  10.986  1.00  0.00     0.277 HD
ATOM     29  H71 UNL     1      34.252  18.296  11.662  1.00  0.00     0.277 HD
BRANCH  27  30
HETATM   30  C15 UNL     1      35.648  17.537  10.374  1.00  0.00     0.270 C
BRANCH  30  31
HETATM   31  C16 UNL     1      37.009  18.104  10.522  1.00  0.00    -0.033 A
HETATM   32  C17 UNL     1      37.945  17.476  11.361  1.00  0.00     0.009 A
HETATM   33  C18 UNL     1      39.213  17.958  11.537  1.00  0.00     0.001 A
HETATM   34  C19 UNL     1      39.639  19.114  10.883  1.00  0.00     0.000 A
HETATM   35  C20 UNL     1      38.742  19.739  10.065  1.00  0.00     0.001 A
HETATM   36  C21 UNL     1      37.448  19.237   9.893  1.00  0.00     0.009 A
ENDBRANCH  30  31
ENDBRANCH  27  30
ENDBRANCH  26  27
ENDBRANCH  25  26
ENDBRANCH  24  25
ENDBRANCH  21  24
ENDBRANCH  20  21
ENDBRANCH  19  20
ENDBRANCH  17  19
ENDBRANCH   4  17
ENDBRANCH   3   4
TORSDOF 17
ENDMDL