MODEL 4
REMARK VINA RESULT: -6.668674302      5.847     10.681
REMARK  17 active torsions:
REMARK  status: ('A' for Active; 'I' for Inactive)
REMARK    1  A    between atoms: C2_2  and  O1_3
REMARK    2  A    between atoms: O1_3  and  C3_4
REMARK    3  A    between atoms: C3_4  and  C4_5
REMARK    4  A    between atoms: C4_5  and  O2_6
REMARK    5  A    between atoms: O2_6  and  C5_7
REMARK    6  A    between atoms: C5_7  and  N1_8
REMARK    7  A    between atoms: C8_11  and  C9_12
REMARK    8  A    between atoms: C9_12  and  C10_13
REMARK    9  A    between atoms: C10_13  and  C11_14
REMARK   10  A    between atoms: C11_14  and  C12_15
REMARK   11  A    between atoms: C12_15  and  N2_16
REMARK       I    between atoms: C13_18  and  N4_20
REMARK   12  A    between atoms: N4_20  and  C14_22
REMARK   13  A    between atoms: C14_22  and  C15_23
REMARK   14  A    between atoms: C15_23  and  C16_24
REMARK   15  A    between atoms: C16_24  and  C17_25
REMARK   16  A    between atoms: C17_25  and  N5_26
REMARK   17  A    between atoms: C19_31  and  O3_32
ROOT
HETATM    1  C10 UNL     1      29.755  19.704  10.686  1.00  0.00     0.006 C
ENDROOT
BRANCH   1   2
HETATM    2  C9  UNL     1      29.974  18.944   9.425  1.00  0.00     0.039 C
BRANCH   2   3
HETATM    3  C8  UNL     1      31.402  18.713   9.120  1.00  0.00    -0.053 A
HETATM    4  C7  UNL     1      31.897  17.439   9.126  1.00  0.00     0.024 A
HETATM    5  C6  UNL     1      33.232  17.160   8.834  1.00  0.00     0.096 A
HETATM    6  N1  UNL     1      34.060  18.161   8.536  1.00  0.00    -0.316 N
HETATM    7  C19 UNL     1      33.589  19.420   8.526  1.00  0.00     0.144 A
HETATM    8  C18 UNL     1      32.280  19.728   8.809  1.00  0.00     0.063 A
BRANCH   6   9
HETATM    9  C5  UNL     1      35.472  17.949   8.196  1.00  0.00     0.300 C
BRANCH   9  10
HETATM   10  O2  UNL     1      36.245  18.465   9.186  1.00  0.00    -0.370 OA
BRANCH  10  11
HETATM   11  C4  UNL     1      36.492  17.733  10.294  1.00  0.00     0.196 C
BRANCH  11  12
HETATM   12  C3  UNL     1      37.757  18.013  11.045  1.00  0.00     0.193 C
BRANCH  12  13
HETATM   13  O1  UNL     1      38.604  18.857  10.432  1.00  0.00    -0.389 OA
BRANCH  13  14
HETATM   14  C2  UNL     1      39.941  18.770  10.574  1.00  0.00     0.163 C
HETATM   15  C1  UNL     1      40.269  17.568  11.488  1.00  0.00     0.033 C
ENDBRANCH  13  14
ENDBRANCH  12  13
ENDBRANCH  11  12
ENDBRANCH  10  11
ENDBRANCH   9  10
ENDBRANCH   6   9
BRANCH   7  16
HETATM   16  O3  UNL     1      34.481  20.461   8.209  1.00  0.00    -0.346 OA
ATOM     17  H3  UNL     1      35.070  20.338   7.474  1.00  0.00     0.219 HD
ENDBRANCH   7  16
ENDBRANCH   2   3
ENDBRANCH   1   2
BRANCH   1  18
HETATM   18  C11 UNL     1      28.450  20.367  10.869  1.00  0.00     0.020 C
BRANCH  18  19
HETATM   19  C12 UNL     1      27.999  20.605  12.273  1.00  0.00     0.122 C
BRANCH  19  20
HETATM   20  N2  UNL     1      27.442  21.930  12.420  1.00  0.00    -0.365 N
HETATM   21  C13 UNL     1      26.273  22.220  12.834  1.00  0.00     0.183 C
HETATM   22  N3  UNL     1      25.316  21.277  13.220  1.00  0.00    -0.064 NA
HETATM   23  N4  UNL     1      25.930  23.616  12.902  1.00  0.00    -0.365 N
ATOM     24  H4  UNL     1      24.975  23.933  12.733  1.00  0.00     0.162 HD
ATOM     25  H2  UNL     1      28.047  22.711  12.168  1.00  0.00     0.162 HD
BRANCH  23  26
HETATM   26  C14 UNL     1      26.990  24.559  13.222  1.00  0.00     0.122 C
BRANCH  26  27
HETATM   27  C15 UNL     1      26.611  25.940  12.735  1.00  0.00     0.021 C
BRANCH  27  28
HETATM   28  C16 UNL     1      27.069  26.123  11.313  1.00  0.00     0.029 C
BRANCH  28  29
HETATM   29  C17 UNL     1      27.094  27.558  10.899  1.00  0.00     0.229 C
BRANCH  29  30
HETATM   30  N5  UNL     1      25.797  28.175  11.228  1.00  0.00    -0.079 N
ATOM     31  H53 UNL     1      25.641  29.046  10.721  1.00  0.00     0.274 HD
ATOM     32  H52 UNL     1      25.009  27.648  10.852  1.00  0.00     0.274 HD
ATOM     33  H51 UNL     1      25.734  28.298  12.239  1.00  0.00     0.274 HD
ENDBRANCH  29  30
ENDBRANCH  28  29
ENDBRANCH  27  28
ENDBRANCH  26  27
ENDBRANCH  23  26
ENDBRANCH  19  20
ENDBRANCH  18  19
ENDBRANCH   1  18
TORSDOF 17
ENDMDL