MODEL 2
REMARK VINA RESULT: -6.473670473      1.477      2.549
REMARK  19 active torsions:
REMARK  status: ('A' for Active; 'I' for Inactive)
REMARK    1  A    between atoms: C2_2  and  N1_3
REMARK    2  A    between atoms: N1_3  and  C3_4
REMARK    3  A    between atoms: N1_3  and  C5_6
REMARK    4  A    between atoms: C5_6  and  C6_7
REMARK    5  A    between atoms: C6_7  and  N2_8
REMARK    6  A    between atoms: C8_13  and  N4_14
REMARK    7  A    between atoms: N4_14  and  C9_16
REMARK    8  A    between atoms: C9_16  and  C10_17
REMARK    9  A    between atoms: C10_17  and  C11_18
REMARK   10  A    between atoms: C11_18  and  C12_19
REMARK   11  A    between atoms: C12_19  and  N5_20
REMARK   12  A    between atoms: C13_26  and  N7_27
REMARK   13  A    between atoms: N7_27  and  C14_29
REMARK   14  A    between atoms: C14_29  and  C15_30
REMARK   15  A    between atoms: C15_30  and  C16_31
REMARK   16  A    between atoms: C16_31  and  C17_32
REMARK   17  A    between atoms: C17_32  and  C18_33
REMARK   18  A    between atoms: C18_33  and  C19_34
REMARK   19  A    between atoms: C19_34  and  N8_35
ROOT
HETATM    1  N2  UNL     1      28.411  21.246  11.025  1.00  0.00    -0.220 N
ATOM      2  H2  UNL     1      28.761  21.812  10.253  1.00  0.00     0.178 HD
HETATM    3  C7  UNL     1      27.700  21.823  11.923  1.00  0.00     0.707 A
HETATM    4  N3  UNL     1      27.434  23.160  11.826  1.00  0.00    -0.022 N
ATOM      5  H3  UNL     1      27.811  23.680  11.033  1.00  0.00     0.203 HD
HETATM    6  C8  UNL     1      26.698  23.812  12.733  1.00  0.00     0.707 A
HETATM    7  N6  UNL     1      26.184  23.154  13.797  1.00  0.00    -0.022 N
ATOM      8  H6  UNL     1      25.623  23.648  14.490  1.00  0.00     0.203 HD
HETATM    9  C13 UNL     1      26.432  21.814  13.927  1.00  0.00     0.707 A
HETATM   10  N9  UNL     1      27.171  21.195  13.002  1.00  0.00    -0.022 N
ATOM     11  H9  UNL     1      27.345  20.196  13.112  1.00  0.00     0.203 HD
ENDROOT
BRANCH   9  12
HETATM   12  N7  UNL     1      25.926  21.255  14.950  1.00  0.00    -0.225 N
ATOM     13  H7  UNL     1      26.067  21.770  15.819  1.00  0.00     0.177 HD
BRANCH  12  14
HETATM   14  C14 UNL     1      25.204  20.052  15.103  1.00  0.00     0.138 C
BRANCH  14  15
HETATM   15  C15 UNL     1      24.487  20.167  16.475  1.00  0.00     0.020 C
BRANCH  15  16
HETATM   16  C16 UNL     1      25.322  21.024  17.343  1.00  0.00     0.002 C
BRANCH  16  17
HETATM   17  C17 UNL     1      24.651  22.014  18.178  1.00  0.00     0.002 C
BRANCH  17  18
HETATM   18  C18 UNL     1      25.106  23.413  18.197  1.00  0.00     0.027 C
BRANCH  18  19
HETATM   19  C19 UNL     1      26.271  23.875  17.429  1.00  0.00     0.229 C
BRANCH  19  20
HETATM   20  N8  UNL     1      26.161  25.154  16.793  1.00  0.00    -0.079 N
ATOM     21  H83 UNL     1      27.061  25.413  16.390  1.00  0.00     0.274 HD
ATOM     22  H82 UNL     1      25.594  25.068  15.949  1.00  0.00     0.274 HD
ATOM     23  H81 UNL     1      25.808  25.923  17.362  1.00  0.00     0.274 HD
ENDBRANCH  19  20
ENDBRANCH  18  19
ENDBRANCH  17  18
ENDBRANCH  16  17
ENDBRANCH  15  16
ENDBRANCH  14  15
ENDBRANCH  12  14
ENDBRANCH   9  12
BRANCH   6  24
HETATM   24  N4  UNL     1      26.472  25.072  12.596  1.00  0.00    -0.225 N
ATOM     25  H4  UNL     1      25.740  25.350  11.943  1.00  0.00     0.177 HD
BRANCH  24  26
HETATM   26  C9  UNL     1      27.171  26.121  13.294  1.00  0.00     0.138 C
BRANCH  26  27
HETATM   27  C10 UNL     1      27.744  27.149  12.353  1.00  0.00     0.022 C
BRANCH  27  28
HETATM   28  C11 UNL     1      27.019  27.174  11.027  1.00  0.00     0.029 C
BRANCH  28  29
HETATM   29  C12 UNL     1      26.610  28.583  10.657  1.00  0.00     0.229 C
BRANCH  29  30
HETATM   30  N5  UNL     1      25.224  28.802  11.036  1.00  0.00    -0.079 N
ATOM     31  H53 UNL     1      24.809  29.592  10.542  1.00  0.00     0.274 HD
ATOM     32  H52 UNL     1      24.608  28.070  10.683  1.00  0.00     0.274 HD
ATOM     33  H51 UNL     1      25.159  28.904  12.049  1.00  0.00     0.274 HD
ENDBRANCH  29  30
ENDBRANCH  28  29
ENDBRANCH  27  28
ENDBRANCH  26  27
ENDBRANCH  24  26
ENDBRANCH   6  24
BRANCH   1  34
HETATM   34  C6  UNL     1      28.740  19.854  11.044  1.00  0.00     0.183 C
BRANCH  34  35
HETATM   35  C5  UNL     1      29.836  19.432  10.134  1.00  0.00     0.088 C
BRANCH  35  36
HETATM   36  N1  UNL     1      29.572  18.541   9.098  1.00  0.00    -0.353 N
BRANCH  36  37
HETATM   37  C2  UNL     1      28.261  18.243   8.709  1.00  0.00     0.064 C
HETATM   38  C1  UNL     1      28.218  17.480   7.399  1.00  0.00     0.055 C
ENDBRANCH  36  37
BRANCH  36  39
HETATM   39  C3  UNL     1      30.633  17.961   8.381  1.00  0.00     0.064 C
HETATM   40  C4  UNL     1      31.979  18.578   8.504  1.00  0.00     0.055 C
ENDBRANCH  36  39
ENDBRANCH  35  36
ENDBRANCH  34  35
ENDBRANCH   1  34
TORSDOF 19
ENDMDL