MODEL 4
REMARK VINA RESULT: -7.031434675      2.259      2.705
REMARK  4 active torsions:
REMARK  status: ('A' for Active; 'I' for Inactive)
REMARK    1  A    between atoms: N2_5  and  C4_6
REMARK    2  A    between atoms: C4_6  and  N3_8
REMARK    3  A    between atoms: C5_10  and  C6_11
REMARK    4  A    between atoms: C6_11  and  N4_12
ROOT
HETATM    1  C4  UNL     1      11.370   8.546   3.832  1.00  0.00     0.173 C
HETATM    2  S1  UNL     1      12.458   8.922   4.977  1.00  0.00    -0.041 SA
ENDROOT
BRANCH   1   3
HETATM    3  N2  UNL     1      11.265   9.311   2.656  1.00  0.00    -0.355 N
HETATM    4  C3  UNL     1      11.304  10.741   2.854  1.00  0.00     0.141 C
HETATM    5  C2  UNL     1      12.363  11.397   1.976  1.00  0.00     0.132 C
HETATM    6  N1  UNL     1      11.930  11.300   0.603  1.00  0.00    -0.238 NA
HETATM    7  C1  UNL     1      12.967  10.714  -0.180  1.00  0.00     0.135 C
HETATM    8  N5  UNL     1      10.687  10.732   0.459  1.00  0.00    -0.353 N
HETATM    9  C13 UNL     1      10.690   9.318   0.262  1.00  0.00     0.153 C
ATOM     10  H5  UNL     1       9.826  11.280   0.489  1.00  0.00     0.174 HD
HETATM   11  C12 UNL     1      11.137   8.528   1.442  1.00  0.00     0.146 C
ENDBRANCH   1   3
BRANCH   1  12
HETATM   12  N3  UNL     1      10.517   7.435   4.021  1.00  0.00    -0.345 N
HETATM   13  C5  UNL     1       9.350   7.532   4.565  1.00  0.00     0.093 C
ATOM     14  H3  UNL     1      10.837   6.517   3.715  1.00  0.00     0.167 HD
BRANCH  13  15
HETATM   15  C6  UNL     1       8.913   8.885   5.001  1.00  0.00     0.317 C
BRANCH  15  16
HETATM   16  N4  UNL     1       7.515   9.014   4.584  1.00  0.00     0.093 N
HETATM   17  C7  UNL     1       6.934  10.218   5.121  1.00  0.00     0.273 C
HETATM   18  C8  UNL     1       5.514  10.338   4.672  1.00  0.00     0.030 C
HETATM   19  C9  UNL     1       5.333  10.093   3.193  1.00  0.00     0.003 C
HETATM   20  C10 UNL     1       6.687  10.080   2.546  1.00  0.00     0.030 C
HETATM   21  C11 UNL     1       7.499   8.957   3.148  1.00  0.00     0.273 C
ENDBRANCH  15  16
ENDBRANCH  13  15
ENDBRANCH   1  12
TORSDOF 4
ENDMDL