MODEL 4
REMARK VINA RESULT: -7.787691463      2.647      6.436
REMARK  2 active torsions:
REMARK  status: ('A' for Active; 'I' for Inactive)
REMARK    1  A    between atoms: C3_3  and  N1_4
REMARK       I    between atoms: N1_4  and  C4_6
REMARK       I    between atoms: C4_6  and  N2_8
REMARK       I    between atoms: N3_10  and  C6_11
REMARK    2  A    between atoms: C6_11  and  C7_13
ROOT
HETATM    1  C1  UNL     1       7.586   8.684   2.977  1.00  0.00     0.014 C
HETATM    2  C2  UNL     1       8.287   9.099   2.087  1.00  0.00    -0.098 C
HETATM    3  C3  UNL     1       9.163   9.620   1.016  1.00  0.00     0.217 C
ENDROOT
BRANCH   3   4
HETATM    4  N1  UNL     1      10.490   9.157   1.303  1.00  0.00    -0.333 N
HETATM    5  C4  UNL     1      11.655   9.862   0.911  1.00  0.00     0.320 C
HETATM    6  O1  UNL     1      11.515  10.938   0.284  1.00  0.00    -0.247 OA
HETATM    7  N2  UNL     1      12.961   9.411   1.191  1.00  0.00    -0.315 N
HETATM    8  C5  UNL     1      14.140  10.145   0.782  1.00  0.00     0.257 C
HETATM    9  C15 UNL     1      13.085   8.151   1.925  1.00  0.00     0.169 C
HETATM   10  N3  UNL     1      15.193   9.254   0.327  1.00  0.00    -0.332 N
HETATM   11  C6  UNL     1      16.090   9.733  -0.651  1.00  0.00     0.225 C
HETATM   12  C10 UNL     1      15.317   7.920   0.860  1.00  0.00     0.167 C
HETATM   13  O2  UNL     1      15.976  10.904  -1.109  1.00  0.00    -0.273 OA
HETATM   14  C11 UNL     1      14.546   7.809   2.128  1.00  0.00     0.093 C
HETATM   15  C12 UNL     1      14.615   6.448   2.754  1.00  0.00     0.043 C
HETATM   16  O3  UNL     1      15.115   8.631   3.076  1.00  0.00    -0.377 OA
HETATM   17  C13 UNL     1      15.926   6.501   3.520  1.00  0.00     0.029 C
HETATM   18  C14 UNL     1      16.244   7.986   3.550  1.00  0.00     0.169 C
ATOM     19  H1  UNL     1      10.600   8.281   1.813  1.00  0.00     0.165 HD
BRANCH  11  20
HETATM   20  C7  UNL     1      17.166   8.858  -1.142  1.00  0.00     0.078 A
HETATM   21  C8  UNL     1      17.857   9.232  -2.412  1.00  0.00     0.015 A
HETATM   22  C9  UNL     1      16.859   8.145  -2.452  1.00  0.00     0.015 A
ENDBRANCH  11  20
ENDBRANCH   3   4
TORSDOF 2
ENDMDL