MODEL 3
REMARK VINA RESULT: -7.275958825      2.504      6.271
REMARK  3 active torsions:
REMARK  status: ('A' for Active; 'I' for Inactive)
REMARK       I    between atoms: N1_2  and  C3_4
REMARK    1  A    between atoms: C3_4  and  C4_6
REMARK    2  A    between atoms: C4_6  and  C5_7
REMARK       I    between atoms: N2_11  and  C7_12
REMARK       I    between atoms: C7_12  and  N4_19
REMARK    3  A    between atoms: N3_13  and  C8_15
ROOT
HETATM    1  C5  UNL     1      16.095   9.911  -0.030  1.00  0.00     0.139 C
HETATM    2  C6  UNL     1      16.337   8.458  -0.327  1.00  0.00     0.160 C
HETATM    3  S1  UNL     1      15.721   8.170   1.291  1.00  0.00     0.133 S
HETATM    4  O2  UNL     1      14.737   6.817   1.324  1.00  0.00    -0.235 OA
HETATM    5  N2  UNL     1      14.906   9.594   0.666  1.00  0.00    -0.123 N
HETATM    6  C7  UNL     1      13.567   9.992   0.962  1.00  0.00     0.698 C
HETATM    7  N3  UNL     1      12.623   9.157   0.857  1.00  0.00    -0.217 N
ATOM      8  H3  UNL     1      12.901   8.222   0.557  1.00  0.00     0.178 HD
HETATM    9  N4  UNL     1      13.322  11.323   1.382  1.00  0.00    -0.125 N
ATOM     10  H4  UNL     1      13.298  11.495   2.387  1.00  0.00     0.197 HD
HETATM   11  C12 UNL     1      13.112  12.415   0.548  1.00  0.00     0.196 C
HETATM   12  N5  UNL     1      12.940  13.306  -0.158  1.00  0.00    -0.171 NA
ENDROOT
BRANCH   7  13
HETATM   13  C8  UNL     1      11.230   9.327   1.095  1.00  0.00     0.036 C
HETATM   14  C9  UNL     1      10.517   7.978   1.257  1.00  0.00     0.038 C
HETATM   15  C10 UNL     1      10.936  10.092   2.373  1.00  0.00     0.038 C
HETATM   16  C11 UNL     1      10.535  10.059  -0.026  1.00  0.00     0.038 C
ENDBRANCH   7  13
BRANCH   1  17
HETATM   17  C4  UNL     1      16.096  10.848  -1.176  1.00  0.00     0.130 C
BRANCH  17  18
HETATM   18  C3  UNL     1      15.366  10.443  -2.378  1.00  0.00     0.221 C
HETATM   19  N1  UNL     1      16.019   9.831  -3.503  1.00  0.00    -0.361 N
HETATM   20  C1  UNL     1      17.459   9.587  -3.483  1.00  0.00     0.152 C
HETATM   21  C2  UNL     1      15.265   9.443  -4.675  1.00  0.00     0.152 C
HETATM   22  O1  UNL     1      14.136  10.622  -2.462  1.00  0.00    -0.273 OA
ENDBRANCH  17  18
ENDBRANCH   1  17
TORSDOF 3
ENDMDL