MODEL 1
REMARK VINA RESULT: -8.188970980      0.000      0.000
REMARK  2 active torsions:
REMARK  status: ('A' for Active; 'I' for Inactive)
REMARK    1  A    between atoms: C1_2  and  C2_3
REMARK       I    between atoms: C1_2  and  N3_14
REMARK    2  A    between atoms: N4_18  and  C11_19
ROOT
HETATM    1  O1  UNL     1      11.838   9.372   1.831  1.00  0.00    -0.271 OA
HETATM    2  C1  UNL     1      11.295   8.630   2.715  1.00  0.00     0.242 C
HETATM    3  N3  UNL     1       9.943   8.835   3.003  1.00  0.00    -0.349 N
HETATM    4  C8  UNL     1       9.050   9.815   2.410  1.00  0.00     0.136 C
HETATM    5  C9  UNL     1       7.746   9.039   2.358  1.00  0.00     0.053 C
HETATM    6  C10 UNL     1       6.523   9.920   2.441  1.00  0.00     0.070 C
HETATM    7  N4  UNL     1       6.267  10.008   3.800  1.00  0.00    -0.368 N
HETATM    8  C14 UNL     1       7.065   9.202   4.589  1.00  0.00     0.070 C
HETATM    9  C15 UNL     1       7.729   8.229   3.645  1.00  0.00     0.053 C
HETATM   10  C16 UNL     1       9.194   8.041   3.975  1.00  0.00     0.136 C
ENDROOT
BRANCH   2  11
HETATM   11  C2  UNL     1      12.139   7.602   3.363  1.00  0.00     0.175 C
HETATM   12  N1  UNL     1      13.300   7.308   2.548  1.00  0.00    -0.407 N
HETATM   13  C3  UNL     1      14.467   8.064   2.789  1.00  0.00     0.147 C
ATOM     14  H1  UNL     1      13.275   6.586   1.829  1.00  0.00     0.154 HD
HETATM   15  C4  UNL     1      14.788   8.259   4.260  1.00  0.00     0.203 C
HETATM   16  C5  UNL     1      13.599   9.077   4.802  1.00  0.00     0.043 C
HETATM   17  N2  UNL     1      14.678   7.009   4.960  1.00  0.00    -0.069 N
HETATM   18  C6  UNL     1      12.528   8.013   4.775  1.00  0.00     0.045 C
HETATM   19  C7  UNL     1      13.291   6.850   5.381  1.00  0.00     0.239 C
ATOM     20  H22 UNL     1      15.018   6.219   4.412  1.00  0.00     0.277 HD
ATOM     21  H21 UNL     1      15.336   6.931   5.734  1.00  0.00     0.277 HD
ENDBRANCH   2  11
BRANCH   7  22
HETATM   22  C11 UNL     1       5.110  10.627   4.287  1.00  0.00     0.088 A
HETATM   23  C12 UNL     1       3.823   9.816   3.973  1.00  0.00     0.028 A
HETATM   24  C13 UNL     1       4.337   9.965   5.363  1.00  0.00     0.028 A
ENDBRANCH   7  22
TORSDOF 2
ENDMDL