MODEL 1
REMARK VINA RESULT: -7.000643903      0.000      0.000
REMARK  2 active torsions:
REMARK  status: ('A' for Active; 'I' for Inactive)
REMARK    1  A    between atoms: C2_2  and  C3_3
REMARK    2  A    between atoms: C3_3  and  N1_4
REMARK       I    between atoms: N2_10  and  C9_11
ROOT
HETATM    1  N1  UNL     1      12.185   8.552   3.862  1.00  0.00     0.099 N
HETATM    2  C4  UNL     1      13.058   9.327   4.794  1.00  0.00     0.298 C
HETATM    3  C5  UNL     1      14.033   8.365   5.364  1.00  0.00     0.119 C
HETATM    4  C6  UNL     1      13.286   7.035   5.157  1.00  0.00     0.064 C
HETATM    5  C7  UNL     1      12.898   7.361   3.704  1.00  0.00     0.243 C
HETATM    6  C8  UNL     1      14.304   7.756   3.182  1.00  0.00     0.163 C
HETATM    7  N2  UNL     1      15.059   8.154   4.350  1.00  0.00    -0.328 N
HETATM    8  C9  UNL     1      16.434   8.326   4.570  1.00  0.00     0.331 C
HETATM    9  N3  UNL     1      17.345   8.086   3.482  1.00  0.00    -0.040 NA
HETATM   10  O1  UNL     1      16.862   8.682   5.690  1.00  0.00    -0.251 OA
ENDROOT
BRANCH   1  11
HETATM   11  C3  UNL     1      10.898   8.621   4.387  1.00  0.00     0.314 C
BRANCH  11  12
HETATM   12  C2  UNL     1       9.762   9.172   3.588  1.00  0.00     0.172 C
HETATM   13  C1  UNL     1      10.124   9.276   2.128  1.00  0.00     0.051 C
HETATM   14  C10 UNL     1       9.443  10.607   4.024  1.00  0.00     0.208 C
HETATM   15  O2  UNL     1       9.378  10.566   5.416  1.00  0.00    -0.387 OA
HETATM   16  C11 UNL     1       8.239   9.903   5.794  1.00  0.00     0.195 C
HETATM   17  C12 UNL     1       7.900   8.666   5.061  1.00  0.00     0.263 C
HETATM   18  N4  UNL     1       8.544   8.408   3.819  1.00  0.00    -0.060 N
HETATM   19  C13 UNL     1       7.579   8.654   2.773  1.00  0.00     0.273 C
HETATM   20  C14 UNL     1       8.852   6.966   3.713  1.00  0.00     0.273 C
ENDBRANCH  11  12
ENDBRANCH   1  11
TORSDOF 2
ENDMDL