MODEL 1
REMARK VINA RESULT: -8.551934476      0.000      0.000
REMARK  2 active torsions:
REMARK  status: ('A' for Active; 'I' for Inactive)
REMARK    1  A    between atoms: C2_2  and  N1_4
REMARK       I    between atoms: N1_4  and  C4_5
REMARK    2  A    between atoms: N1_4  and  C12_21
REMARK       I    between atoms: N3_7  and  C5_9
REMARK       I    between atoms: C5_9  and  N6_14
ROOT
HETATM    1  N1  UNL     1       6.138  10.225   3.048  1.00  0.00    -0.346 N
HETATM    2  C4  UNL     1       7.447   9.578   3.111  1.00  0.00     0.205 C
HETATM    3  N2  UNL     1       7.401   8.161   3.030  1.00  0.00    -0.063 NA
HETATM    4  N3  UNL     1       8.520  10.244   3.229  1.00  0.00    -0.163 N
ATOM      5  H3  UNL     1       8.488  11.262   3.283  1.00  0.00     0.187 HD
HETATM    6  C5  UNL     1       9.767   9.568   3.285  1.00  0.00     0.691 C
HETATM    7  N4  UNL     1      10.018   8.677   4.207  1.00  0.00    -0.126 N
ATOM      8  H4  UNL     1       9.303   8.463   4.902  1.00  0.00     0.197 HD
HETATM    9  C6  UNL     1      11.245   8.011   4.264  1.00  0.00     0.196 C
HETATM   10  N5  UNL     1      12.260   7.438   4.315  1.00  0.00    -0.171 NA
HETATM   11  N6  UNL     1      10.786   9.841   2.335  1.00  0.00    -0.214 N
HETATM   12  C7  UNL     1      12.009  10.532   2.634  1.00  0.00     0.171 C
HETATM   13  C8  UNL     1      13.072  10.042   1.671  1.00  0.00     0.292 C
HETATM   14  N7  UNL     1      12.738  10.339   0.308  1.00  0.00     0.087 N
HETATM   15  C9  UNL     1      13.457  11.477  -0.188  1.00  0.00     0.310 C
HETATM   16  C10 UNL     1      11.310  10.442   0.079  1.00  0.00     0.292 C
HETATM   17  C11 UNL     1      10.600   9.398   0.948  1.00  0.00     0.171 C
ENDROOT
BRANCH   1  18
HETATM   18  C2  UNL     1       5.648  10.547   4.338  1.00  0.00     0.079 C
HETATM   19  C1  UNL     1       4.470   9.829   4.866  1.00  0.00     0.032 C
HETATM   20  C3  UNL     1       6.728  10.532   5.406  1.00  0.00     0.032 C
ENDBRANCH   1  18
BRANCH   1  21
HETATM   21  C12 UNL     1       5.618  10.422   1.755  1.00  0.00     0.087 A
HETATM   22  C13 UNL     1       4.394   9.515   1.431  1.00  0.00     0.027 A
HETATM   23  C14 UNL     1       5.634   9.520   0.613  1.00  0.00     0.027 A
ENDBRANCH   1  21
TORSDOF 2
ENDMDL