MODEL 5
REMARK VINA RESULT: -7.128381621      2.865      4.129
REMARK  3 active torsions:
REMARK  status: ('A' for Active; 'I' for Inactive)
REMARK    1  A    between atoms: C1_2  and  C2_3
REMARK       I    between atoms: C1_2  and  N1_6
REMARK    2  A    between atoms: C11_14  and  C12_15
REMARK    3  A    between atoms: C12_15  and  O2_16
ROOT
HETATM    1  O1  UNL     1      10.365   9.571   5.502  1.00  0.00    -0.273 OA
HETATM    2  C1  UNL     1      10.165   9.526   4.248  1.00  0.00     0.224 C
HETATM    3  N1  UNL     1      11.248   9.581   3.358  1.00  0.00    -0.351 N
HETATM    4  C5  UNL     1      11.131   9.544   1.915  1.00  0.00     0.126 C
HETATM    5  C6  UNL     1      11.801   8.218   1.509  1.00  0.00     0.027 C
HETATM    6  C7  UNL     1      13.279   8.435   1.867  1.00  0.00     0.026 C
HETATM    7  C8  UNL     1      14.162   7.381   1.305  1.00  0.00     0.278 C
HETATM    8  N2  UNL     1      15.479   7.525   1.835  1.00  0.00     0.090 N
HETATM    9  C9  UNL     1      15.753   8.838   2.378  1.00  0.00     0.278 C
HETATM   10  C10 UNL     1      14.912   8.787   3.651  1.00  0.00     0.037 C
HETATM   11  C11 UNL     1      15.389   7.473   4.222  1.00  0.00     0.013 C
HETATM   12  C13 UNL     1      14.226   6.842   4.919  1.00  0.00     0.014 C
HETATM   13  C14 UNL     1      13.056   7.295   4.065  1.00  0.00     0.013 C
HETATM   14  C15 UNL     1      13.469   8.547   3.360  1.00  0.00    -0.013 C
HETATM   15  C16 UNL     1      12.599   9.676   3.919  1.00  0.00     0.136 C
HETATM   16  C17 UNL     1      15.745   6.678   2.980  1.00  0.00     0.284 C
ENDROOT
BRANCH   2  17
HETATM   17  C2  UNL     1       8.759   9.418   3.823  1.00  0.00     0.078 A
HETATM   18  C3  UNL     1       7.732   8.853   4.733  1.00  0.00     0.015 A
HETATM   19  C4  UNL     1       8.248   7.992   3.656  1.00  0.00     0.015 A
ENDBRANCH   2  17
BRANCH  11  20
HETATM   20  C12 UNL     1      16.590   7.678   5.111  1.00  0.00     0.175 C
BRANCH  20  21
HETATM   21  O2  UNL     1      17.702   7.028   4.599  1.00  0.00    -0.400 OA
ATOM     22  H2  UNL     1      17.808   7.214   3.674  1.00  0.00     0.209 HD
ENDBRANCH  20  21
ENDBRANCH  11  20
TORSDOF 3
ENDMDL