MODEL 4
REMARK VINA RESULT: -7.562720769      3.120      4.440
REMARK  2 active torsions:
REMARK  status: ('A' for Active; 'I' for Inactive)
REMARK    1  A    between atoms: C1_2  and  C2_3
REMARK       I    between atoms: C1_2  and  N1_6
REMARK       I    between atoms: N2_13  and  C11_14
REMARK    2  A    between atoms: C11_14  and  C12_16
ROOT
HETATM    1  O1  UNL     1       7.959   7.179   3.155  1.00  0.00    -0.273 OA
HETATM    2  C1  UNL     1       8.004   8.403   3.585  1.00  0.00     0.224 C
HETATM    3  N1  UNL     1       9.292   8.997   3.504  1.00  0.00    -0.351 N
HETATM    4  C5  UNL     1       9.601  10.338   3.928  1.00  0.00     0.132 C
HETATM    5  C6  UNL     1      10.971  10.771   3.386  1.00  0.00     0.022 C
HETATM    6  C7  UNL     1      10.936  10.412   1.918  1.00  0.00     0.016 C
HETATM    7  C8  UNL     1      11.115   8.902   1.882  1.00  0.00     0.022 C
HETATM    8  C9  UNL     1      10.413   8.195   2.987  1.00  0.00     0.132 C
HETATM    9  C10 UNL     1      12.624   8.710   2.142  1.00  0.00     0.132 C
HETATM   10  N2  UNL     1      12.889   9.204   3.475  1.00  0.00    -0.351 N
HETATM   11  C11 UNL     1      13.972   8.644   4.186  1.00  0.00     0.225 C
HETATM   12  O2  UNL     1      14.231   9.043   5.365  1.00  0.00    -0.273 OA
HETATM   13  C16 UNL     1      12.122  10.239   4.135  1.00  0.00     0.132 C
ENDROOT
BRANCH  11  14
HETATM   14  C12 UNL     1      14.824   7.606   3.611  1.00  0.00     0.105 C
HETATM   15  C13 UNL     1      16.028   8.116   2.857  1.00  0.00     0.043 C
HETATM   16  C14 UNL     1      16.952   6.891   2.910  1.00  0.00     0.233 C
HETATM   17  N3  UNL     1      16.805   6.452   4.260  1.00  0.00    -0.074 N
HETATM   18  C15 UNL     1      15.474   6.745   4.688  1.00  0.00     0.246 C
ATOM     19  H32 UNL     1      17.048   5.468   4.381  1.00  0.00     0.277 HD
ATOM     20  H31 UNL     1      17.512   6.847   4.880  1.00  0.00     0.277 HD
ENDBRANCH  11  14
BRANCH   2  21
HETATM   21  C2  UNL     1       6.753   8.941   4.068  1.00  0.00     0.078 A
HETATM   22  C3  UNL     1       6.076   9.957   3.126  1.00  0.00     0.015 A
HETATM   23  C4  UNL     1       6.472  10.292   4.523  1.00  0.00     0.015 A
ENDBRANCH   2  21
TORSDOF 2
ENDMDL