MODEL 1
REMARK VINA RESULT: -7.510881890      0.000      0.000
REMARK  2 active torsions:
REMARK  status: ('A' for Active; 'I' for Inactive)
REMARK    1  A    between atoms: C11_12  and  N2_13
REMARK       I    between atoms: N2_13  and  C12_15
REMARK    2  A    between atoms: C12_15  and  C13_17
ROOT
HETATM    1  C1  UNL     1       9.312  10.217  -0.218  1.00  0.00     0.309 C
HETATM    2  N1  UNL     1       9.537  10.008   1.211  1.00  0.00     0.085 N
HETATM    3  C2  UNL     1      10.830   9.436   1.420  1.00  0.00     0.278 C
HETATM    4  C3  UNL     1      11.376   9.911   2.722  1.00  0.00     0.037 C
HETATM    5  C4  UNL     1      10.312  10.602   3.506  1.00  0.00     0.013 C
HETATM    6  C5  UNL     1       9.246   9.761   4.064  1.00  0.00    -0.004 C
HETATM    7  C6  UNL     1       9.633   8.392   4.500  1.00  0.00    -0.008 C
HETATM    8  C7  UNL     1       8.383   7.871   3.810  1.00  0.00     0.011 C
HETATM    9  C8  UNL     1       8.211   9.249   3.155  1.00  0.00     0.019 C
HETATM   10  C9  UNL     1       8.453   9.224   1.721  1.00  0.00     0.277 C
HETATM   11  C10 UNL     1      10.864   7.827   3.917  1.00  0.00     0.030 C
HETATM   12  C11 UNL     1      11.934   8.806   3.580  1.00  0.00     0.090 C
ENDROOT
BRANCH  12  13
HETATM   13  N2  UNL     1      13.021   8.131   2.905  1.00  0.00    -0.355 N
HETATM   14  C12 UNL     1      14.343   8.096   3.408  1.00  0.00     0.238 C
HETATM   15  O1  UNL     1      14.567   8.682   4.489  1.00  0.00    -0.272 OA
ATOM     16  H2  UNL     1      12.825   7.657   2.023  1.00  0.00     0.162 HD
BRANCH  14  17
HETATM   17  C13 UNL     1      15.379   7.404   2.682  1.00  0.00     0.180 C
HETATM   18  C14 UNL     1      15.076   6.936   1.278  1.00  0.00     0.138 C
HETATM   19  N3  UNL     1      16.532   7.108   1.145  1.00  0.00    -0.251 NA
HETATM   20  C15 UNL     1      17.004   7.381  -0.157  1.00  0.00     0.130 C
HETATM   21  N4  UNL     1      16.400   8.180   2.029  1.00  0.00    -0.239 NA
HETATM   22  C16 UNL     1      16.048   9.433   1.468  1.00  0.00     0.131 C
ENDBRANCH  14  17
ENDBRANCH  12  13
TORSDOF 2
ENDMDL