MODEL 4
REMARK VINA RESULT: -7.125870862      3.228      6.278
REMARK  2 active torsions:
REMARK  status: ('A' for Active; 'I' for Inactive)
REMARK    1  A    between atoms: C1_2  and  C2_3
REMARK       I    between atoms: C1_2  and  N3_14
REMARK    2  A    between atoms: C2_3  and  N1_4
ROOT
HETATM    1  C2  UNL     1      10.031   8.289   4.416  1.00  0.00     0.134 C
ENDROOT
BRANCH   1   2
HETATM    2  C1  UNL     1       9.003   7.807   3.516  1.00  0.00     0.257 C
HETATM    3  O1  UNL     1       8.778   6.590   3.374  1.00  0.00    -0.267 OA
HETATM    4  N3  UNL     1       8.216   8.716   2.767  1.00  0.00    -0.303 N
HETATM    5  C11 UNL     1       8.386   9.014   1.549  1.00  0.00     0.142 C
ATOM      6  H3  UNL     1       7.443   9.172   3.253  1.00  0.00     0.171 HD
HETATM    7  N4  UNL     1       9.325   8.598   0.571  1.00  0.00    -0.370 N
HETATM    8  S1  UNL     1       7.336  10.182   0.665  1.00  0.00    -0.092 SA
HETATM    9  C12 UNL     1       9.563   9.581  -0.440  1.00  0.00     0.132 C
ATOM     10  H4  UNL     1       9.786   7.687   0.587  1.00  0.00     0.161 HD
HETATM   11  C13 UNL     1       8.205  10.069  -0.955  1.00  0.00     0.102 C
ENDBRANCH   1   2
BRANCH   1  12
HETATM   12  N1  UNL     1      11.344   7.757   4.283  1.00  0.00    -0.285 NA
HETATM   13  C3  UNL     1      12.236   8.475   5.165  1.00  0.00     0.123 C
HETATM   14  C4  UNL     1      13.493   8.950   4.497  1.00  0.00     0.252 C
HETATM   15  N2  UNL     1      14.137   7.827   3.851  1.00  0.00    -0.065 N
HETATM   16  C5  UNL     1      15.343   8.346   3.215  1.00  0.00     0.237 C
HETATM   17  C8  UNL     1      14.605   6.905   4.868  1.00  0.00     0.237 C
HETATM   18  C9  UNL     1      13.285   7.172   2.908  1.00  0.00     0.252 C
HETATM   19  C6  UNL     1      16.200   7.086   3.102  1.00  0.00     0.029 C
HETATM   20  C7  UNL     1      16.004   6.491   4.483  1.00  0.00     0.029 C
HETATM   21  C10 UNL     1      11.873   7.761   2.962  1.00  0.00     0.123 C
ENDBRANCH   1  12
TORSDOF 2
ENDMDL