MODEL 1
REMARK VINA RESULT: -6.967301982      0.000      0.000
REMARK  5 active torsions:
REMARK  status: ('A' for Active; 'I' for Inactive)
REMARK    1  A    between atoms: C3_3  and  N1_4
REMARK    2  A    between atoms: C6_7  and  C7_8
REMARK    3  A    between atoms: C7_8  and  C8_9
REMARK    4  A    between atoms: C8_9  and  N2_10
REMARK    5  A    between atoms: C12_14  and  C13_15
ROOT
HETATM    1  C1  UNL     1       3.889   9.944   5.140  1.00  0.00     0.013 C
HETATM    2  C2  UNL     1       5.080  10.076   5.072  1.00  0.00    -0.087 C
HETATM    3  C3  UNL     1       6.537  10.226   5.012  1.00  0.00     0.364 C
ENDROOT
BRANCH   3   4
HETATM    4  N1  UNL     1       7.007   9.381   3.955  1.00  0.00     0.099 N
HETATM    5  C4  UNL     1       6.600   9.901   2.692  1.00  0.00     0.274 C
HETATM    6  C5  UNL     1       7.787   9.640   1.751  1.00  0.00     0.036 C
HETATM    7  C6  UNL     1       8.919   9.995   2.712  1.00  0.00     0.017 C
HETATM    8  C15 UNL     1       8.476   9.279   3.941  1.00  0.00     0.278 C
BRANCH   7   9
HETATM    9  C7  UNL     1      10.254   9.633   2.186  1.00  0.00     0.036 C
BRANCH   9  10
HETATM   10  C8  UNL     1      11.403   9.982   3.068  1.00  0.00     0.273 C
BRANCH  10  11
HETATM   11  N2  UNL     1      12.478   9.039   2.949  1.00  0.00     0.090 N
HETATM   12  C9  UNL     1      13.558   9.289   3.893  1.00  0.00     0.278 C
HETATM   13  C10 UNL     1      13.336   8.208   4.883  1.00  0.00     0.034 A
HETATM   14  C11 UNL     1      13.742   6.876   5.050  1.00  0.00     0.028 A
HETATM   15  C12 UNL     1      13.292   7.115   3.733  1.00  0.00     0.070 A
HETATM   16  C14 UNL     1      12.021   7.654   3.191  1.00  0.00     0.291 C
BRANCH  15  17
HETATM   17  C13 UNL     1      14.381   7.220   2.702  1.00  0.00     0.242 C
HETATM   18  N3  UNL     1      15.747   7.091   3.077  1.00  0.00    -0.061 NA
HETATM   19  O1  UNL     1      14.181   7.421   1.478  1.00  0.00    -0.276 OA
ENDBRANCH  15  17
ENDBRANCH  10  11
ENDBRANCH   9  10
ENDBRANCH   7   9
ENDBRANCH   3   4
TORSDOF 5
ENDMDL