MODEL 4
REMARK VINA RESULT: -6.158227637      1.254      1.351
REMARK  6 active torsions:
REMARK  status: ('A' for Active; 'I' for Inactive)
REMARK       I    between atoms: C1_2  and  N3_7
REMARK    1  A    between atoms: N2_3  and  C2_5
REMARK    2  A    between atoms: N5_14  and  C6_15
REMARK    3  A    between atoms: C6_15  and  C7_16
REMARK    4  A    between atoms: C7_16  and  C8_17
REMARK    5  A    between atoms: C8_17  and  O1_18
REMARK    6  A    between atoms: O1_18  and  C9_19
ROOT
HETATM    1  N1  UNL     1      14.037   9.593   1.858  1.00  0.00    -0.063 NA
HETATM    2  C1  UNL     1      13.097  10.573   1.488  1.00  0.00     0.195 C
HETATM    3  N2  UNL     1      13.503  11.736   1.138  1.00  0.00    -0.331 N
ATOM      4  H2  UNL     1      14.508  11.915   1.139  1.00  0.00     0.168 HD
HETATM    5  N3  UNL     1      11.725  10.285   1.498  1.00  0.00    -0.302 N
ATOM      6  H3  UNL     1      11.198  10.533   0.661  1.00  0.00     0.171 HD
HETATM    7  C3  UNL     1      11.067   9.739   2.458  1.00  0.00     0.179 C
HETATM    8  N4  UNL     1      11.588   9.310   3.713  1.00  0.00    -0.360 N
ATOM      9  H4  UNL     1      12.570   9.152   3.943  1.00  0.00     0.162 HD
HETATM   10  C4  UNL     1      10.452   9.143   4.603  1.00  0.00     0.142 C
HETATM   11  C5  UNL     1       9.427   8.589   3.593  1.00  0.00     0.145 C
HETATM   12  N5  UNL     1       9.646   9.447   2.449  1.00  0.00    -0.352 N
ENDROOT
BRANCH  12  13
HETATM   13  C6  UNL     1       8.709   9.941   1.483  1.00  0.00     0.128 C
BRANCH  13  14
HETATM   14  C7  UNL     1       7.316   9.409   1.591  1.00  0.00     0.046 C
BRANCH  14  15
HETATM   15  C8  UNL     1       6.239  10.461   1.672  1.00  0.00     0.169 C
BRANCH  15  16
HETATM   16  O1  UNL     1       5.390  10.060   2.712  1.00  0.00    -0.386 OA
BRANCH  16  17
HETATM   17  C9  UNL     1       5.756  10.565   3.932  1.00  0.00     0.121 A
HETATM   18  C10 UNL     1       4.749  10.189   5.042  1.00  0.00     0.034 A
HETATM   19  C11 UNL     1       6.197   9.750   5.061  1.00  0.00     0.034 A
ENDBRANCH  16  17
ENDBRANCH  15  16
ENDBRANCH  14  15
ENDBRANCH  13  14
ENDBRANCH  12  13
BRANCH   3  20
HETATM   20  C2  UNL     1      12.636  12.789   0.749  1.00  0.00     0.172 C
HETATM   21  S1  UNL     1      13.189  14.085  -0.052  1.00  0.00    -0.074 SA
ENDBRANCH   3  20
TORSDOF 6
ENDMDL