MODEL 2
REMARK VINA RESULT: -6.417052849      5.936      8.069
REMARK  7 active torsions:
REMARK  status: ('A' for Active; 'I' for Inactive)
REMARK    1  A    between atoms: C2_2  and  C4_4
REMARK    2  A    between atoms: C2_2  and  C5_7
REMARK    3  A    between atoms: C4_4  and  O1_5
REMARK    4  A    between atoms: C5_7  and  O2_8
REMARK    5  A    between atoms: C5_7  and  C6_10
REMARK    6  A    between atoms: C6_10  and  C7_11
REMARK    7  A    between atoms: C7_11  and  C8_12
REMARK       I    between atoms: C8_12  and  N1_14
ROOT
HETATM    1  C7  UNL     1      10.693   8.356   3.150  1.00  0.00     0.105 C
ENDROOT
BRANCH   1   2
HETATM    2  C6  UNL     1       9.707   9.493   3.088  1.00  0.00     0.041 C
BRANCH   2   3
HETATM    3  C5  UNL     1       8.288   9.023   3.320  1.00  0.00     0.128 C
BRANCH   3   4
HETATM    4  C2  UNL     1       7.824   9.541   4.638  1.00  0.00    -0.000 C
HETATM    5  C1  UNL     1       8.383  10.929   4.840  1.00  0.00     0.019 C
HETATM    6  C3  UNL     1       6.299   9.669   4.631  1.00  0.00     0.019 C
BRANCH   4   7
HETATM    7  C4  UNL     1       8.166   8.628   5.792  1.00  0.00     0.175 C
BRANCH   7   8
HETATM    8  O1  UNL     1       9.114   9.204   6.627  1.00  0.00    -0.400 OA
ATOM      9  H1  UNL     1       9.997   8.996   6.343  1.00  0.00     0.209 HD
ENDBRANCH   7   8
ENDBRANCH   4   7
ENDBRANCH   3   4
BRANCH   3  10
HETATM   10  O2  UNL     1       8.154   7.666   3.151  1.00  0.00    -0.395 OA
ATOM     11  H2  UNL     1       8.174   7.370   2.248  1.00  0.00     0.210 HD
ENDBRANCH   3  10
ENDBRANCH   2   3
ENDBRANCH   1   2
BRANCH   1  12
HETATM   12  C8  UNL     1      11.776   8.685   4.102  1.00  0.00     0.219 C
HETATM   13  O3  UNL     1      11.547   9.490   5.054  1.00  0.00    -0.273 OA
HETATM   14  N1  UNL     1      13.085   8.141   4.011  1.00  0.00    -0.349 N
HETATM   15  C9  UNL     1      13.333   7.220   2.917  1.00  0.00     0.154 C
HETATM   16  C14 UNL     1      14.110   8.475   4.942  1.00  0.00     0.154 C
HETATM   17  C10 UNL     1      14.760   6.777   2.912  1.00  0.00     0.256 C
HETATM   18  N2  UNL     1      15.614   7.944   3.063  1.00  0.00    -0.072 N
HETATM   19  C11 UNL     1      15.319   8.889   1.998  1.00  0.00     0.272 C
HETATM   20  C12 UNL     1      16.973   7.481   2.840  1.00  0.00     0.272 C
HETATM   21  C13 UNL     1      15.484   8.563   4.352  1.00  0.00     0.256 C
ENDBRANCH   1  12
TORSDOF 7
ENDMDL