MODEL 4
REMARK VINA RESULT: -6.661613246      2.854      7.137
REMARK  4 active torsions:
REMARK  status: ('A' for Active; 'I' for Inactive)
REMARK    1  A    between atoms: C2_2  and  C4_4
REMARK    2  A    between atoms: C4_4  and  C6_12
REMARK    3  A    between atoms: N1_5  and  N2_7
REMARK       I    between atoms: C6_12  and  N5_14
REMARK    4  A    between atoms: N5_14  and  C7_16
ROOT
HETATM    1  C4  UNL     1      14.204   7.489   1.857  1.00  0.00     0.096 C
HETATM    2  N1  UNL     1      12.935   7.297   1.871  1.00  0.00    -0.297 N
ATOM      3  H1  UNL     1      12.478   7.135   0.973  1.00  0.00     0.187 HD
ENDROOT
BRANCH   1   4
HETATM    4  C2  UNL     1      14.967   7.733   3.094  1.00  0.00     0.035 C
HETATM    5  C1  UNL     1      16.068   8.756   2.953  1.00  0.00     0.016 C
HETATM    6  C3  UNL     1      15.529   6.493   3.707  1.00  0.00     0.016 C
ENDBRANCH   1   4
BRANCH   1   7
HETATM    7  C6  UNL     1      14.883   7.469   0.580  1.00  0.00     0.266 C
HETATM    8  O1  UNL     1      15.777   6.565   0.415  1.00  0.00    -0.266 OA
HETATM    9  N5  UNL     1      14.625   8.378  -0.495  1.00  0.00    -0.350 N
ATOM     10  H5  UNL     1      13.922   9.112  -0.404  1.00  0.00     0.163 HD
BRANCH   9  11
HETATM   11  C7  UNL     1      15.380   8.229  -1.701  1.00  0.00     0.112 C
HETATM   12  C8  UNL     1      14.634   7.396  -2.751  1.00  0.00     0.055 C
HETATM   13  C9  UNL     1      15.452   7.760  -3.980  1.00  0.00     0.238 C
HETATM   14  N6  UNL     1      15.909   9.104  -3.802  1.00  0.00    -0.073 N
HETATM   15  C10 UNL     1      17.365   9.208  -3.903  1.00  0.00     0.272 C
HETATM   16  C11 UNL     1      15.267   9.945  -4.797  1.00  0.00     0.272 C
HETATM   17  C12 UNL     1      15.557   9.522  -2.463  1.00  0.00     0.261 C
ENDBRANCH   9  11
ENDBRANCH   1   7
BRANCH   2  18
HETATM   18  N2  UNL     1      12.140   7.292   2.990  1.00  0.00    -0.276 N
HETATM   19  C5  UNL     1      11.325   8.272   3.249  1.00  0.00     0.215 C
HETATM   20  N3  UNL     1      10.554   8.154   4.437  1.00  0.00    -0.065 NA
HETATM   21  N4  UNL     1      11.258   9.360   2.361  1.00  0.00    -0.065 NA
ATOM     22  H2  UNL     1      12.189   6.502   3.632  1.00  0.00     0.189 HD
ENDBRANCH   2  18
TORSDOF 4
ENDMDL