MODEL 2
REMARK VINA RESULT: -6.781961474      6.583      9.039
REMARK  7 active torsions:
REMARK  status: ('A' for Active; 'I' for Inactive)
REMARK    1  A    between atoms: C1_2  and  C2_4
REMARK    2  A    between atoms: C2_4  and  C3_5
REMARK    3  A    between atoms: C3_5  and  N2_6
REMARK    4  A    between atoms: C3_5  and  C8_13
REMARK       I    between atoms: N2_6  and  C4_8
REMARK    5  A    between atoms: C4_8  and  C5_10
REMARK    6  A    between atoms: C8_13  and  O3_14
REMARK    7  A    between atoms: C8_13  and  N3_16
ROOT
HETATM    1  C3  UNL     1       8.558   9.575   1.769  1.00  0.00     0.071 C
ENDROOT
BRANCH   1   2
HETATM    2  C2  UNL     1       8.030   9.826   0.408  1.00  0.00     0.161 C
BRANCH   2   3
HETATM    3  C1  UNL     1       9.058  10.216  -0.562  1.00  0.00     0.236 C
HETATM    4  N1  UNL     1      10.195  10.969  -0.304  1.00  0.00    -0.062 NA
HETATM    5  O1  UNL     1       8.912   9.826  -1.777  1.00  0.00    -0.277 OA
ENDBRANCH   2   3
ENDBRANCH   1   2
BRANCH   1   6
HETATM    6  N2  UNL     1       9.903   9.084   1.887  1.00  0.00    -0.326 N
HETATM    7  C4  UNL     1      10.835   9.688   2.810  1.00  0.00     0.226 C
HETATM    8  O2  UNL     1      10.460  10.676   3.509  1.00  0.00    -0.273 OA
ATOM      9  H2  UNL     1      10.204   8.299   1.310  1.00  0.00     0.168 HD
BRANCH   7  10
HETATM   10  C5  UNL     1      12.196   9.225   2.987  1.00  0.00     0.078 A
HETATM   11  C6  UNL     1      12.780   7.944   2.573  1.00  0.00     0.015 A
HETATM   12  C7  UNL     1      12.239   7.997   3.977  1.00  0.00     0.015 A
ENDBRANCH   7  10
ENDBRANCH   1   6
BRANCH   1  13
HETATM   13  C8  UNL     1       7.643   8.957   2.750  1.00  0.00     0.161 C
BRANCH  13  14
HETATM   14  O3  UNL     1       7.762   7.680   2.978  1.00  0.00    -0.345 OA
ATOM     15  H3  UNL     1       7.037   7.115   2.740  1.00  0.00     0.219 HD
ENDBRANCH  13  14
BRANCH  13  16
HETATM   16  N3  UNL     1       6.624   9.536   3.502  1.00  0.00    -0.360 N
HETATM   17  C9  UNL     1       6.429   9.309   4.918  1.00  0.00     0.125 C
HETATM   18  C10 UNL     1       5.603  10.487   5.474  1.00  0.00     0.020 C
HETATM   19  C11 UNL     1       4.190  10.367   4.978  1.00  0.00     0.003 C
HETATM   20  C12 UNL     1       4.228   9.650   3.638  1.00  0.00     0.020 C
HETATM   21  C13 UNL     1       5.471  10.188   2.859  1.00  0.00     0.125 C
ENDBRANCH  13  16
ENDBRANCH   1  13
TORSDOF 7
ENDMDL