MODEL 1
REMARK VINA RESULT: -7.356238625      0.000      0.000
REMARK  7 active torsions:
REMARK  status: ('A' for Active; 'I' for Inactive)
REMARK       I    between atoms: N1_4  and  C4_5
REMARK    1  A    between atoms: C4_5  and  C5_7
REMARK    2  A    between atoms: C5_7  and  N2_8
REMARK    3  A    between atoms: N2_8  and  C7_10
REMARK    4  A    between atoms: C7_10  and  N3_11
REMARK    5  A    between atoms: C7_10  and  C8_15
REMARK    6  A    between atoms: C8_15  and  N4_16
REMARK    7  A    between atoms: C8_15  and  C9_20
ROOT
HETATM    1  C7  UNL     1       9.375   8.023   3.306  1.00  0.00     0.447 C
ENDROOT
BRANCH   1   2
HETATM    2  N2  UNL     1      10.652   8.672   3.222  1.00  0.00     0.126 N
HETATM    3  C6  UNL     1      11.789   7.799   3.162  1.00  0.00     0.313 C
BRANCH   2   4
HETATM    4  C5  UNL     1      10.751   9.684   2.241  1.00  0.00     0.377 C
BRANCH   4   5
HETATM    5  C4  UNL     1      11.778  10.718   2.464  1.00  0.00     0.248 C
HETATM    6  N1  UNL     1      12.386  11.395   1.366  1.00  0.00    -0.343 N
HETATM    7  C2  UNL     1      13.274  12.335   0.754  1.00  0.00     0.101 A
HETATM    8  C3  UNL     1      12.430  11.509  -0.129  1.00  0.00     0.151 A
HETATM    9  C1  UNL     1      12.896  13.801   0.929  1.00  0.00     0.034 C
HETATM   10  O1  UNL     1      12.149  11.039   3.614  1.00  0.00    -0.271 OA
ENDBRANCH   4   5
ENDBRANCH   2   4
ENDBRANCH   1   2
BRANCH   1  11
HETATM   11  N3  UNL     1       9.485   6.612   3.162  1.00  0.00    -0.045 N
ATOM     12  H33 UNL     1       9.332   6.324   2.195  1.00  0.00     0.277 HD
ATOM     13  H32 UNL     1      10.452   6.303   3.269  1.00  0.00     0.277 HD
ATOM     14  H31 UNL     1       8.865   6.114   3.800  1.00  0.00     0.277 HD
ENDBRANCH   1  11
BRANCH   1  15
HETATM   15  C8  UNL     1       8.658   8.390   4.577  1.00  0.00     0.248 C
BRANCH  15  16
HETATM   16  N4  UNL     1       9.468   9.165   5.479  1.00  0.00    -0.071 N
ATOM     17  H43 UNL     1       9.716   8.620   6.305  1.00  0.00     0.274 HD
ATOM     18  H42 UNL     1      10.400   9.316   5.092  1.00  0.00     0.274 HD
ATOM     19  H41 UNL     1       9.037  10.051   5.743  1.00  0.00     0.274 HD
ENDBRANCH  15  16
BRANCH  15  20
HETATM   20  C9  UNL     1       7.278   8.905   4.418  1.00  0.00     0.020 C
HETATM   21  C10 UNL     1       6.801   9.850   5.481  1.00  0.00     0.007 C
HETATM   22  C11 UNL     1       5.931  10.960   4.880  1.00  0.00     0.000 C
HETATM   23  C12 UNL     1       4.868  10.223   4.081  1.00  0.00     0.000 C
HETATM   24  C13 UNL     1       5.554   9.788   2.791  1.00  0.00     0.000 C
HETATM   25  C14 UNL     1       6.961   9.378   3.019  1.00  0.00     0.007 C
ENDBRANCH  15  20
ENDBRANCH   1  15
TORSDOF 7
ENDMDL