MODEL 4
REMARK VINA RESULT: -6.547933218      2.411      3.563
REMARK  7 active torsions:
REMARK  status: ('A' for Active; 'I' for Inactive)
REMARK    1  A    between atoms: N1_4  and  C4_6
REMARK    2  A    between atoms: C4_6  and  C5_7
REMARK    3  A    between atoms: C4_6  and  C8_10
REMARK    4  A    between atoms: C5_7  and  C6_8
REMARK    5  A    between atoms: C8_10  and  C9_11
REMARK    6  A    between atoms: C9_11  and  O1_12
REMARK    7  A    between atoms: C9_11  and  C10_14
REMARK       I    between atoms: C10_14  and  N2_16
ROOT
HETATM    1  C1  UNL     1       8.654   9.937  -0.881  1.00  0.00     0.018 C
HETATM    2  C2  UNL     1       8.768   9.881   0.315  1.00  0.00    -0.073 C
HETATM    3  C3  UNL     1       8.922   9.817   1.761  1.00  0.00     0.148 C
HETATM    4  N1  UNL     1       9.881   9.131   2.227  1.00  0.00    -0.387 N
ATOM      5  H1  UNL     1      10.506   8.652   1.578  1.00  0.00     0.159 HD
ENDROOT
BRANCH   4   6
HETATM    6  C4  UNL     1      10.118   9.004   3.643  1.00  0.00     0.087 C
BRANCH   6   7
HETATM    7  C5  UNL     1       9.162   8.012   4.236  1.00  0.00     0.051 C
BRANCH   7   8
HETATM    8  C6  UNL     1       8.416   8.574   5.385  1.00  0.00    -0.035 C
HETATM    9  C7  UNL     1       8.107   9.871   5.408  1.00  0.00     0.007 C
ENDBRANCH   7   8
ENDBRANCH   6   7
BRANCH   6  10
HETATM   10  C8  UNL     1      11.521   8.602   3.974  1.00  0.00     0.066 C
BRANCH  10  11
HETATM   11  C9  UNL     1      12.278   8.060   2.747  1.00  0.00     0.212 C
BRANCH  11  12
HETATM   12  O1  UNL     1      12.153   6.688   2.776  1.00  0.00    -0.386 OA
ATOM     13  H1  UNL     1      11.228   6.499   2.876  1.00  0.00     0.210 HD
ENDBRANCH  11  12
BRANCH  11  14
HETATM   14  C10 UNL     1      13.647   8.591   2.764  1.00  0.00     0.248 C
HETATM   15  O2  UNL     1      13.867   9.471   1.838  1.00  0.00    -0.270 OA
HETATM   16  N2  UNL     1      14.720   8.306   3.590  1.00  0.00    -0.347 N
HETATM   17  C11 UNL     1      16.016   9.021   3.378  1.00  0.00     0.153 C
HETATM   18  C14 UNL     1      14.816   7.371   4.683  1.00  0.00     0.153 C
HETATM   19  C12 UNL     1      16.984   7.932   2.966  1.00  0.00     0.252 C
HETATM   20  N3  UNL     1      17.033   6.883   3.934  1.00  0.00    -0.072 N
HETATM   21  C13 UNL     1      15.765   6.281   4.220  1.00  0.00     0.252 C
ATOM     22  H32 UNL     1      17.709   6.173   3.654  1.00  0.00     0.277 HD
ATOM     23  H31 UNL     1      17.471   7.213   4.793  1.00  0.00     0.277 HD
ENDBRANCH  11  14
ENDBRANCH  10  11
ENDBRANCH   6  10
ENDBRANCH   4   6
TORSDOF 7
ENDMDL