MODEL 1
REMARK VINA RESULT: -7.035522371      0.000      0.000
REMARK  5 active torsions:
REMARK  status: ('A' for Active; 'I' for Inactive)
REMARK    1  A    between atoms: N1_6  and  C5_7
REMARK    2  A    between atoms: C5_7  and  C6_8
REMARK    3  A    between atoms: C6_8  and  C7_9
REMARK    4  A    between atoms: C7_9  and  C8_10
REMARK    5  A    between atoms: C8_10  and  N2_11
ROOT
HETATM    1  N2  UNL     1       9.616   9.691   4.243  1.00  0.00     0.102 N
HETATM    2  C9  UNL     1      10.607  10.518   3.626  1.00  0.00     0.311 C
HETATM    3  C10 UNL     1      10.733   9.947   2.202  1.00  0.00     0.252 C
HETATM    4  C11 UNL     1       9.320   9.766   1.729  1.00  0.00     0.094 C
HETATM    5  N3  UNL     1       8.745   8.510   1.918  1.00  0.00    -0.378 N
ATOM      6  H3  UNL     1       8.068   8.161   1.240  1.00  0.00     0.164 HD
HETATM    7  C12 UNL     1       9.081   7.722   3.019  1.00  0.00     0.097 C
HETATM    8  C13 UNL     1       9.994   8.318   4.039  1.00  0.00     0.286 C
HETATM    9  C14 UNL     1      11.409   8.147   3.561  1.00  0.00     0.274 C
HETATM   10  N4  UNL     1      11.483   8.715   2.219  1.00  0.00    -0.062 N
ATOM     11  H41 UNL     1      12.443   8.838   1.899  1.00  0.00     0.278 HD
ATOM     12  H42 UNL     1      11.177   8.060   1.500  1.00  0.00     0.278 HD
ENDROOT
BRANCH   1  13
HETATM   13  C8  UNL     1       9.303  10.002   5.609  1.00  0.00     0.273 C
BRANCH  13  14
HETATM   14  C7  UNL     1       7.855   9.822   5.908  1.00  0.00     0.032 C
BRANCH  14  15
HETATM   15  C6  UNL     1       7.041  10.397   4.782  1.00  0.00     0.022 C
BRANCH  15  16
HETATM   16  C5  UNL     1       5.592   9.997   4.846  1.00  0.00     0.126 C
BRANCH  16  17
HETATM   17  N1  UNL     1       5.036  10.096   3.490  1.00  0.00    -0.352 N
HETATM   18  C1  UNL     1       3.744   9.706   3.056  1.00  0.00     0.219 C
HETATM   19  O1  UNL     1       2.701   9.751   3.797  1.00  0.00    -0.273 OA
HETATM   20  C2  UNL     1       3.854   9.264   1.645  1.00  0.00     0.104 C
HETATM   21  C3  UNL     1       5.158   9.839   1.177  1.00  0.00     0.029 C
HETATM   22  C4  UNL     1       5.727  10.623   2.333  1.00  0.00     0.126 C
ENDBRANCH  16  17
ENDBRANCH  15  16
ENDBRANCH  14  15
ENDBRANCH  13  14
ENDBRANCH   1  13
TORSDOF 5
ENDMDL