MODEL 3
REMARK VINA RESULT: -9.925761957      1.554      2.570
REMARK  8 active torsions:
REMARK  status: ('A' for Active; 'I' for Inactive)
REMARK       I    between atoms: C2_2  and  N1_4
REMARK    1  A    between atoms: N1_4  and  C3_6
REMARK    2  A    between atoms: C3_6  and  C4_7
REMARK    3  A    between atoms: C3_6  and  C13_18
REMARK    4  A    between atoms: C4_7  and  C5_8
REMARK    5  A    between atoms: C5_8  and  C6_9
REMARK       I    between atoms: C6_9  and  N2_11
REMARK       I    between atoms: C13_18  and  N3_20
REMARK    6  A    between atoms: N3_20  and  C14_22
REMARK    7  A    between atoms: C14_22  and  C15_23
REMARK    8  A    between atoms: C15_23  and  N4_24
ROOT
HETATM    1  C3  UNL     1      13.721  10.848   1.520  1.00  0.00     0.177 C
ENDROOT
BRANCH   1   2
HETATM    2  N1  UNL     1      13.527  11.885   0.533  1.00  0.00    -0.348 N
HETATM    3  C2  UNL     1      13.053  13.170   0.811  1.00  0.00     0.214 C
HETATM    4  C1  UNL     1      12.893  14.152  -0.290  1.00  0.00     0.117 C
HETATM    5  O1  UNL     1      12.745  13.554   1.978  1.00  0.00    -0.274 OA
ATOM      6  H1  UNL     1      13.751  11.663  -0.437  1.00  0.00     0.163 HD
ENDBRANCH   1   2
BRANCH   1   7
HETATM    7  C4  UNL     1      14.910   9.973   1.182  1.00  0.00     0.044 C
BRANCH   7   8
HETATM    8  C5  UNL     1      14.959   9.682  -0.290  1.00  0.00     0.105 C
BRANCH   8   9
HETATM    9  C6  UNL     1      16.255  10.030  -0.901  1.00  0.00     0.220 C
HETATM   10  O2  UNL     1      17.189  10.338  -0.114  1.00  0.00    -0.273 OA
HETATM   11  N2  UNL     1      16.480  10.032  -2.298  1.00  0.00    -0.348 N
HETATM   12  C7  UNL     1      17.776  10.367  -2.809  1.00  0.00     0.126 C
HETATM   13  C11 UNL     1      15.404   9.709  -3.194  1.00  0.00     0.083 C
HETATM   14  C8  UNL     1      18.112   9.574  -4.037  1.00  0.00     0.020 C
HETATM   15  C9  UNL     1      16.978   9.491  -5.022  1.00  0.00     0.004 C
HETATM   16  C10 UNL     1      15.821   8.808  -4.322  1.00  0.00     0.025 C
HETATM   17  C12 UNL     1      14.684  10.940  -3.705  1.00  0.00     0.032 C
ENDBRANCH   8   9
ENDBRANCH   7   8
ENDBRANCH   1   7
BRANCH   1  18
HETATM   18  C13 UNL     1      12.474  10.026   1.654  1.00  0.00     0.240 C
HETATM   19  O3  UNL     1      11.716   9.835   0.665  1.00  0.00    -0.271 OA
HETATM   20  N3  UNL     1      12.109   9.440   2.892  1.00  0.00    -0.358 N
ATOM     21  H3  UNL     1      12.729   9.604   3.685  1.00  0.00     0.162 HD
BRANCH  20  22
HETATM   22  C14 UNL     1      10.940   8.634   3.128  1.00  0.00     0.150 C
BRANCH  22  23
HETATM   23  C15 UNL     1       9.805   9.320   3.772  1.00  0.00     0.257 C
BRANCH  23  24
HETATM   24  N4  UNL     1       8.620   8.612   4.048  1.00  0.00    -0.065 N
HETATM   25  C16 UNL     1       8.569   7.217   3.758  1.00  0.00     0.273 C
HETATM   26  C17 UNL     1       8.352   8.729   5.503  1.00  0.00     0.238 C
HETATM   27  C18 UNL     1       7.656  10.085   5.652  1.00  0.00     0.034 C
HETATM   28  C19 UNL     1       7.273  10.490   4.275  1.00  0.00     0.018 C
HETATM   29  C20 UNL     1       5.818  10.887   4.109  1.00  0.00     0.007 C
HETATM   30  C24 UNL     1       7.423   9.202   3.497  1.00  0.00     0.194 C
HETATM   31  C21 UNL     1       5.183  10.197   2.946  1.00  0.00     0.001 C
HETATM   32  C22 UNL     1       6.043  10.063   1.726  1.00  0.00     0.002 C
HETATM   33  C23 UNL     1       7.448   9.527   2.052  1.00  0.00     0.034 C
ENDBRANCH  23  24
ENDBRANCH  22  23
ENDBRANCH  20  22
ENDBRANCH   1  18
TORSDOF 8
ENDMDL