MODEL 5
REMARK VINA RESULT: -9.672584795      1.523      1.879
REMARK  8 active torsions:
REMARK  status: ('A' for Active; 'I' for Inactive)
REMARK    1  A    between atoms: C1_2  and  C2_3
REMARK       I    between atoms: C1_2  and  N2_18
REMARK    2  A    between atoms: C2_3  and  C3_4
REMARK    3  A    between atoms: C3_4  and  C4_5
REMARK       I    between atoms: N1_7  and  C6_8
REMARK    4  A    between atoms: C6_8  and  C7_10
REMARK    5  A    between atoms: N2_18  and  C14_20
REMARK    6  A    between atoms: C14_20  and  C15_21
REMARK       I    between atoms: N3_24  and  C18_25
REMARK       I    between atoms: C18_25  and  N4_27
REMARK    7  A    between atoms: N4_27  and  C19_29
REMARK    8  A    between atoms: C19_29  and  C20_30
ROOT
HETATM    1  O1  UNL     1      15.695   6.858   4.939  1.00  0.00    -0.274 OA
HETATM    2  C1  UNL     1      15.924   7.830   4.195  1.00  0.00     0.217 C
HETATM    3  N2  UNL     1      15.124   8.991   4.329  1.00  0.00    -0.361 N
ATOM      4  H2  UNL     1      15.283   9.805   3.737  1.00  0.00     0.162 HD
ENDROOT
BRANCH   2   5
HETATM    5  C2  UNL     1      16.987   7.858   3.167  1.00  0.00     0.103 C
BRANCH   5   6
HETATM    6  C3  UNL     1      17.118   9.144   2.419  1.00  0.00     0.018 C
BRANCH   6   7
HETATM    7  C4  UNL     1      16.471   9.059   1.083  1.00  0.00     0.040 C
HETATM    8  C5  UNL     1      17.469   9.483  -0.025  1.00  0.00     0.133 C
HETATM    9  N1  UNL     1      16.683   9.109  -1.183  1.00  0.00    -0.349 N
HETATM   10  C6  UNL     1      16.603   9.851  -2.382  1.00  0.00     0.224 C
HETATM   11  C12 UNL     1      16.008   7.860  -0.881  1.00  0.00     0.163 C
HETATM   12  O2  UNL     1      17.251  10.923  -2.491  1.00  0.00    -0.273 OA
HETATM   13  C13 UNL     1      16.183   7.646   0.631  1.00  0.00     0.193 C
HETATM   14  F1  UNL     1      15.005   7.153   1.169  1.00  0.00    -0.247 F
BRANCH  10  15
HETATM   15  C7  UNL     1      15.780   9.419  -3.543  1.00  0.00     0.078 C
HETATM   16  C8  UNL     1      14.837  10.511  -3.955  1.00  0.00     0.014 C
HETATM   17  C9  UNL     1      14.885  10.567  -5.465  1.00  0.00     0.001 C
HETATM   18  C10 UNL     1      16.118   9.846  -5.893  1.00  0.00     0.001 C
HETATM   19  C11 UNL     1      16.622   9.071  -4.724  1.00  0.00     0.014 C
ENDBRANCH  10  15
ENDBRANCH   6   7
ENDBRANCH   5   6
ENDBRANCH   2   5
BRANCH   3  20
HETATM   20  C14 UNL     1      14.079   8.993   5.325  1.00  0.00     0.127 C
BRANCH  20  21
HETATM   21  C15 UNL     1      12.746   9.124   4.658  1.00  0.00     0.006 C
HETATM   22  C16 UNL     1      12.790  10.190   3.583  1.00  0.00     0.026 C
HETATM   23  C17 UNL     1      11.377  10.403   3.109  1.00  0.00     0.128 C
HETATM   24  N3  UNL     1      10.804   9.109   2.810  1.00  0.00    -0.334 N
HETATM   25  C18 UNL     1       9.395   9.006   2.622  1.00  0.00     0.318 C
HETATM   26  C23 UNL     1      11.684   7.969   2.713  1.00  0.00     0.128 C
HETATM   27  O3  UNL     1       8.861   7.901   2.361  1.00  0.00    -0.247 OA
HETATM   28  N4  UNL     1       8.563  10.146   2.722  1.00  0.00    -0.343 N
ATOM     29  H4  UNL     1       8.997  11.044   2.933  1.00  0.00     0.164 HD
HETATM   30  C24 UNL     1      12.357   7.774   4.057  1.00  0.00     0.026 C
BRANCH  28  31
HETATM   31  C19 UNL     1       7.138  10.102   2.542  1.00  0.00     0.129 C
BRANCH  31  32
HETATM   32  C20 UNL     1       6.466   9.664   3.820  1.00  0.00     0.003 A
HETATM   33  C21 UNL     1       6.703  10.527   5.056  1.00  0.00     0.007 A
HETATM   34  C22 UNL     1       5.347  10.531   4.401  1.00  0.00     0.007 A
ENDBRANCH  31  32
ENDBRANCH  28  31
ENDBRANCH  20  21
ENDBRANCH   3  20
TORSDOF 8
ENDMDL