MODEL 3
REMARK VINA RESULT: -8.159435856      1.914      7.606
REMARK  11 active torsions:
REMARK  status: ('A' for Active; 'I' for Inactive)
REMARK    1  A    between atoms: N1_2  and  C2_5
REMARK    2  A    between atoms: C2_5  and  C4_7
REMARK       I    between atoms: C4_7  and  N2_9
REMARK    3  A    between atoms: N2_9  and  C5_11
REMARK    4  A    between atoms: C5_11  and  C7_13
REMARK    5  A    between atoms: C7_13  and  N4_23
REMARK    6  A    between atoms: N3_14  and  C8_16
REMARK    7  A    between atoms: C8_16  and  C9_17
REMARK    8  A    between atoms: C10_18  and  C11_19
REMARK    9  A    between atoms: C17_26  and  N5_27
REMARK   10  A    between atoms: N5_27  and  C20_30
REMARK   11  A    between atoms: C20_30  and  C21_31
ROOT
HETATM    1  C7  UNL     1      12.386   9.035   1.835  1.00  0.00     0.098 C
HETATM    2  N3  UNL     1      11.406   8.580   1.195  1.00  0.00    -0.368 N
ATOM      3  H3  UNL     1      11.344   8.824   0.207  1.00  0.00     0.161 HD
ENDROOT
BRANCH   1   4
HETATM    4  C5  UNL     1      12.568   8.739   3.280  1.00  0.00     0.147 C
HETATM    5  C6  UNL     1      12.135   9.906   4.131  1.00  0.00     0.040 C
BRANCH   4   6
HETATM    6  N2  UNL     1      13.960   8.342   3.535  1.00  0.00    -0.348 N
HETATM    7  C4  UNL     1      14.324   7.365   4.501  1.00  0.00     0.248 C
HETATM    8  O1  UNL     1      13.381   6.838   5.153  1.00  0.00    -0.271 OA
ATOM      9  H2  UNL     1      14.699   8.790   2.995  1.00  0.00     0.163 HD
BRANCH   7  10
HETATM   10  C2  UNL     1      15.736   6.973   4.736  1.00  0.00     0.272 C
HETATM   11  C3  UNL     1      16.489   8.213   5.190  1.00  0.00     0.050 C
BRANCH  10  12
HETATM   12  N1  UNL     1      16.274   6.466   3.496  1.00  0.00    -0.067 N
HETATM   13  C1  UNL     1      17.023   7.470   2.765  1.00  0.00     0.267 C
ATOM     14  H12 UNL     1      15.540   6.061   2.916  1.00  0.00     0.277 HD
ATOM     15  H11 UNL     1      16.838   5.631   3.655  1.00  0.00     0.277 HD
ENDBRANCH  10  12
ENDBRANCH   7  10
ENDBRANCH   4   6
ENDBRANCH   1   4
BRANCH   1  16
HETATM   16  N4  UNL     1      13.330   9.852   1.129  1.00  0.00    -0.369 N
HETATM   17  C15 UNL     1      14.512   9.181   0.623  1.00  0.00     0.126 C
HETATM   18  C16 UNL     1      15.255  10.031  -0.364  1.00  0.00     0.053 C
HETATM   19  C17 UNL     1      14.274  10.676  -1.330  1.00  0.00     0.192 C
HETATM   20  C24 UNL     1      13.395  11.615  -0.582  1.00  0.00     0.053 C
HETATM   21  C25 UNL     1      13.222  11.248   0.884  1.00  0.00     0.126 C
BRANCH  19  22
HETATM   22  N5  UNL     1      15.038  11.285  -2.400  1.00  0.00    -0.070 N
HETATM   23  C18 UNL     1      16.427  11.183  -2.023  1.00  0.00     0.272 C
HETATM   24  C19 UNL     1      14.583  12.657  -2.517  1.00  0.00     0.272 C
BRANCH  22  25
HETATM   25  C20 UNL     1      14.844  10.648  -3.668  1.00  0.00     0.241 C
BRANCH  25  26
HETATM   26  C21 UNL     1      15.949   9.754  -4.117  1.00  0.00     0.012 A
HETATM   27  C22 UNL     1      16.168   9.383  -5.525  1.00  0.00     0.007 A
HETATM   28  C23 UNL     1      15.533   8.366  -4.575  1.00  0.00     0.007 A
ENDBRANCH  25  26
ENDBRANCH  22  25
ENDBRANCH  19  22
ENDBRANCH   1  16
BRANCH   2  29
HETATM   29  C8  UNL     1      10.380   7.758   1.720  1.00  0.00     0.215 C
BRANCH  29  30
HETATM   30  C9  UNL     1       9.403   8.543   2.529  1.00  0.00    -0.086 C
HETATM   31  C10 UNL     1       8.616   9.161   3.203  1.00  0.00    -0.096 C
BRANCH  31  32
HETATM   32  C11 UNL     1       7.668   9.891   4.043  1.00  0.00     0.013 C
HETATM   33  C12 UNL     1       7.207   8.941   5.142  1.00  0.00     0.028 C
HETATM   34  C13 UNL     1       6.456  10.338   3.214  1.00  0.00     0.028 C
HETATM   35  C14 UNL     1       8.379  11.071   4.649  1.00  0.00     0.028 C
ENDBRANCH  31  32
ENDBRANCH  29  30
ENDBRANCH   2  29
TORSDOF 11
ENDMDL