MODEL 5
REMARK VINA RESULT: -8.507810529      1.048      1.412
REMARK  8 active torsions:
REMARK  status: ('A' for Active; 'I' for Inactive)
REMARK       I    between atoms: C2_2  and  N1_4
REMARK    1  A    between atoms: N1_4  and  C3_6
REMARK    2  A    between atoms: C3_6  and  C4_7
REMARK    3  A    between atoms: C3_6  and  C15_23
REMARK       I    between atoms: C4_7  and  N2_9
REMARK    4  A    between atoms: N2_9  and  C5_11
REMARK    5  A    between atoms: C5_11  and  C6_12
REMARK    6  A    between atoms: C6_12  and  C7_13
REMARK    7  A    between atoms: C7_13  and  C8_14
REMARK    8  A    between atoms: C8_14  and  N3_15
ROOT
HETATM    1  C3  UNL     1      12.012   9.464   2.737  1.00  0.00     0.185 C
ENDROOT
BRANCH   1   2
HETATM    2  N1  UNL     1      12.947   9.240   3.787  1.00  0.00    -0.347 N
HETATM    3  C2  UNL     1      13.758   8.073   3.794  1.00  0.00     0.214 C
HETATM    4  C1  UNL     1      14.754   7.747   4.828  1.00  0.00     0.117 C
HETATM    5  O1  UNL     1      13.632   7.237   2.850  1.00  0.00    -0.274 OA
ATOM      6  H1  UNL     1      13.036   9.922   4.539  1.00  0.00     0.163 HD
ENDBRANCH   1   2
BRANCH   1   7
HETATM    7  C4  UNL     1      12.197  10.815   2.147  1.00  0.00     0.241 C
HETATM    8  O2  UNL     1      12.285  11.759   3.005  1.00  0.00    -0.271 OA
HETATM    9  N2  UNL     1      12.280  11.121   0.786  1.00  0.00    -0.359 N
ATOM     10  H2  UNL     1      12.215  10.355   0.116  1.00  0.00     0.162 HD
BRANCH   9  11
HETATM   11  C5  UNL     1      12.451  12.442   0.281  1.00  0.00     0.122 C
BRANCH  11  12
HETATM   12  C6  UNL     1      13.890  12.860   0.316  1.00  0.00     0.021 C
BRANCH  12  13
HETATM   13  C7  UNL     1      14.306  13.296  -1.079  1.00  0.00     0.032 C
BRANCH  13  14
HETATM   14  C8  UNL     1      15.512  12.468  -1.528  1.00  0.00     0.272 C
BRANCH  14  15
HETATM   15  N3  UNL     1      15.300  11.067  -1.259  1.00  0.00     0.091 N
HETATM   16  C9  UNL     1      16.565  10.389  -1.177  1.00  0.00     0.300 C
HETATM   17  C10 UNL     1      16.531   9.072  -1.937  1.00  0.00     0.266 C
HETATM   18  N4  UNL     1      16.257   9.261  -3.330  1.00  0.00    -0.071 N
HETATM   19  C11 UNL     1      15.762   8.038  -3.951  1.00  0.00     0.272 C
HETATM   20  C12 UNL     1      17.514   9.618  -4.006  1.00  0.00     0.272 C
HETATM   21  C13 UNL     1      15.314  10.315  -3.536  1.00  0.00     0.266 C
HETATM   22  C14 UNL     1      14.483  10.507  -2.301  1.00  0.00     0.300 C
ENDBRANCH  14  15
ENDBRANCH  13  14
ENDBRANCH  12  13
ENDBRANCH  11  12
ENDBRANCH   9  11
ENDBRANCH   1   7
BRANCH   1  23
HETATM   23  C15 UNL     1      10.575   9.253   3.133  1.00  0.00    -0.007 C
HETATM   24  C16 UNL     1      10.435   9.806   4.543  1.00  0.00     0.017 C
HETATM   25  C17 UNL     1       8.994   9.841   5.016  1.00  0.00    -0.013 C
HETATM   26  C18 UNL     1       8.208  10.712   4.105  1.00  0.00     0.009 C
HETATM   27  C22 UNL     1       8.439   8.431   5.008  1.00  0.00     0.010 C
HETATM   28  C19 UNL     1       8.276  10.132   2.699  1.00  0.00    -0.013 C
HETATM   29  C20 UNL     1       7.779   8.711   2.682  1.00  0.00     0.010 C
HETATM   30  C25 UNL     1       9.707  10.137   2.231  1.00  0.00     0.017 C
HETATM   31  C21 UNL     1       8.619   7.899   3.631  1.00  0.00    -0.009 C
HETATM   32  C23 UNL     1      10.082   7.858   3.167  1.00  0.00    -0.004 C
HETATM   33  C24 UNL     1      10.026   7.141   1.845  1.00  0.00     0.011 C
ENDBRANCH   1  23
TORSDOF 8
ENDMDL