MODEL 2
REMARK VINA RESULT: -8.956233165      1.309      2.092
REMARK  8 active torsions:
REMARK  status: ('A' for Active; 'I' for Inactive)
REMARK    1  A    between atoms: C2_2  and  C3_3
REMARK    2  A    between atoms: C3_3  and  N1_4
REMARK    3  A    between atoms: N1_4  and  C4_5
REMARK       I    between atoms: N1_4  and  C9_13
REMARK    4  A    between atoms: C4_5  and  C5_6
REMARK       I    between atoms: C5_6  and  N2_8
REMARK    5  A    between atoms: N2_8  and  C6_10
REMARK       I    between atoms: C9_13  and  N3_15
REMARK    6  A    between atoms: N3_15  and  C10_17
REMARK    7  A    between atoms: C10_17  and  C11_18
REMARK       I    between atoms: N4_21  and  C14_22
REMARK    8  A    between atoms: C14_22  and  C15_24
ROOT
HETATM    1  C10 UNL     1      12.697   8.843   0.787  1.00  0.00     0.130 C
ENDROOT
BRANCH   1   2
HETATM    2  N3  UNL     1      13.264   9.996   0.134  1.00  0.00    -0.343 N
HETATM    3  C9  UNL     1      14.655  10.082  -0.104  1.00  0.00     0.318 C
HETATM    4  N1  UNL     1      15.224  11.183  -0.757  1.00  0.00    -0.326 N
HETATM    5  O2  UNL     1      15.396   9.156   0.271  1.00  0.00    -0.247 OA
ATOM      6  H3  UNL     1      12.654  10.759  -0.160  1.00  0.00     0.164 HD
BRANCH   4   7
HETATM    7  C3  UNL     1      14.416  12.271  -1.244  1.00  0.00     0.127 C
BRANCH   7   8
HETATM    8  C2  UNL     1      14.439  13.505  -0.407  1.00  0.00     0.015 C
HETATM    9  C1  UNL     1      12.995  13.939  -0.111  1.00  0.00     0.006 C
ENDBRANCH   7   8
ENDBRANCH   4   7
BRANCH   4  10
HETATM   10  C4  UNL     1      16.681  11.220  -0.947  1.00  0.00     0.230 C
BRANCH  10  11
HETATM   11  C5  UNL     1      17.068  10.509  -2.187  1.00  0.00     0.235 C
HETATM   12  O1  UNL     1      18.196  10.728  -2.685  1.00  0.00    -0.272 OA
HETATM   13  N2  UNL     1      16.213   9.585  -2.840  1.00  0.00    -0.355 N
ATOM     14  H2  UNL     1      15.293   9.401  -2.442  1.00  0.00     0.162 HD
BRANCH  13  15
HETATM   15  C6  UNL     1      16.596   8.904  -4.036  1.00  0.00     0.084 A
HETATM   16  C7  UNL     1      16.194   9.383  -5.379  1.00  0.00     0.027 A
HETATM   17  C8  UNL     1      15.522   8.172  -4.762  1.00  0.00     0.027 A
ENDBRANCH  13  15
ENDBRANCH  10  11
ENDBRANCH   4  10
ENDBRANCH   1   2
BRANCH   1  18
HETATM   18  C11 UNL     1      12.577   8.970   2.257  1.00  0.00     0.014 C
HETATM   19  C12 UNL     1      11.938   7.658   2.753  1.00  0.00     0.027 C
HETATM   20  C13 UNL     1      10.553   7.470   2.229  1.00  0.00     0.126 C
HETATM   21  N4  UNL     1       9.754   8.646   2.496  1.00  0.00    -0.351 N
HETATM   22  C14 UNL     1       8.484   8.536   3.098  1.00  0.00     0.224 C
HETATM   23  C20 UNL     1      10.278   9.940   2.140  1.00  0.00     0.135 C
HETATM   24  O3  UNL     1       8.068   7.396   3.419  1.00  0.00    -0.273 OA
HETATM   25  C21 UNL     1      11.674  10.068   2.749  1.00  0.00    -0.026 C
HETATM   26  C22 UNL     1      11.487   9.834   4.247  1.00  0.00     0.017 C
HETATM   27  C23 UNL     1      12.197  11.438   2.534  1.00  0.00     0.017 C
BRANCH  22  28
HETATM   28  C15 UNL     1       7.658   9.703   3.347  1.00  0.00     0.082 C
HETATM   29  C16 UNL     1       6.722  10.092   2.235  1.00  0.00     0.040 C
HETATM   30  C17 UNL     1       5.268   9.823   2.557  1.00  0.00     0.168 C
HETATM   31  O4  UNL     1       4.837  10.556   3.657  1.00  0.00    -0.391 OA
HETATM   32  C18 UNL     1       5.848  10.747   4.593  1.00  0.00     0.168 C
HETATM   33  C19 UNL     1       6.810   9.561   4.609  1.00  0.00     0.040 C
ENDBRANCH  22  28
ENDBRANCH   1  18
TORSDOF 8
ENDMDL