MODEL 3
REMARK VINA RESULT: -9.912025095      0.971      1.435
REMARK  10 active torsions:
REMARK  status: ('A' for Active; 'I' for Inactive)
REMARK    1  A    between atoms: C5_6  and  C6_7
REMARK    2  A    between atoms: C6_7  and  N1_8
REMARK    3  A    between atoms: C7_10  and  C8_11
REMARK    4  A    between atoms: C7_10  and  N4_29
REMARK    5  A    between atoms: C8_11  and  C9_12
REMARK    6  A    between atoms: C9_12  and  C10_13
REMARK    7  A    between atoms: C10_13  and  C11_14
REMARK    8  A    between atoms: C11_14  and  N2_15
REMARK       I    between atoms: N2_15  and  C12_17
REMARK    9  A    between atoms: C12_17  and  C13_19
REMARK       I    between atoms: C13_19  and  N3_21
REMARK   10  A    between atoms: N3_21  and  C14_23
ROOT
HETATM    1  C8  UNL     1      15.290   9.586  -0.265  1.00  0.00     0.076 C
ENDROOT
BRANCH   1   2
HETATM    2  C7  UNL     1      15.581  10.805  -1.073  1.00  0.00     0.081 C
HETATM    3  N1  UNL     1      16.525  10.721  -1.943  1.00  0.00    -0.379 N
ATOM      4  H1  UNL     1      16.749  11.539  -2.509  1.00  0.00     0.160 HD
BRANCH   3   5
HETATM    5  C6  UNL     1      17.278   9.505  -2.142  1.00  0.00     0.125 C
BRANCH   5   6
HETATM    6  C5  UNL     1      17.129   8.945  -3.519  1.00  0.00     0.006 C
HETATM    7  C4  UNL     1      15.745   8.329  -3.767  1.00  0.00     0.009 C
HETATM    8  C3  UNL     1      15.672   8.348  -5.309  1.00  0.00     0.043 C
HETATM    9  C2  UNL     1      16.200   9.737  -5.555  1.00  0.00     0.100 C
HETATM   10  C1  UNL     1      16.571   9.931  -7.017  1.00  0.00     0.051 C
HETATM   11  F1  UNL     1      15.165  10.604  -5.282  1.00  0.00    -0.243 F
HETATM   12  C24 UNL     1      17.359   9.881  -4.645  1.00  0.00     0.049 C
ENDBRANCH   5   6
ENDBRANCH   3   5
BRANCH   2  13
HETATM   13  N4  UNL     1      14.816  11.974  -0.870  1.00  0.00    -0.307 N
HETATM   14  C20 UNL     1      13.466  12.088  -0.346  1.00  0.00     0.133 C
HETATM   15  C21 UNL     1      13.425  13.527   0.200  1.00  0.00     0.029 C
HETATM   16  C22 UNL     1      14.208  14.231  -0.879  1.00  0.00     0.105 C
HETATM   17  C23 UNL     1      15.304  13.284  -1.168  1.00  0.00     0.225 C
HETATM   18  O3  UNL     1      16.429  13.644  -1.595  1.00  0.00    -0.273 OA
ENDBRANCH   2  13
ENDBRANCH   1   2
BRANCH   1  19
HETATM   19  C9  UNL     1      15.902   9.737   1.083  1.00  0.00     0.009 C
BRANCH  19  20
HETATM   20  C10 UNL     1      15.022   9.025   2.111  1.00  0.00     0.020 C
BRANCH  20  21
HETATM   21  C11 UNL     1      13.714   8.586   1.554  1.00  0.00     0.123 C
BRANCH  21  22
HETATM   22  N2  UNL     1      12.632   9.281   2.193  1.00  0.00    -0.353 N
HETATM   23  C12 UNL     1      11.287   8.939   1.951  1.00  0.00     0.309 C
HETATM   24  O1  UNL     1      10.914   8.023   1.178  1.00  0.00    -0.262 OA
ATOM     25  H2  UNL     1      12.842  10.043   2.837  1.00  0.00     0.162 HD
BRANCH  23  26
HETATM   26  C13 UNL     1      10.234   9.677   2.629  1.00  0.00     0.309 C
HETATM   27  O2  UNL     1      10.548  10.587   3.429  1.00  0.00    -0.262 OA
HETATM   28  N3  UNL     1       8.878   9.377   2.392  1.00  0.00    -0.348 N
ATOM     29  H3  UNL     1       8.631   8.633   1.739  1.00  0.00     0.163 HD
BRANCH  28  30
HETATM   30  C14 UNL     1       7.839  10.113   3.064  1.00  0.00     0.084 C
HETATM   31  C15 UNL     1       6.645  10.395   2.200  1.00  0.00     0.025 C
HETATM   32  C16 UNL     1       5.334  10.050   2.858  1.00  0.00     0.002 C
HETATM   33  C17 UNL     1       5.244  10.465   4.295  1.00  0.00     0.000 C
HETATM   34  C18 UNL     1       6.488  10.169   5.090  1.00  0.00     0.002 C
HETATM   35  C19 UNL     1       7.417   9.288   4.289  1.00  0.00     0.025 C
ENDBRANCH  28  30
ENDBRANCH  23  26
ENDBRANCH  21  22
ENDBRANCH  20  21
ENDBRANCH  19  20
ENDBRANCH   1  19
TORSDOF 10
ENDMDL