MODEL 5
REMARK VINA RESULT: -9.321353000      1.739      9.748
REMARK  8 active torsions:
REMARK  status: ('A' for Active; 'I' for Inactive)
REMARK    1  A    between atoms: C1_2  and  C2_3
REMARK       I    between atoms: C1_2  and  N4_26
REMARK    2  A    between atoms: C2_3  and  C3_4
REMARK    3  A    between atoms: C3_4  and  C4_5
REMARK       I    between atoms: C4_5  and  N1_7
REMARK       I    between atoms: N2_10  and  C7_11
REMARK    4  A    between atoms: C7_11  and  C8_13
REMARK    5  A    between atoms: C8_13  and  C9_14
REMARK    6  A    between atoms: C9_14  and  N3_15
REMARK       I    between atoms: N3_15  and  C10_17
REMARK    7  A    between atoms: C10_17  and  C11_19
REMARK    8  A    between atoms: N4_26  and  C18_28
ROOT
HETATM    1  C4  UNL     1      11.613   9.775   0.359  1.00  0.00     0.220 C
HETATM    2  O2  UNL     1      11.399  10.797  -0.343  1.00  0.00    -0.273 OA
HETATM    3  N1  UNL     1      12.923   9.555   0.844  1.00  0.00    -0.349 N
HETATM    4  C5  UNL     1      13.266   8.406   1.658  1.00  0.00     0.145 C
HETATM    5  C6  UNL     1      14.630   7.861   1.393  1.00  0.00     0.145 C
HETATM    6  N2  UNL     1      15.601   8.885   1.070  1.00  0.00    -0.349 N
HETATM    7  C7  UNL     1      16.876   8.493   0.593  1.00  0.00     0.221 C
HETATM    8  O3  UNL     1      17.208   7.296   0.435  1.00  0.00    -0.273 OA
HETATM    9  C16 UNL     1      15.245  10.271   1.244  1.00  0.00     0.145 C
HETATM   10  C17 UNL     1      13.956  10.510   0.518  1.00  0.00     0.145 C
ENDROOT
BRANCH   1  11
HETATM   11  C3  UNL     1      10.496   8.833   0.656  1.00  0.00     0.112 C
BRANCH  11  12
HETATM   12  C2  UNL     1       9.155   9.529   0.541  1.00  0.00     0.112 C
BRANCH  12  13
HETATM   13  C1  UNL     1       8.272   9.216   1.683  1.00  0.00     0.218 C
HETATM   14  O1  UNL     1       8.488   8.206   2.397  1.00  0.00    -0.274 OA
HETATM   15  N4  UNL     1       7.184  10.045   1.982  1.00  0.00    -0.356 N
ATOM     16  H4  UNL     1       7.025  10.861   1.389  1.00  0.00     0.162 HD
BRANCH  15  17
HETATM   17  C18 UNL     1       6.267   9.815   3.082  1.00  0.00     0.084 C
HETATM   18  C19 UNL     1       6.769  10.476   4.359  1.00  0.00     0.025 C
HETATM   19  C20 UNL     1       5.624  10.633   5.304  1.00  0.00     0.002 C
HETATM   20  C21 UNL     1       4.518   9.628   5.088  1.00  0.00     0.000 C
HETATM   21  C22 UNL     1       3.910   9.747   3.712  1.00  0.00     0.002 C
HETATM   22  C23 UNL     1       4.901  10.418   2.790  1.00  0.00     0.025 C
ENDBRANCH  15  17
ENDBRANCH  12  13
ENDBRANCH  11  12
ENDBRANCH   1  11
BRANCH   7  23
HETATM   23  C8  UNL     1      17.908   9.533   0.247  1.00  0.00     0.122 C
BRANCH  23  24
HETATM   24  C9  UNL     1      18.176   9.557  -1.231  1.00  0.00     0.132 C
BRANCH  24  25
HETATM   25  N3  UNL     1      17.069   9.154  -2.046  1.00  0.00    -0.360 N
HETATM   26  C10 UNL     1      16.138  10.050  -2.608  1.00  0.00     0.221 C
HETATM   27  O4  UNL     1      16.232  11.280  -2.417  1.00  0.00    -0.273 OA
ATOM     28  H3  UNL     1      16.947   8.158  -2.232  1.00  0.00     0.162 HD
BRANCH  26  29
HETATM   29  C11 UNL     1      14.997   9.590  -3.456  1.00  0.00     0.078 C
HETATM   30  C12 UNL     1      15.366   8.370  -4.245  1.00  0.00     0.014 C
HETATM   31  C13 UNL     1      16.053   8.852  -5.502  1.00  0.00     0.001 C
HETATM   32  C14 UNL     1      15.772  10.342  -5.565  1.00  0.00     0.001 C
HETATM   33  C15 UNL     1      14.682  10.595  -4.535  1.00  0.00     0.014 C
ENDBRANCH  26  29
ENDBRANCH  24  25
ENDBRANCH  23  24
ENDBRANCH   7  23
TORSDOF 8
ENDMDL