MODEL 2
REMARK VINA RESULT: -8.668195195      2.154      2.540
REMARK  8 active torsions:
REMARK  status: ('A' for Active; 'I' for Inactive)
REMARK    1  A    between atoms: C2_2  and  C4_4
REMARK    2  A    between atoms: C4_4  and  N1_5
REMARK    3  A    between atoms: C4_4  and  C9_13
REMARK       I    between atoms: N1_5  and  C5_7
REMARK    4  A    between atoms: C5_7  and  C6_9
REMARK       I    between atoms: C9_13  and  N2_15
REMARK    5  A    between atoms: C13_19  and  C14_20
REMARK       I    between atoms: C14_20  and  N3_22
REMARK    6  A    between atoms: N3_22  and  C15_24
REMARK    7  A    between atoms: C15_24  and  C16_25
REMARK    8  A    between atoms: C16_25  and  C17_26
ROOT
HETATM    1  C9  UNL     1      14.941   8.911   0.829  1.00  0.00     0.243 C
HETATM    2  O2  UNL     1      14.950   7.641   1.027  1.00  0.00    -0.271 OA
HETATM    3  N2  UNL     1      13.697   9.541   1.102  1.00  0.00    -0.350 N
HETATM    4  C10 UNL     1      13.419  10.943   0.876  1.00  0.00     0.126 C
HETATM    5  C11 UNL     1      12.295  10.999  -0.155  1.00  0.00     0.021 C
HETATM    6  C12 UNL     1      11.081  10.386   0.505  1.00  0.00     0.017 C
HETATM    7  C13 UNL     1      11.335   8.952   0.906  1.00  0.00     0.096 C
HETATM    8  C20 UNL     1      12.586   8.768   1.684  1.00  0.00     0.139 C
ENDROOT
BRANCH   1   9
HETATM    9  C4  UNL     1      16.168   9.565   0.356  1.00  0.00     0.180 C
BRANCH   9  10
HETATM   10  C2  UNL     1      17.434   9.019   1.041  1.00  0.00     0.009 C
HETATM   11  C1  UNL     1      17.460   9.366   2.507  1.00  0.00     0.012 C
HETATM   12  C3  UNL     1      18.698   9.366   0.335  1.00  0.00     0.012 C
ENDBRANCH   9  10
BRANCH   9  13
HETATM   13  N1  UNL     1      16.352   9.108  -1.040  1.00  0.00    -0.346 N
HETATM   14  C5  UNL     1      15.954   9.870  -2.154  1.00  0.00     0.237 C
HETATM   15  O1  UNL     1      15.408  11.003  -2.067  1.00  0.00    -0.272 OA
ATOM     16  H1  UNL     1      16.787   8.200  -1.202  1.00  0.00     0.163 HD
BRANCH  14  17
HETATM   17  C6  UNL     1      16.180   9.328  -3.516  1.00  0.00     0.091 C
HETATM   18  C7  UNL     1      15.183  10.047  -4.431  1.00  0.00     0.037 C
HETATM   19  C8  UNL     1      15.860   7.851  -3.596  1.00  0.00     0.037 C
HETATM   20 BR1  UNL     1      17.997   9.641  -4.096  1.00  0.00    -0.076 Br
ENDBRANCH  14  17
ENDBRANCH   9  13
ENDBRANCH   1   9
BRANCH   7  21
HETATM   21  C14 UNL     1      10.151   8.430   1.583  1.00  0.00     0.223 C
HETATM   22  O3  UNL     1      10.009   7.191   1.724  1.00  0.00    -0.273 OA
HETATM   23  N3  UNL     1       9.108   9.241   2.114  1.00  0.00    -0.361 N
ATOM     24  H3  UNL     1       9.198  10.252   2.011  1.00  0.00     0.162 HD
BRANCH  23  25
HETATM   25  C15 UNL     1       7.949   8.747   2.777  1.00  0.00     0.123 C
BRANCH  25  26
HETATM   26  C16 UNL     1       6.721   9.564   2.706  1.00  0.00     0.024 C
BRANCH  26  27
HETATM   27  C17 UNL     1       6.380  10.417   3.869  1.00  0.00    -0.013 A
HETATM   28  C18 UNL     1       6.911  10.155   5.228  1.00  0.00     0.005 A
HETATM   29  C19 UNL     1       5.426  10.105   4.929  1.00  0.00     0.005 A
ENDBRANCH  26  27
ENDBRANCH  25  26
ENDBRANCH  23  25
ENDBRANCH   7  21
TORSDOF 8
ENDMDL