MODEL 4
REMARK VINA RESULT: -9.333935653      2.817      6.543
REMARK  8 active torsions:
REMARK  status: ('A' for Active; 'I' for Inactive)
REMARK       I    between atoms: N1_4  and  C4_6
REMARK    1  A    between atoms: C4_6  and  C5_8
REMARK       I    between atoms: N2_12  and  C9_13
REMARK    2  A    between atoms: C9_13  and  C10_15
REMARK    3  A    between atoms: C10_15  and  C11_16
REMARK    4  A    between atoms: C10_15  and  N3_23
REMARK    5  A    between atoms: C11_16  and  C12_17
REMARK       I    between atoms: N3_23  and  C18_25
REMARK    6  A    between atoms: C18_25  and  C19_27
REMARK    7  A    between atoms: C19_27  and  N4_28
REMARK       I    between atoms: N4_28  and  C20_30
REMARK    8  A    between atoms: C20_30  and  C21_32
ROOT
HETATM    1  C10 UNL     1      12.407   9.467   1.698  1.00  0.00     0.177 C
ENDROOT
BRANCH   1   2
HETATM    2  C9  UNL     1      11.033   9.977   1.854  1.00  0.00     0.243 C
HETATM    3  N2  UNL     1      10.138   9.749   2.898  1.00  0.00    -0.337 N
HETATM    4  C5  UNL     1       8.786  10.252   2.979  1.00  0.00     0.179 C
HETATM    5  C8  UNL     1      10.361   9.011   4.106  1.00  0.00     0.127 C
HETATM    6  C6  UNL     1       8.671  10.666   4.410  1.00  0.00     0.037 C
HETATM    7  C7  UNL     1       9.783   9.956   5.158  1.00  0.00     0.022 C
HETATM    8  O2  UNL     1      10.618  10.733   0.893  1.00  0.00    -0.271 OA
BRANCH   4   9
HETATM    9  C4  UNL     1       7.787   9.240   2.584  1.00  0.00     0.244 C
HETATM   10  N1  UNL     1       6.480   9.475   2.161  1.00  0.00    -0.333 N
HETATM   11  C2  UNL     1       6.071  10.158   1.174  1.00  0.00    -0.018 C
ATOM     12  H1  UNL     1       5.751   9.037   2.725  1.00  0.00     0.168 HD
HETATM   13  C1  UNL     1       4.576  10.215   0.988  1.00  0.00     0.062 C
HETATM   14  C3  UNL     1       6.939  10.883   0.218  1.00  0.00     0.062 C
HETATM   15  O1  UNL     1       8.156   8.012   2.632  1.00  0.00    -0.271 OA
ENDBRANCH   4   9
ENDBRANCH   1   2
BRANCH   1  16
HETATM   16  C11 UNL     1      12.520   7.973   1.771  1.00  0.00     0.039 C
BRANCH  16  17
HETATM   17  C12 UNL     1      13.485   7.377   2.697  1.00  0.00    -0.012 C
HETATM   18  C13 UNL     1      13.927   8.194   3.862  1.00  0.00     0.005 C
HETATM   19  C14 UNL     1      14.648   7.232   4.815  1.00  0.00     0.000 C
HETATM   20  C15 UNL     1      15.894   6.744   4.127  1.00  0.00     0.000 C
HETATM   21  C16 UNL     1      15.998   7.279   2.723  1.00  0.00     0.000 C
HETATM   22  C17 UNL     1      14.755   7.049   1.897  1.00  0.00     0.005 C
ENDBRANCH  16  17
ENDBRANCH   1  16
BRANCH   1  23
HETATM   23  N3  UNL     1      12.791   9.772   0.293  1.00  0.00    -0.346 N
HETATM   24  C18 UNL     1      13.644  10.858   0.005  1.00  0.00     0.236 C
HETATM   25  O3  UNL     1      14.085  11.571   0.945  1.00  0.00    -0.272 OA
ATOM     26  H3  UNL     1      12.434   9.193  -0.467  1.00  0.00     0.163 HD
BRANCH  24  27
HETATM   27  C19 UNL     1      14.023  11.160  -1.390  1.00  0.00     0.225 C
BRANCH  27  28
HETATM   28  N4  UNL     1      14.844  10.163  -2.008  1.00  0.00    -0.352 N
HETATM   29  C20 UNL     1      15.134  10.113  -3.394  1.00  0.00     0.222 C
HETATM   30  O4  UNL     1      14.638  11.010  -4.132  1.00  0.00    -0.273 OA
ATOM     31  H4  UNL     1      15.248   9.441  -1.411  1.00  0.00     0.162 HD
BRANCH  29  32
HETATM   32  C21 UNL     1      15.989   9.048  -3.979  1.00  0.00     0.078 A
HETATM   33  C22 UNL     1      15.312   7.868  -4.635  1.00  0.00     0.015 A
HETATM   34  C23 UNL     1      16.053   8.868  -5.452  1.00  0.00     0.015 A
ENDBRANCH  29  32
ENDBRANCH  27  28
ENDBRANCH  24  27
ENDBRANCH   1  23
TORSDOF 8
ENDMDL