MODEL 2
REMARK VINA RESULT: -6.956518628      1.442      3.811
REMARK  10 active torsions:
REMARK  status: ('A' for Active; 'I' for Inactive)
REMARK    1  A    between atoms: N1_2  and  O1_3
REMARK    2  A    between atoms: N1_2  and  C2_5
REMARK    3  A    between atoms: C2_5  and  C3_6
REMARK    4  A    between atoms: C3_6  and  C4_7
REMARK    5  A    between atoms: C7_10  and  N2_11
REMARK    6  A    between atoms: C9_16  and  N4_17
REMARK    7  A    between atoms: N4_17  and  C10_19
REMARK    8  A    between atoms: C13_22  and  N5_23
REMARK    9  A    between atoms: N5_23  and  C14_25
REMARK   10  A    between atoms: C14_25  and  C15_26
ROOT
HETATM    1  N2  UNL     1      18.428  36.797  59.004  1.00  0.00    -0.239 N
HETATM    2  C8  UNL     1      19.010  35.614  59.248  1.00  0.00     0.335 A
HETATM    3  O2  UNL     1      18.337  34.587  59.601  1.00  0.00    -0.246 OA
HETATM    4  N3  UNL     1      20.345  35.505  59.119  1.00  0.00    -0.292 N
ATOM      5  H3  UNL     1      20.799  34.610  59.303  1.00  0.00     0.172 HD
HETATM    6  C9  UNL     1      21.098  36.580  58.745  1.00  0.00     0.138 A
HETATM    7  C13 UNL     1      20.492  37.791  58.495  1.00  0.00     0.142 A
HETATM    8  C17 UNL     1      19.136  37.891  58.629  1.00  0.00     0.285 A
HETATM    9  O3  UNL     1      18.576  38.992  58.402  1.00  0.00    -0.265 OA
ENDROOT
BRANCH   1  10
HETATM   10  C7  UNL     1      17.031  36.955  59.122  1.00  0.00     0.108 C
HETATM   11  C6  UNL     1      16.480  36.925  60.310  1.00  0.00    -0.059 A
HETATM   12  C4  UNL     1      15.155  37.020  61.092  1.00  0.00     0.021 A
HETATM   13  C5  UNL     1      16.399  36.819  61.807  1.00  0.00     0.045 A
BRANCH  12  14
HETATM   14  C3  UNL     1      14.414  38.304  60.957  1.00  0.00     0.026 C
BRANCH  14  15
HETATM   15  C2  UNL     1      13.049  38.311  61.571  1.00  0.00     0.120 C
BRANCH  15  16
HETATM   16  N1  UNL     1      12.848  37.228  62.501  1.00  0.00    -0.204 NA
HETATM   17  C1  UNL     1      11.484  36.795  62.573  1.00  0.00     0.143 C
BRANCH  16  18
HETATM   18  O1  UNL     1      13.338  37.532  63.710  1.00  0.00    -0.314 OA
ATOM     19  H1  UNL     1      14.054  38.154  63.654  1.00  0.00     0.237 HD
ENDBRANCH  16  18
ENDBRANCH  15  16
ENDBRANCH  14  15
ENDBRANCH  12  14
ENDBRANCH   1  10
BRANCH   7  20
HETATM   20  N5  UNL     1      21.226  38.937  58.099  1.00  0.00    -0.380 N
ATOM     21  H5  UNL     1      21.569  39.569  58.823  1.00  0.00     0.160 HD
BRANCH  20  22
HETATM   22  C14 UNL     1      21.509  39.249  56.728  1.00  0.00     0.154 C
BRANCH  22  23
HETATM   23  C15 UNL     1      21.122  40.625  56.294  1.00  0.00     0.229 A
HETATM   24  C16 UNL     1      20.270  40.642  55.027  1.00  0.00     0.267 A
HETATM   25  N6  UNL     1      19.782  41.110  56.357  1.00  0.00    -0.066 N
ATOM     26  H62 UNL     1      18.975  40.866  56.931  1.00  0.00     0.277 HD
ATOM     27  H61 UNL     1      19.370  41.985  56.682  1.00  0.00     0.277 HD
ENDBRANCH  22  23
ENDBRANCH  20  22
ENDBRANCH   7  20
BRANCH   6  28
HETATM   28  N4  UNL     1      22.485  36.465  58.611  1.00  0.00    -0.370 N
ATOM     29  H4  UNL     1      22.904  36.404  57.684  1.00  0.00     0.161 HD
BRANCH  28  30
HETATM   30  C10 UNL     1      23.326  36.435  59.790  1.00  0.00     0.083 A
HETATM   31  C11 UNL     1      24.645  35.739  59.650  1.00  0.00     0.027 A
HETATM   32  C12 UNL     1      24.616  37.240  59.708  1.00  0.00     0.027 A
ENDBRANCH  28  30
ENDBRANCH   6  28
TORSDOF 10
ENDMDL