MODEL 3
REMARK VINA RESULT: -6.820174359      4.040      7.156
REMARK  11 active torsions:
REMARK  status: ('A' for Active; 'I' for Inactive)
REMARK    1  A    between atoms: C2_2  and  C3_3
REMARK    2  A    between atoms: C3_3  and  N1_4
REMARK    3  A    between atoms: N1_4  and  C4_6
REMARK    4  A    between atoms: C5_9  and  N3_10
REMARK    5  A    between atoms: N3_10  and  C7_12
REMARK    6  A    between atoms: C7_12  and  C8_13
REMARK    7  A    between atoms: C8_13  and  C9_14
REMARK    8  A    between atoms: C9_14  and  N4_15
REMARK    9  A    between atoms: C9_14  and  C10_19
REMARK   10  A    between atoms: C10_19  and  O1_20
REMARK   11  A    between atoms: C12_24  and  N6_25
ROOT
HETATM    1  C4  UNL     1      16.808  36.389  59.396  1.00  0.00     0.681 A
HETATM    2  N2  UNL     1      16.576  35.693  58.270  1.00  0.00    -0.175 N
ATOM      3  H2  UNL     1      15.640  35.319  58.116  1.00  0.00     0.186 HD
HETATM    4  C5  UNL     1      17.511  35.465  57.342  1.00  0.00     0.147 A
HETATM    5  C11 UNL     1      18.770  35.963  57.540  1.00  0.00     0.135 A
HETATM    6  N5  UNL     1      19.762  35.731  56.576  1.00  0.00    -0.094 NA
HETATM    7  C12 UNL     1      19.067  36.699  58.699  1.00  0.00     0.147 A
HETATM    8  N7  UNL     1      18.061  36.873  59.571  1.00  0.00    -0.175 N
ATOM      9  H7  UNL     1      18.252  37.403  60.421  1.00  0.00     0.186 HD
ENDROOT
BRANCH   4  10
HETATM   10  N3  UNL     1      17.131  34.679  56.178  1.00  0.00    -0.369 N
HETATM   11  C6  UNL     1      17.479  33.284  56.183  1.00  0.00     0.151 C
BRANCH  10  12
HETATM   12  C7  UNL     1      16.474  35.396  55.149  1.00  0.00     0.126 C
BRANCH  12  13
HETATM   13  C8  UNL     1      16.902  35.242  53.747  1.00  0.00     0.055 C
BRANCH  13  14
HETATM   14  C9  UNL     1      17.950  36.149  53.215  1.00  0.00     0.208 C
BRANCH  14  15
HETATM   15  N4  UNL     1      19.255  35.520  53.500  1.00  0.00    -0.073 N
ATOM     16  H43 UNL     1      19.537  34.845  52.789  1.00  0.00     0.274 HD
ATOM     17  H42 UNL     1      20.040  36.162  53.390  1.00  0.00     0.274 HD
ATOM     18  H41 UNL     1      19.196  35.115  54.434  1.00  0.00     0.274 HD
ENDBRANCH  14  15
BRANCH  14  19
HETATM   19  C10 UNL     1      17.963  37.480  53.918  1.00  0.00     0.197 C
BRANCH  19  20
HETATM   20  O1  UNL     1      16.998  38.330  53.342  1.00  0.00    -0.399 OA
ATOM     21  H1  UNL     1      16.215  38.338  53.881  1.00  0.00     0.209 HD
ENDBRANCH  19  20
ENDBRANCH  14  19
ENDBRANCH  13  14
ENDBRANCH  12  13
ENDBRANCH  10  12
ENDBRANCH   4  10
BRANCH   1  22
HETATM   22  N1  UNL     1      15.879  36.593  60.301  1.00  0.00    -0.223 N
ATOM     23  H1  UNL     1      14.890  36.698  60.070  1.00  0.00     0.178 HD
BRANCH  22  24
HETATM   24  C3  UNL     1      16.390  36.656  61.679  1.00  0.00     0.164 C
BRANCH  24  25
HETATM   25  C2  UNL     1      15.661  37.620  62.504  1.00  0.00    -0.017 C
HETATM   26  C1  UNL     1      14.752  38.430  61.987  1.00  0.00     0.008 C
ENDBRANCH  24  25
ENDBRANCH  22  24
ENDBRANCH   1  22
BRANCH   7  27
HETATM   27  N6  UNL     1      20.369  37.229  58.911  1.00  0.00    -0.365 N
HETATM   28  C13 UNL     1      21.297  36.435  59.655  1.00  0.00     0.124 C
HETATM   29  C14 UNL     1      22.224  37.261  60.515  1.00  0.00     0.020 C
HETATM   30  C15 UNL     1      22.799  38.438  59.792  1.00  0.00     0.003 C
HETATM   31  C16 UNL     1      22.182  38.720  58.469  1.00  0.00     0.020 C
HETATM   32  C17 UNL     1      20.704  38.531  58.389  1.00  0.00     0.124 C
ENDBRANCH   7  27
TORSDOF 11
ENDMDL