MODEL 4
REMARK VINA RESULT: -7.425784905      1.746      2.081
REMARK  12 active torsions:
REMARK  status: ('A' for Active; 'I' for Inactive)
REMARK    1  A    between atoms: N1_1  and  C1_4
REMARK    2  A    between atoms: C2_7  and  N3_8
REMARK    3  A    between atoms: N3_8  and  C3_10
REMARK    4  A    between atoms: C3_10  and  C4_11
REMARK    5  A    between atoms: C4_11  and  C5_12
REMARK    6  A    between atoms: C5_12  and  C6_13
REMARK    7  A    between atoms: C6_13  and  C7_14
REMARK    8  A    between atoms: C7_14  and  N4_15
REMARK    9  A    between atoms: N7_24  and  C13_25
REMARK   10  A    between atoms: C13_25  and  C14_26
REMARK   11  A    between atoms: C14_26  and  C15_27
REMARK   12  A    between atoms: C15_27  and  O1_28
ROOT
HETATM    1  C1  UNL     1      16.055  39.411  59.181  1.00  0.00     0.679 A
HETATM    2  N2  UNL     1      15.253  38.695  59.963  1.00  0.00    -0.175 N
ATOM      3  H2  UNL     1      14.405  39.145  60.308  1.00  0.00     0.186 HD
HETATM    4  C2  UNL     1      15.477  37.410  60.339  1.00  0.00     0.148 A
HETATM    5  C12 UNL     1      16.640  36.850  59.842  1.00  0.00     0.136 A
HETATM    6  N5  UNL     1      17.201  35.641  59.980  1.00  0.00    -0.277 N
ATOM      7  H5  UNL     1      16.824  34.865  60.524  1.00  0.00     0.184 HD
HETATM    8  N6  UNL     1      18.346  35.627  59.277  1.00  0.00    -0.018 NA
HETATM    9  N7  UNL     1      18.507  36.819  58.700  1.00  0.00    -0.258 N
HETATM   10  C16 UNL     1      17.467  37.595  59.032  1.00  0.00     0.168 A
HETATM   11  N8  UNL     1      17.184  38.873  58.697  1.00  0.00    -0.173 N
ATOM     12  H8  UNL     1      17.809  39.410  58.096  1.00  0.00     0.186 HD
ENDROOT
BRANCH   4  13
HETATM   13  N3  UNL     1      14.686  36.733  61.098  1.00  0.00    -0.374 N
ATOM     14  H3  UNL     1      14.015  36.073  60.706  1.00  0.00     0.161 HD
BRANCH  13  15
HETATM   15  C3  UNL     1      14.785  36.943  62.532  1.00  0.00     0.121 C
BRANCH  15  16
HETATM   16  C4  UNL     1      13.466  37.218  63.166  1.00  0.00     0.020 C
BRANCH  16  17
HETATM   17  C5  UNL     1      12.398  37.217  62.112  1.00  0.00     0.003 C
BRANCH  17  18
HETATM   18  C6  UNL     1      11.183  36.506  62.578  1.00  0.00     0.030 C
BRANCH  18  19
HETATM   19  C7  UNL     1       9.991  37.410  62.739  1.00  0.00     0.272 C
BRANCH  19  20
HETATM   20  N4  UNL     1       9.588  37.916  61.449  1.00  0.00     0.088 N
HETATM   21  C8  UNL     1       8.179  37.584  61.219  1.00  0.00     0.272 C
HETATM   22  C9  UNL     1       7.465  38.601  62.085  1.00  0.00     0.032 C
HETATM   23  C10 UNL     1       8.455  39.747  62.210  1.00  0.00     0.032 C
HETATM   24  C11 UNL     1       9.626  39.344  61.325  1.00  0.00     0.272 C
ENDBRANCH  19  20
ENDBRANCH  18  19
ENDBRANCH  17  18
ENDBRANCH  16  17
ENDBRANCH  15  16
ENDBRANCH  13  15
ENDBRANCH   4  13
BRANCH   1  25
HETATM   25  N1  UNL     1      15.742  40.648  58.880  1.00  0.00    -0.234 N
ATOM     26  H12 UNL     1      15.295  41.242  59.578  1.00  0.00     0.174 HD
ATOM     27  H11 UNL     1      15.945  41.013  57.950  1.00  0.00     0.174 HD
ENDBRANCH   1  25
BRANCH   9  28
HETATM   28  C13 UNL     1      19.622  37.221  57.847  1.00  0.00     0.150 C
BRANCH  28  29
HETATM   29  C14 UNL     1      20.684  37.852  58.727  1.00  0.00     0.047 C
BRANCH  29  30
HETATM   30  C15 UNL     1      21.730  36.785  59.058  1.00  0.00     0.165 C
BRANCH  30  31
HETATM   31  O1  UNL     1      21.331  36.015  60.146  1.00  0.00    -0.401 OA
ATOM     32  H1  UNL     1      21.682  35.133  60.087  1.00  0.00     0.209 HD
ENDBRANCH  30  31
ENDBRANCH  29  30
ENDBRANCH  28  29
ENDBRANCH   9  28
TORSDOF 12
ENDMDL