MODEL 5
REMARK VINA RESULT: -7.393729437      1.638      2.935
REMARK  11 active torsions:
REMARK  status: ('A' for Active; 'I' for Inactive)
REMARK    1  A    between atoms: C2_2  and  O1_3
REMARK    2  A    between atoms: O1_3  and  C3_4
REMARK    3  A    between atoms: C3_4  and  C4_5
REMARK    4  A    between atoms: C4_5  and  C5_6
REMARK    5  A    between atoms: C5_6  and  N1_7
REMARK    6  A    between atoms: N1_7  and  C6_9
REMARK    7  A    between atoms: C7_12  and  O2_13
REMARK    8  A    between atoms: O2_13  and  C8_14
REMARK    9  A    between atoms: C8_14  and  C9_15
REMARK   10  A    between atoms: C13_19  and  O3_20
REMARK   11  A    between atoms: C15_27  and  N5_28
ROOT
HETATM    1  C6  UNL     1      14.833  39.295  60.544  1.00  0.00     0.695 A
HETATM    2  N2  UNL     1      15.696  38.459  59.896  1.00  0.00    -0.154 N
ATOM      3  H2  UNL     1      15.698  37.471  60.144  1.00  0.00     0.188 HD
HETATM    4  C7  UNL     1      16.558  38.897  58.928  1.00  0.00     0.252 A
HETATM    5  N4  UNL     1      16.498  40.227  58.651  1.00  0.00    -0.154 N
ATOM      6  H4  UNL     1      17.116  40.613  57.937  1.00  0.00     0.188 HD
HETATM    7  C15 UNL     1      15.654  41.039  59.286  1.00  0.00     0.693 A
HETATM    8  N6  UNL     1      14.807  40.600  60.239  1.00  0.00    -0.022 N
ATOM      9  H6  UNL     1      14.168  41.239  60.712  1.00  0.00     0.203 HD
ENDROOT
BRANCH   4  10
HETATM   10  O2  UNL     1      17.348  38.018  58.364  1.00  0.00    -0.319 OA
BRANCH  10  11
HETATM   11  C8  UNL     1      18.313  37.144  58.293  1.00  0.00     0.217 C
BRANCH  11  12
HETATM   12  C9  UNL     1      18.046  35.977  57.354  1.00  0.00     0.147 C
HETATM   13  C10 UNL     1      17.920  34.718  58.165  1.00  0.00     0.049 C
HETATM   14  C11 UNL     1      19.138  35.926  56.312  1.00  0.00     0.045 C
HETATM   15  C12 UNL     1      18.497  36.781  55.209  1.00  0.00     0.064 C
HETATM   16  C13 UNL     1      17.101  36.243  55.230  1.00  0.00     0.321 C
HETATM   17  N3  UNL     1      16.786  36.201  56.639  1.00  0.00    -0.038 N
ATOM     18  H32 UNL     1      16.067  35.515  56.869  1.00  0.00     0.281 HD
ATOM     19  H31 UNL     1      16.284  37.028  56.962  1.00  0.00     0.281 HD
BRANCH  16  20
HETATM   20  O3  UNL     1      16.181  37.098  54.629  1.00  0.00    -0.364 OA
HETATM   21  C14 UNL     1      16.438  37.275  53.268  1.00  0.00     0.204 C
ENDBRANCH  16  20
ENDBRANCH  11  12
ENDBRANCH  10  11
ENDBRANCH   4  10
BRANCH   1  22
HETATM   22  N1  UNL     1      14.081  38.774  61.423  1.00  0.00    -0.225 N
ATOM     23  H1  UNL     1      13.833  39.339  62.236  1.00  0.00     0.177 HD
BRANCH  22  24
HETATM   24  C5  UNL     1      13.560  37.450  61.344  1.00  0.00     0.140 C
BRANCH  24  25
HETATM   25  C4  UNL     1      12.570  37.301  62.506  1.00  0.00     0.046 C
BRANCH  25  26
HETATM   26  C3  UNL     1      11.202  37.637  62.023  1.00  0.00     0.169 C
BRANCH  26  27
HETATM   27  O1  UNL     1      11.141  38.926  61.581  1.00  0.00    -0.391 OA
BRANCH  27  28
HETATM   28  C2  UNL     1       9.887  39.458  61.485  1.00  0.00     0.163 C
HETATM   29  C1  UNL     1       8.863  38.656  62.273  1.00  0.00     0.033 C
ENDBRANCH  27  28
ENDBRANCH  26  27
ENDBRANCH  25  26
ENDBRANCH  24  25
ENDBRANCH  22  24
ENDBRANCH   1  22
BRANCH   7  30
HETATM   30  N5  UNL     1      15.597  42.317  59.020  1.00  0.00    -0.234 N
ATOM     31  H52 UNL     1      14.685  42.756  59.147  1.00  0.00     0.174 HD
ATOM     32  H51 UNL     1      16.416  42.837  58.705  1.00  0.00     0.174 HD
ENDBRANCH   7  30
TORSDOF 11
ENDMDL