MODEL 5
REMARK VINA RESULT: -7.309663453      1.221      1.424
REMARK  12 active torsions:
REMARK  status: ('A' for Active; 'I' for Inactive)
REMARK    1  A    between atoms: C2_2  and  C3_3
REMARK    2  A    between atoms: C3_3  and  C4_4
REMARK    3  A    between atoms: C4_4  and  C5_5
REMARK    4  A    between atoms: C4_4  and  C6_8
REMARK    5  A    between atoms: C5_5  and  O1_6
REMARK    6  A    between atoms: C6_8  and  O2_9
REMARK    7  A    between atoms: O2_9  and  C7_10
REMARK    8  A    between atoms: C7_10  and  O3_11
REMARK    9  A    between atoms: C7_10  and  O4_13
REMARK   10  A    between atoms: O4_13  and  C8_14
REMARK   11  A    between atoms: C15_21  and  O5_22
REMARK   12  A    between atoms: C16_24  and  O6_26
ROOT
HETATM    1  C8  UNL     1      16.382  38.420  59.722  1.00  0.00     0.265 C
HETATM    2  C9  UNL     1      16.839  37.039  60.050  1.00  0.00     0.061 C
HETATM    3  C10 UNL     1      16.974  36.135  58.858  1.00  0.00     0.015 C
HETATM    4  C11 UNL     1      17.542  36.818  57.644  1.00  0.00     0.051 C
HETATM    5  C12 UNL     1      17.698  38.302  57.819  1.00  0.00     0.131 C
HETATM    6  C13 UNL     1      18.939  38.732  58.507  1.00  0.00     0.035 C
HETATM    7  C14 UNL     1      20.114  37.812  58.267  1.00  0.00     0.037 C
HETATM    8  C15 UNL     1      19.961  37.040  56.974  1.00  0.00     0.152 C
HETATM    9  C16 UNL     1      18.765  36.121  57.154  1.00  0.00     0.086 C
HETATM   10  C17 UNL     1      18.553  35.463  55.783  1.00  0.00     0.049 C
HETATM   11  O7  UNL     1      16.557  38.802  58.422  1.00  0.00    -0.355 OA
ENDROOT
BRANCH   1  12
HETATM   12  O4  UNL     1      14.997  38.471  59.988  1.00  0.00    -0.308 OA
BRANCH  12  13
HETATM   13  C7  UNL     1      14.663  37.938  61.204  1.00  0.00     0.412 C
BRANCH  13  14
HETATM   14  O2  UNL     1      13.380  37.404  61.098  1.00  0.00    -0.339 OA
BRANCH  14  15
HETATM   15  C6  UNL     1      12.429  38.291  61.551  1.00  0.00     0.180 C
BRANCH  15  16
HETATM   16  C4  UNL     1      11.115  37.485  61.813  1.00  0.00     0.033 C
BRANCH  16  17
HETATM   17  C3  UNL     1      10.044  38.462  61.846  1.00  0.00     0.008 C
BRANCH  17  18
HETATM   18  C2  UNL     1       8.612  38.130  61.786  1.00  0.00    -0.004 C
HETATM   19  C1  UNL     1       7.779  38.565  62.953  1.00  0.00     0.005 C
ENDBRANCH  17  18
ENDBRANCH  16  17
BRANCH  16  20
HETATM   20  C5  UNL     1      11.435  36.556  62.894  1.00  0.00     0.170 C
BRANCH  20  21
HETATM   21  O1  UNL     1      10.667  35.459  63.118  1.00  0.00    -0.400 OA
ATOM     22  H1  UNL     1       9.727  35.539  63.223  1.00  0.00     0.209 HD
ENDBRANCH  20  21
ENDBRANCH  16  20
ENDBRANCH  15  16
ENDBRANCH  14  15
ENDBRANCH  13  14
BRANCH  13  23
HETATM   23  O3  UNL     1      14.565  39.005  62.120  1.00  0.00    -0.349 OA
ATOM     24  H3  UNL     1      14.599  39.799  61.600  1.00  0.00     0.215 HD
ENDBRANCH  13  23
ENDBRANCH  12  13
ENDBRANCH   1  12
BRANCH   9  25
HETATM   25  O6  UNL     1      19.193  35.087  57.994  1.00  0.00    -0.387 OA
ATOM     26  H6  UNL     1      19.385  34.279  57.533  1.00  0.00     0.210 HD
ENDBRANCH   9  25
BRANCH   8  27
HETATM   27  O5  UNL     1      21.081  36.221  56.837  1.00  0.00    -0.393 OA
ATOM     28  H5  UNL     1      20.957  35.692  56.058  1.00  0.00     0.210 HD
ENDBRANCH   8  27
TORSDOF 12
ENDMDL