MODEL 1
REMARK VINA RESULT: -6.833753080      0.000      0.000
REMARK  11 active torsions:
REMARK  status: ('A' for Active; 'I' for Inactive)
REMARK    1  A    between atoms: C2_2  and  N1_3
REMARK    2  A    between atoms: N1_3  and  C3_4
REMARK    3  A    between atoms: N1_3  and  C5_6
REMARK    4  A    between atoms: C5_6  and  C6_7
REMARK    5  A    between atoms: C6_7  and  N2_8
REMARK    6  A    between atoms: N2_8  and  C7_9
REMARK    7  A    between atoms: N2_8  and  C9_13
REMARK    8  A    between atoms: C7_9  and  C8_10
REMARK    9  A    between atoms: C8_10  and  O1_11
REMARK   10  A    between atoms: C9_13  and  C10_14
REMARK   11  A    between atoms: C13_19  and  N4_20
ROOT
HETATM    1  C10 UNL     1      15.932  39.554  59.538  1.00  0.00     0.030 A
HETATM    2  C11 UNL     1      16.305  40.864  59.201  1.00  0.00     0.021 A
HETATM    3  C12 UNL     1      15.512  42.021  59.622  1.00  0.00     0.069 C
HETATM    4  N3  UNL     1      17.365  41.063  58.394  1.00  0.00    -0.344 N
ATOM      5  H3  UNL     1      17.632  42.019  58.163  1.00  0.00     0.167 HD
HETATM    6  C13 UNL     1      18.083  40.053  57.883  1.00  0.00     0.128 A
HETATM    7  C14 UNL     1      17.723  38.754  58.183  1.00  0.00     0.106 A
HETATM    8  N5  UNL     1      18.143  37.576  57.772  1.00  0.00    -0.329 N
ATOM      9  H5  UNL     1      18.937  37.451  57.144  1.00  0.00     0.168 HD
HETATM   10  C15 UNL     1      17.419  36.549  58.266  1.00  0.00     0.189 A
HETATM   11  C16 UNL     1      17.568  35.139  57.974  1.00  0.00     0.137 C
HETATM   12  N6  UNL     1      17.683  34.001  57.677  1.00  0.00    -0.188 NA
HETATM   13  N7  UNL     1      16.488  37.146  59.044  1.00  0.00    -0.331 N
ATOM     14  H7  UNL     1      15.772  36.650  59.575  1.00  0.00     0.168 HD
HETATM   15  C17 UNL     1      16.633  38.483  59.022  1.00  0.00     0.078 A
ENDROOT
BRANCH   6  16
HETATM   16  N4  UNL     1      19.124  40.258  57.123  1.00  0.00    -0.384 N
ATOM     17  H42 UNL     1      19.435  39.511  56.502  1.00  0.00     0.157 HD
ATOM     18  H41 UNL     1      19.643  41.136  57.141  1.00  0.00     0.157 HD
ENDBRANCH   6  16
BRANCH   1  19
HETATM   19  C9  UNL     1      14.712  39.383  60.300  1.00  0.00     0.101 C
BRANCH  19  20
HETATM   20  N2  UNL     1      14.359  38.336  61.046  1.00  0.00    -0.385 N
BRANCH  20  21
HETATM   21  C6  UNL     1      13.155  37.659  61.188  1.00  0.00     0.152 C
BRANCH  21  22
HETATM   22  C5  UNL     1      12.040  38.691  61.444  1.00  0.00     0.292 C
BRANCH  22  23
HETATM   23  N1  UNL     1      10.683  38.241  61.387  1.00  0.00     0.089 N
BRANCH  23  24
HETATM   24  C2  UNL     1       9.919  39.544  61.463  1.00  0.00     0.268 C
HETATM   25  C1  UNL     1       8.542  39.211  61.980  1.00  0.00     0.037 C
ENDBRANCH  23  24
BRANCH  23  26
HETATM   26  C3  UNL     1      10.335  37.549  62.648  1.00  0.00     0.268 C
HETATM   27  C4  UNL     1      10.504  36.077  62.588  1.00  0.00     0.037 C
ENDBRANCH  23  26
ENDBRANCH  22  23
ENDBRANCH  21  22
ENDBRANCH  20  21
BRANCH  20  28
HETATM   28  C7  UNL     1      15.108  38.243  62.311  1.00  0.00     0.148 C
BRANCH  28  29
HETATM   29  C8  UNL     1      15.778  36.995  62.626  1.00  0.00     0.183 C
BRANCH  29  30
HETATM   30  O1  UNL     1      16.940  36.761  61.898  1.00  0.00    -0.399 OA
ATOM     31  H1  UNL     1      16.803  36.615  60.970  1.00  0.00     0.209 HD
ENDBRANCH  29  30
ENDBRANCH  28  29
ENDBRANCH  20  28
ENDBRANCH  19  20
ENDBRANCH   1  19
TORSDOF 11
ENDMDL