MODEL 5
REMARK VINA RESULT: -7.162815264      1.948      2.857
REMARK  14 active torsions:
REMARK  status: ('A' for Active; 'I' for Inactive)
REMARK    1  A    between atoms: C2_2  and  C3_3
REMARK    2  A    between atoms: C3_3  and  C4_4
REMARK    3  A    between atoms: C4_4  and  C5_5
REMARK    4  A    between atoms: C5_5  and  C6_6
REMARK    5  A    between atoms: C7_7  and  C8_8
REMARK    6  A    between atoms: C11_15  and  N3_16
REMARK    7  A    between atoms: N4_19  and  C12_20
REMARK    8  A    between atoms: C12_20  and  C13_21
REMARK    9  A    between atoms: C13_21  and  O1_22
REMARK   10  A    between atoms: N5_26  and  C15_27
REMARK   11  A    between atoms: C15_27  and  C16_28
REMARK   12  A    between atoms: C16_28  and  C17_29
REMARK   13  A    between atoms: C17_29  and  C18_30
REMARK   14  A    between atoms: C18_30  and  N6_31
ROOT
HETATM    1  C8  UNL     1      15.509  37.732  60.204  1.00  0.00     0.132 A
HETATM    2  N1  UNL     1      16.409  36.752  60.002  1.00  0.00    -0.329 N
ATOM      3  H1  UNL     1      16.250  35.852  60.457  1.00  0.00     0.168 HD
HETATM    4  C9  UNL     1      17.504  36.890  59.235  1.00  0.00     0.158 A
HETATM    5  C10 UNL     1      17.733  38.121  58.605  1.00  0.00     0.158 A
HETATM    6  N2  UNL     1      16.847  39.113  58.793  1.00  0.00    -0.323 N
ATOM      7  H2  UNL     1      17.002  40.014  58.340  1.00  0.00     0.169 HD
HETATM    8  C11 UNL     1      15.761  38.943  59.566  1.00  0.00     0.136 A
HETATM    9  N4  UNL     1      18.887  38.016  57.895  1.00  0.00    -0.280 N
HETATM   10  C14 UNL     1      19.333  36.751  58.098  1.00  0.00     0.332 A
HETATM   11  O2  UNL     1      20.381  36.294  57.595  1.00  0.00    -0.246 OA
HETATM   12  N5  UNL     1      18.518  36.079  58.891  1.00  0.00    -0.282 N
ENDROOT
BRANCH  12  13
HETATM   13  C15 UNL     1      18.663  34.681  59.343  1.00  0.00     0.135 C
BRANCH  13  14
HETATM   14  C16 UNL     1      17.671  33.797  58.674  1.00  0.00     0.022 C
BRANCH  14  15
HETATM   15  C17 UNL     1      17.717  33.974  57.192  1.00  0.00     0.029 C
BRANCH  15  16
HETATM   16  C18 UNL     1      16.369  34.357  56.647  1.00  0.00     0.229 C
BRANCH  16  17
HETATM   17  N6  UNL     1      16.399  35.712  56.084  1.00  0.00    -0.079 N
ATOM     18  H63 UNL     1      16.058  36.405  56.750  1.00  0.00     0.274 HD
ATOM     19  H62 UNL     1      17.354  36.057  55.980  1.00  0.00     0.274 HD
ATOM     20  H61 UNL     1      15.887  35.751  55.203  1.00  0.00     0.274 HD
ENDBRANCH  16  17
ENDBRANCH  15  16
ENDBRANCH  14  15
ENDBRANCH  13  14
ENDBRANCH  12  13
BRANCH   9  21
HETATM   21  C12 UNL     1      19.511  39.047  57.086  1.00  0.00     0.161 C
BRANCH  21  22
HETATM   22  C13 UNL     1      19.494  38.700  55.619  1.00  0.00     0.184 C
BRANCH  22  23
HETATM   23  O1  UNL     1      18.237  38.252  55.207  1.00  0.00    -0.399 OA
ATOM     24  H1  UNL     1      18.282  37.389  54.814  1.00  0.00     0.209 HD
ENDBRANCH  22  23
ENDBRANCH  21  22
ENDBRANCH   9  21
BRANCH   1  25
HETATM   25  C7  UNL     1      14.340  37.557  61.033  1.00  0.00    -0.045 C
HETATM   26  C6  UNL     1      13.357  37.393  61.716  1.00  0.00    -0.100 C
BRANCH  26  27
HETATM   27  C5  UNL     1      12.150  37.168  62.543  1.00  0.00     0.094 C
BRANCH  27  28
HETATM   28  C4  UNL     1      11.017  37.921  61.881  1.00  0.00     0.012 C
BRANCH  28  29
HETATM   29  C3  UNL     1       9.687  37.514  62.478  1.00  0.00     0.000 C
BRANCH  29  30
HETATM   30  C2  UNL     1       8.626  38.556  62.207  1.00  0.00    -0.005 C
HETATM   31  C1  UNL     1       9.195  39.833  61.667  1.00  0.00     0.005 C
ENDBRANCH  29  30
ENDBRANCH  28  29
ENDBRANCH  27  28
ENDBRANCH  26  27
ENDBRANCH   1  25
BRANCH   8  32
HETATM   32  N3  UNL     1      14.906  39.885  59.755  1.00  0.00    -0.383 N
ATOM     33  H32 UNL     1      14.377  39.968  60.623  1.00  0.00     0.157 HD
ATOM     34  H31 UNL     1      14.779  40.548  58.991  1.00  0.00     0.157 HD
ENDBRANCH   8  32
TORSDOF 14
ENDMDL