MODEL 4
REMARK VINA RESULT: -8.062614922      1.406      2.008
REMARK  13 active torsions:
REMARK  status: ('A' for Active; 'I' for Inactive)
REMARK    1  A    between atoms: O1_1  and  C1_3
REMARK    2  A    between atoms: C1_3  and  C2_4
REMARK    3  A    between atoms: C3_6  and  O3_7
REMARK    4  A    between atoms: O3_7  and  C4_8
REMARK    5  A    between atoms: C4_8  and  O4_9
REMARK    6  A    between atoms: O4_9  and  C5_10
REMARK    7  A    between atoms: C5_10  and  O5_11
REMARK    8  A    between atoms: O5_11  and  C6_12
REMARK    9  A    between atoms: C6_12  and  C7_13
REMARK   10  A    between atoms: C7_13  and  C8_14
REMARK   11  A    between atoms: C14_20  and  O6_21
REMARK   12  A    between atoms: C15_23  and  O7_24
REMARK   13  A    between atoms: C16_26  and  O8_27
ROOT
HETATM    1  C2  UNL     1      19.873  37.358  58.856  1.00  0.00     0.179 C
HETATM    2  O2  UNL     1      18.625  37.101  59.378  1.00  0.00    -0.348 OA
HETATM    3  C3  UNL     1      17.621  37.067  58.400  1.00  0.00     0.294 C
HETATM    4  C14 UNL     1      17.567  38.290  57.572  1.00  0.00     0.204 C
HETATM    5  C15 UNL     1      18.836  39.045  57.394  1.00  0.00     0.183 C
HETATM    6  C16 UNL     1      19.902  38.800  58.402  1.00  0.00     0.180 C
ENDROOT
BRANCH   3   7
HETATM    7  O3  UNL     1      16.428  36.812  59.074  1.00  0.00    -0.334 OA
BRANCH   7   8
HETATM    8  C4  UNL     1      16.408  37.361  60.376  1.00  0.00     0.343 C
BRANCH   8   9
HETATM    9  O4  UNL     1      15.376  37.824  60.889  1.00  0.00    -0.343 OA
BRANCH   9  10
HETATM   10  C5  UNL     1      14.221  38.137  61.238  1.00  0.00     0.340 C
BRANCH  10  11
HETATM   11  O5  UNL     1      13.212  37.110  61.150  1.00  0.00    -0.367 OA
BRANCH  11  12
HETATM   12  C6  UNL     1      12.438  37.290  62.297  1.00  0.00     0.171 C
BRANCH  12  13
HETATM   13  C7  UNL     1      11.005  36.891  62.079  1.00  0.00     0.031 C
BRANCH  13  14
HETATM   14  C8  UNL     1      10.026  38.001  62.258  1.00  0.00    -0.013 C
HETATM   15  C9  UNL     1      10.345  39.255  61.527  1.00  0.00     0.005 C
HETATM   16  C10 UNL     1       9.121  40.112  61.263  1.00  0.00     0.000 C
HETATM   17  C11 UNL     1       8.074  39.952  62.329  1.00  0.00     0.000 C
HETATM   18  C12 UNL     1       7.680  38.537  62.618  1.00  0.00     0.000 C
HETATM   19  C13 UNL     1       8.612  37.597  61.863  1.00  0.00     0.005 C
ENDBRANCH  13  14
ENDBRANCH  12  13
ENDBRANCH  11  12
ENDBRANCH  10  11
ENDBRANCH   9  10
ENDBRANCH   8   9
ENDBRANCH   7   8
ENDBRANCH   3   7
BRANCH   4  20
HETATM   20  O6  UNL     1      17.145  37.926  56.270  1.00  0.00    -0.388 OA
ATOM     21  H6  UNL     1      17.883  37.531  55.818  1.00  0.00     0.210 HD
ENDBRANCH   4  20
BRANCH   1  22
HETATM   22  C1  UNL     1      20.278  36.438  57.731  1.00  0.00     0.198 C
BRANCH  22  23
HETATM   23  O1  UNL     1      21.638  36.137  57.799  1.00  0.00    -0.398 OA
ATOM     24  H1  UNL     1      22.037  36.173  56.937  1.00  0.00     0.209 HD
ENDBRANCH  22  23
ENDBRANCH   1  22
BRANCH   5  25
HETATM   25  O7  UNL     1      18.549  40.432  57.427  1.00  0.00    -0.390 OA
ATOM     26  H7  UNL     1      18.543  40.763  56.537  1.00  0.00     0.210 HD
ENDBRANCH   5  25
BRANCH   6  27
HETATM   27  O8  UNL     1      21.142  39.087  57.780  1.00  0.00    -0.390 OA
ATOM     28  H8  UNL     1      21.772  38.405  57.983  1.00  0.00     0.210 HD
ENDBRANCH   6  27
TORSDOF 13
ENDMDL