MODEL 2
REMARK VINA RESULT: -7.924765875      1.559      2.701
REMARK  13 active torsions:
REMARK  status: ('A' for Active; 'I' for Inactive)
REMARK    1  A    between atoms: C2_2  and  O1_3
REMARK    2  A    between atoms: C2_2  and  C3_5
REMARK    3  A    between atoms: C5_8  and  C6_9
REMARK    4  A    between atoms: C6_9  and  C7_10
REMARK    5  A    between atoms: C7_10  and  C8_11
REMARK    6  A    between atoms: C8_11  and  C9_12
REMARK    7  A    between atoms: C9_12  and  C10_13
REMARK    8  A    between atoms: C10_13  and  C11_14
REMARK    9  A    between atoms: C11_14  and  C12_15
REMARK   10  A    between atoms: C12_15  and  C13_16
REMARK   11  A    between atoms: C15_19  and  O4_20
REMARK   12  A    between atoms: C16_22  and  O5_23
REMARK   13  A    between atoms: C17_25  and  O6_26
ROOT
HETATM    1  C10 UNL     1      16.419  38.393  59.623  1.00  0.00     0.000 C
ENDROOT
BRANCH   1   2
HETATM    2  C9  UNL     1      16.461  36.894  59.760  1.00  0.00     0.000 C
BRANCH   2   3
HETATM    3  C8  UNL     1      17.031  36.449  61.079  1.00  0.00     0.000 C
BRANCH   3   4
HETATM    4  C7  UNL     1      16.356  37.086  62.251  1.00  0.00     0.005 C
BRANCH   4   5
HETATM    5  C6  UNL     1      14.974  36.536  62.474  1.00  0.00     0.061 C
BRANCH   5   6
HETATM    6  C5  UNL     1      14.047  37.529  63.108  1.00  0.00     0.260 C
HETATM    7  O2  UNL     1      13.828  38.580  62.224  1.00  0.00    -0.359 OA
HETATM    8  C4  UNL     1      12.749  38.187  61.448  1.00  0.00     0.205 C
HETATM    9  C3  UNL     1      12.215  36.952  62.093  1.00  0.00     0.176 C
HETATM   10  O7  UNL     1      12.803  36.939  63.351  1.00  0.00    -0.351 OA
BRANCH   9  11
HETATM   11  C2  UNL     1      10.701  36.964  62.184  1.00  0.00     0.145 C
HETATM   12  C1  UNL     1      10.145  38.328  61.858  1.00  0.00     0.042 C
BRANCH  11  13
HETATM   13  O1  UNL     1      10.318  36.527  63.440  1.00  0.00    -0.393 OA
ATOM     14  H1  UNL     1      10.178  35.588  63.468  1.00  0.00     0.210 HD
ENDBRANCH  11  13
ENDBRANCH   9  11
ENDBRANCH   5   6
ENDBRANCH   4   5
ENDBRANCH   3   4
ENDBRANCH   2   3
ENDBRANCH   1   2
BRANCH   1  15
HETATM   15  C11 UNL     1      17.116  38.872  58.388  1.00  0.00     0.002 C
BRANCH  15  16
HETATM   16  C12 UNL     1      18.395  38.115  58.147  1.00  0.00     0.034 C
BRANCH  16  17
HETATM   17  C13 UNL     1      18.378  37.447  56.787  1.00  0.00     0.152 C
HETATM   18  O3  UNL     1      17.184  37.745  56.185  1.00  0.00    -0.381 OA
HETATM   19  C14 UNL     1      16.958  37.126  54.985  1.00  0.00     0.202 C
HETATM   20  C15 UNL     1      17.136  35.627  55.033  1.00  0.00     0.173 C
HETATM   21  C16 UNL     1      18.473  35.285  55.675  1.00  0.00     0.180 C
HETATM   22  C17 UNL     1      18.481  35.954  57.034  1.00  0.00     0.178 C
BRANCH  20  23
HETATM   23  O4  UNL     1      16.149  35.041  55.819  1.00  0.00    -0.391 OA
ATOM     24  H4  UNL     1      15.844  35.648  56.482  1.00  0.00     0.210 HD
ENDBRANCH  20  23
BRANCH  21  25
HETATM   25  O5  UNL     1      18.579  33.900  55.781  1.00  0.00    -0.390 OA
ATOM     26  H5  UNL     1      18.570  33.525  54.908  1.00  0.00     0.210 HD
ENDBRANCH  21  25
BRANCH  22  27
HETATM   27  O6  UNL     1      19.634  35.636  57.746  1.00  0.00    -0.390 OA
ATOM     28  H6  UNL     1      20.060  34.866  57.388  1.00  0.00     0.210 HD
ENDBRANCH  22  27
ENDBRANCH  16  17
ENDBRANCH  15  16
ENDBRANCH   1  15
TORSDOF 13
ENDMDL