MODEL 3
REMARK VINA RESULT: -7.660717759      1.556      3.937
REMARK  10 active torsions:
REMARK  status: ('A' for Active; 'I' for Inactive)
REMARK    1  A    between atoms: C2_2  and  C3_3
REMARK    2  A    between atoms: C3_3  and  C4_4
REMARK    3  A    between atoms: C4_4  and  C5_5
REMARK    4  A    between atoms: C5_5  and  C6_6
REMARK    5  A    between atoms: C6_6  and  O1_7
REMARK    6  A    between atoms: O1_7  and  C7_8
REMARK    7  A    between atoms: C7_8  and  C8_9
REMARK    8  A    between atoms: C8_9  and  N1_10
REMARK    9  A    between atoms: C9_11  and  N2_12
REMARK   10  A    between atoms: N2_12  and  C10_14
ROOT
HETATM    1  N1  UNL     1      15.430  39.662  60.030  1.00  0.00    -0.175 N
HETATM    2  C9  UNL     1      15.786  38.375  59.736  1.00  0.00     0.683 A
HETATM    3  N3  UNL     1      16.749  38.097  58.831  1.00  0.00    -0.175 N
ATOM      4  H3  UNL     1      16.981  37.122  58.644  1.00  0.00     0.186 HD
HETATM    5  C13 UNL     1      17.410  39.061  58.170  1.00  0.00     0.145 A
HETATM    6  N4  UNL     1      18.326  38.743  57.309  1.00  0.00    -0.383 N
ATOM      7  H41 UNL     1      18.829  39.475  56.808  1.00  0.00     0.157 HD
ATOM      8  H42 UNL     1      18.573  37.774  57.108  1.00  0.00     0.157 HD
HETATM    9  C14 UNL     1      17.078  40.367  58.440  1.00  0.00     0.125 A
HETATM   10  C15 UNL     1      16.088  40.636  59.372  1.00  0.00     0.126 A
HETATM   11  C16 UNL     1      15.996  41.991  59.415  1.00  0.00     0.161 A
HETATM   12  N5  UNL     1      15.117  42.756  60.228  1.00  0.00    -0.079 NA
HETATM   13  N6  UNL     1      16.901  42.492  58.539  1.00  0.00    -0.283 N
ATOM     14  H6  UNL     1      17.052  43.486  58.363  1.00  0.00     0.188 HD
HETATM   15  N7  UNL     1      17.556  41.524  57.949  1.00  0.00    -0.289 N
HETATM   16  C17 UNL     1      18.608  41.603  56.946  1.00  0.00     0.178 C
ENDROOT
BRANCH   1  17
HETATM   17  C8  UNL     1      14.400  39.903  61.002  1.00  0.00     0.174 C
BRANCH  17  18
HETATM   18  C7  UNL     1      13.147  39.090  60.720  1.00  0.00     0.188 C
BRANCH  18  19
HETATM   19  O1  UNL     1      12.671  38.439  61.818  1.00  0.00    -0.390 OA
BRANCH  19  20
HETATM   20  C6  UNL     1      11.351  38.089  61.794  1.00  0.00     0.167 C
BRANCH  20  21
HETATM   21  C5  UNL     1      10.593  39.255  61.135  1.00  0.00     0.026 C
BRANCH  21  22
HETATM   22  C4  UNL     1       9.299  39.510  61.827  1.00  0.00     0.002 C
BRANCH  22  23
HETATM   23  C3  UNL     1       8.763  38.240  62.403  1.00  0.00    -0.000 C
BRANCH  23  24
HETATM   24  C2  UNL     1       7.537  38.427  63.229  1.00  0.00    -0.005 C
HETATM   25  C1  UNL     1       6.967  39.804  62.891  1.00  0.00     0.005 C
ENDBRANCH  23  24
ENDBRANCH  22  23
ENDBRANCH  21  22
ENDBRANCH  20  21
ENDBRANCH  19  20
ENDBRANCH  18  19
ENDBRANCH  17  18
ENDBRANCH   1  17
BRANCH   2  26
HETATM   26  N2  UNL     1      15.152  37.448  60.371  1.00  0.00    -0.221 N
ATOM     27  H2  UNL     1      14.156  37.287  60.216  1.00  0.00     0.178 HD
BRANCH  26  28
HETATM   28  C10 UNL     1      15.905  36.645  61.315  1.00  0.00     0.099 A
HETATM   29  C11 UNL     1      15.229  36.283  62.616  1.00  0.00     0.028 A
HETATM   30  C12 UNL     1      16.383  37.260  62.586  1.00  0.00     0.028 A
ENDBRANCH  26  28
ENDBRANCH   2  26
TORSDOF 10
ENDMDL