MODEL 3
REMARK VINA RESULT: -6.645140552      1.342      2.091
REMARK  17 active torsions:
REMARK  status: ('A' for Active; 'I' for Inactive)
REMARK    1  A    between atoms: C2_2  and  C3_3
REMARK    2  A    between atoms: C3_3  and  N1_4
REMARK    3  A    between atoms: N1_4  and  C4_5
REMARK    4  A    between atoms: N1_4  and  C8_9
REMARK    5  A    between atoms: C4_5  and  C5_6
REMARK    6  A    between atoms: C5_6  and  C6_7
REMARK    7  A    between atoms: C8_9  and  C9_10
REMARK    8  A    between atoms: C8_9  and  C11_12
REMARK    9  A    between atoms: C11_12  and  C12_13
REMARK   10  A    between atoms: C12_13  and  S1_14
REMARK   11  A    between atoms: S1_14  and  S2_15
REMARK   12  A    between atoms: S2_15  and  C13_16
REMARK   13  A    between atoms: C14_18  and  C15_19
REMARK   14  A    between atoms: C15_19  and  O2_20
REMARK   15  A    between atoms: C16_22  and  O3_23
REMARK   16  A    between atoms: C17_25  and  O4_26
REMARK   17  A    between atoms: C18_28  and  O5_29
ROOT
HETATM    1  C13 UNL     1      12.771  37.944  61.315  1.00  0.00     0.225 C
HETATM    2  O1  UNL     1      11.886  38.935  61.001  1.00  0.00    -0.362 OA
HETATM    3  C14 UNL     1      10.725  38.954  61.730  1.00  0.00     0.178 C
HETATM    4  C16 UNL     1      10.089  37.559  61.672  1.00  0.00     0.180 C
HETATM    5  C17 UNL     1      11.034  36.494  62.183  1.00  0.00     0.181 C
HETATM    6  C18 UNL     1      12.335  37.224  62.559  1.00  0.00     0.189 C
ENDROOT
BRANCH   1   7
HETATM    7  S2  UNL     1      14.481  38.537  61.357  1.00  0.00    -0.063 SA
BRANCH   7   8
HETATM    8  S1  UNL     1      15.633  37.169  60.169  1.00  0.00    -0.095 SA
BRANCH   8   9
HETATM    9  C12 UNL     1      17.144  36.713  61.145  1.00  0.00     0.088 C
BRANCH   9  10
HETATM   10  C11 UNL     1      18.247  36.387  60.215  1.00  0.00     0.047 C
BRANCH  10  11
HETATM   11  C8  UNL     1      17.944  35.834  58.874  1.00  0.00     0.223 C
BRANCH  11  12
HETATM   12  N1  UNL     1      18.353  36.869  57.834  1.00  0.00     0.096 N
BRANCH  12  13
HETATM   13  C3  UNL     1      19.647  37.307  58.239  1.00  0.00     0.299 C
BRANCH  13  14
HETATM   14  C2  UNL     1      19.923  38.719  57.953  1.00  0.00    -0.007 C
HETATM   15  C1  UNL     1      19.032  39.638  57.697  1.00  0.00     0.008 C
ENDBRANCH  13  14
ENDBRANCH  12  13
BRANCH  12  16
HETATM   16  C4  UNL     1      18.385  36.207  56.555  1.00  0.00     0.273 C
BRANCH  16  17
HETATM   17  C5  UNL     1      17.064  36.437  55.835  1.00  0.00     0.030 C
BRANCH  17  18
HETATM   18  C6  UNL     1      16.664  35.140  55.127  1.00  0.00    -0.003 C
HETATM   19  C7  UNL     1      15.930  34.260  56.097  1.00  0.00     0.005 C
ENDBRANCH  17  18
ENDBRANCH  16  17
ENDBRANCH  12  16
ENDBRANCH  11  12
BRANCH  11  20
HETATM   20  C9  UNL     1      18.799  34.628  58.536  1.00  0.00     0.031 C
HETATM   21  C10 UNL     1      18.341  33.305  59.022  1.00  0.00     0.007 C
ENDBRANCH  11  20
ENDBRANCH  10  11
ENDBRANCH   9  10
ENDBRANCH   8   9
ENDBRANCH   7   8
ENDBRANCH   1   7
BRANCH   6  22
HETATM   22  O5  UNL     1      13.293  36.275  62.967  1.00  0.00    -0.389 OA
ATOM     23  H5  UNL     1      13.562  36.419  63.867  1.00  0.00     0.210 HD
ENDBRANCH   6  22
BRANCH   3  24
HETATM   24  C15 UNL     1       9.746  39.887  61.007  1.00  0.00     0.198 C
BRANCH  24  25
HETATM   25  O2  UNL     1       8.648  40.192  61.796  1.00  0.00    -0.398 OA
ATOM     26  H2  UNL     1       8.702  41.073  62.149  1.00  0.00     0.209 HD
ENDBRANCH  24  25
ENDBRANCH   3  24
BRANCH   5  27
HETATM   27  O4  UNL     1      10.514  35.763  63.220  1.00  0.00    -0.390 OA
ATOM     28  H4  UNL     1      11.112  35.102  63.548  1.00  0.00     0.210 HD
ENDBRANCH   5  27
BRANCH   4  29
HETATM   29  O3  UNL     1       8.901  37.486  62.356  1.00  0.00    -0.390 OA
ATOM     30  H3  UNL     1       8.339  38.237  62.202  1.00  0.00     0.210 HD
ENDBRANCH   4  29
TORSDOF 17
ENDMDL