MODEL 2
REMARK VINA RESULT: -8.218339043      1.327      2.618
REMARK  17 active torsions:
REMARK  status: ('A' for Active; 'I' for Inactive)
REMARK    1  A    between atoms: C2_2  and  O1_3
REMARK    2  A    between atoms: C2_2  and  C11_19
REMARK    3  A    between atoms: O1_3  and  C3_4
REMARK    4  A    between atoms: C4_5  and  C5_6
REMARK    5  A    between atoms: C5_6  and  O2_7
REMARK    6  A    between atoms: C6_10  and  C7_11
REMARK    7  A    between atoms: C7_11  and  O4_12
REMARK    8  A    between atoms: C10_16  and  O5_17
REMARK    9  A    between atoms: C11_19  and  O6_20
REMARK   10  A    between atoms: C11_19  and  C12_22
REMARK   11  A    between atoms: C12_22  and  C13_23
REMARK   12  A    between atoms: C12_22  and  C15_25
REMARK   13  A    between atoms: C15_25  and  O7_26
REMARK   14  A    between atoms: C15_25  and  C16_28
REMARK   15  A    between atoms: C16_28  and  C18_30
REMARK   16  A    between atoms: C18_30  and  C19_31
REMARK   17  A    between atoms: C19_31  and  C20_32
ROOT
HETATM    1  C1  UNL     1      16.444  37.104  61.638  1.00  0.00     0.049 C
HETATM    2  C2  UNL     1      15.651  37.347  60.624  1.00  0.00     0.067 C
ENDROOT
BRANCH   2   3
HETATM    3  O1  UNL     1      16.030  36.820  59.383  1.00  0.00    -0.343 OA
BRANCH   3   4
HETATM    4  C3  UNL     1      17.290  37.019  58.820  1.00  0.00     0.188 C
HETATM    5  C4  UNL     1      17.776  35.708  58.249  1.00  0.00     0.177 C
HETATM    6  O3  UNL     1      18.956  35.878  57.512  1.00  0.00    -0.373 OA
HETATM    7  C6  UNL     1      18.689  36.677  56.401  1.00  0.00     0.152 C
HETATM    8  C8  UNL     1      18.522  38.086  56.920  1.00  0.00     0.044 C
HETATM    9  C9  UNL     1      19.725  38.522  57.722  1.00  0.00     0.015 C
HETATM   10  C10 UNL     1      17.260  38.118  57.775  1.00  0.00     0.156 C
BRANCH   5  11
HETATM   11  C5  UNL     1      18.031  34.729  59.346  1.00  0.00     0.198 C
BRANCH  11  12
HETATM   12  O2  UNL     1      17.800  33.409  59.005  1.00  0.00    -0.398 OA
ATOM     13  H2  UNL     1      17.191  32.954  59.575  1.00  0.00     0.209 HD
ENDBRANCH  11  12
ENDBRANCH   5  11
BRANCH   7  14
HETATM   14  C7  UNL     1      19.764  36.602  55.373  1.00  0.00     0.196 C
BRANCH  14  15
HETATM   15  O4  UNL     1      20.585  35.525  55.629  1.00  0.00    -0.398 OA
ATOM     16  H4  UNL     1      20.290  34.768  55.135  1.00  0.00     0.209 HD
ENDBRANCH  14  15
ENDBRANCH   7  14
BRANCH  10  17
HETATM   17  O5  UNL     1      17.204  39.338  58.445  1.00  0.00    -0.392 OA
ATOM     18  H5  UNL     1      16.700  39.939  57.909  1.00  0.00     0.210 HD
ENDBRANCH  10  17
ENDBRANCH   3   4
ENDBRANCH   2   3
BRANCH   2  19
HETATM   19  C11 UNL     1      14.386  38.117  60.660  1.00  0.00     0.180 C
BRANCH  19  20
HETATM   20  O6  UNL     1      14.730  39.342  61.308  1.00  0.00    -0.389 OA
ATOM     21  H6  UNL     1      13.940  39.868  61.261  1.00  0.00     0.210 HD
ENDBRANCH  19  20
BRANCH  19  22
HETATM   22  C12 UNL     1      13.362  37.478  61.492  1.00  0.00     0.050 C
BRANCH  22  23
HETATM   23  C13 UNL     1      13.958  37.305  62.900  1.00  0.00     0.006 C
HETATM   24  C14 UNL     1      13.977  35.865  63.343  1.00  0.00     0.006 C
ENDBRANCH  22  23
BRANCH  22  25
HETATM   25  C15 UNL     1      12.051  38.095  61.701  1.00  0.00     0.128 C
BRANCH  25  26
HETATM   26  O7  UNL     1      11.909  39.328  61.074  1.00  0.00    -0.395 OA
ATOM     27  H7  UNL     1      11.005  39.606  60.980  1.00  0.00     0.210 HD
ENDBRANCH  25  26
BRANCH  25  28
HETATM   28  C16 UNL     1      10.789  37.301  61.491  1.00  0.00     0.011 C
HETATM   29  C17 UNL     1      10.737  36.168  62.463  1.00  0.00     0.012 C
BRANCH  28  30
HETATM   30  C18 UNL     1       9.599  38.161  61.369  1.00  0.00     0.007 C
BRANCH  30  31
HETATM   31  C19 UNL     1       8.567  38.232  62.416  1.00  0.00     0.000 C
BRANCH  31  32
HETATM   32  C20 UNL     1       7.637  39.400  62.382  1.00  0.00    -0.005 C
HETATM   33  C21 UNL     1       8.355  40.509  61.543  1.00  0.00     0.005 C
ENDBRANCH  31  32
ENDBRANCH  30  31
ENDBRANCH  28  30
ENDBRANCH  25  28
ENDBRANCH  22  25
ENDBRANCH  19  22
ENDBRANCH   2  19
TORSDOF 17
ENDMDL