MODEL 5
REMARK VINA RESULT: -8.540345391      2.709      8.812
REMARK  15 active torsions:
REMARK  status: ('A' for Active; 'I' for Inactive)
REMARK    1  A    between atoms: C2_2  and  C3_3
REMARK    2  A    between atoms: C3_3  and  O1_4
REMARK    3  A    between atoms: O1_4  and  C4_5
REMARK    4  A    between atoms: C6_7  and  N1_8
REMARK       I    between atoms: N1_8  and  C7_10
REMARK    5  A    between atoms: C8_15  and  O2_16
REMARK    6  A    between atoms: O2_16  and  C9_17
REMARK    7  A    between atoms: C9_17  and  C10_19
REMARK    8  A    between atoms: C10_19  and  C11_20
REMARK    9  A    between atoms: C12_21  and  C13_22
REMARK   10  A    between atoms: C13_22  and  C14_23
REMARK   11  A    between atoms: C14_23  and  C15_24
REMARK   12  A    between atoms: C15_24  and  C16_25
REMARK   13  A    between atoms: C16_25  and  C17_26
REMARK   14  A    between atoms: C17_26  and  O4_28
REMARK   15  A    between atoms: N4_30  and  O5_32
ROOT
HETATM    1  O2  UNL     1      15.650  37.072  59.398  1.00  0.00    -0.287 OA
ENDROOT
BRANCH   1   2
HETATM    2  C8  UNL     1      15.298  37.199  60.739  1.00  0.00     0.295 C
HETATM    3  C6  UNL     1      15.294  38.616  61.241  1.00  0.00     0.144 C
HETATM    4  C5  UNL     1      14.494  38.472  62.520  1.00  0.00     0.091 C
HETATM    5  C4  UNL     1      13.580  37.318  62.170  1.00  0.00     0.265 C
HETATM    6  O6  UNL     1      13.971  36.837  60.923  1.00  0.00    -0.329 OA
BRANCH   3   7
HETATM    7  N1  UNL     1      14.600  39.516  60.377  1.00  0.00    -0.355 N
HETATM    8  C7  UNL     1      15.304  40.412  59.562  1.00  0.00     0.182 C
HETATM    9  N2  UNL     1      15.991  39.919  58.589  1.00  0.00    -0.374 N
HETATM   10  N3  UNL     1      15.301  41.825  59.749  1.00  0.00    -0.064 NA
ATOM     11  H22 UNL     1      15.994  38.908  58.454  1.00  0.00     0.158 HD
ATOM     12  H21 UNL     1      16.503  40.572  57.996  1.00  0.00     0.158 HD
ATOM     13  H1  UNL     1      13.581  39.507  60.353  1.00  0.00     0.162 HD
ENDBRANCH   3   7
BRANCH   5  14
HETATM   14  O1  UNL     1      12.301  37.842  62.063  1.00  0.00    -0.361 OA
BRANCH  14  15
HETATM   15  C3  UNL     1      11.306  36.893  62.059  1.00  0.00     0.170 C
BRANCH  15  16
HETATM   16  C2  UNL     1       9.936  37.494  62.048  1.00  0.00     0.022 C
HETATM   17  C1  UNL     1      10.040  38.893  61.471  1.00  0.00     0.007 C
ENDBRANCH  15  16
ENDBRANCH  14  15
ENDBRANCH   5  14
ENDBRANCH   1   2
BRANCH   1  18
HETATM   18  C9  UNL     1      16.734  36.316  58.981  1.00  0.00     0.264 C
HETATM   19  O3  UNL     1      16.909  36.217  57.739  1.00  0.00    -0.265 OA
BRANCH  18  20
HETATM   20  C10 UNL     1      17.656  35.648  59.943  1.00  0.00     0.138 C
BRANCH  20  21
HETATM   21  C11 UNL     1      18.855  36.460  60.214  1.00  0.00    -0.021 C
HETATM   22  C12 UNL     1      20.032  36.357  59.697  1.00  0.00    -0.024 C
BRANCH  22  23
HETATM   23  C13 UNL     1      20.435  35.381  58.700  1.00  0.00     0.081 C
BRANCH  23  24
HETATM   24  C14 UNL     1      20.208  35.788  57.280  1.00  0.00     0.013 C
HETATM   25  N4  UNL     1      19.469  35.136  56.520  1.00  0.00    -0.277 N
ATOM     26  H4  UNL     1      19.375  35.488  55.568  1.00  0.00     0.193 HD
BRANCH  24  27
HETATM   27  C15 UNL     1      20.908  37.052  56.888  1.00  0.00     0.057 C
BRANCH  27  28
HETATM   28  C16 UNL     1      20.324  37.751  55.721  1.00  0.00     0.037 C
BRANCH  28  29
HETATM   29  C17 UNL     1      19.392  38.879  56.002  1.00  0.00     0.117 C
HETATM   30  C18 UNL     1      19.393  39.269  57.471  1.00  0.00     0.039 C
BRANCH  29  31
HETATM   31  O4  UNL     1      18.064  38.529  55.703  1.00  0.00    -0.391 OA
HETATM   32  C19 UNL     1      18.001  37.761  54.544  1.00  0.00     0.202 C
ENDBRANCH  29  31
ENDBRANCH  28  29
ENDBRANCH  27  28
ENDBRANCH  24  27
BRANCH  25  33
HETATM   33  O5  UNL     1      18.778  34.016  56.813  1.00  0.00    -0.290 OA
ATOM     34  H5  UNL     1      17.843  33.938  56.960  1.00  0.00     0.244 HD
ENDBRANCH  25  33
ENDBRANCH  23  24
ENDBRANCH  22  23
ENDBRANCH  20  21
ENDBRANCH  18  20
ENDBRANCH   1  18
TORSDOF 15
ENDMDL