MODEL 5
REMARK VINA RESULT: -6.238193282      2.294      4.427
REMARK  16 active torsions:
REMARK  status: ('A' for Active; 'I' for Inactive)
REMARK    1  A    between atoms: C2_2  and  C3_3
REMARK    2  A    between atoms: C3_3  and  C6_6
REMARK    3  A    between atoms: C6_6  and  C7_7
REMARK    4  A    between atoms: C7_7  and  O1_8
REMARK    5  A    between atoms: C7_7  and  C17_33
REMARK    6  A    between atoms: O1_8  and  C8_9
REMARK    7  A    between atoms: C9_11  and  C10_12
REMARK    8  A    between atoms: C10_12  and  N1_13
REMARK    9  A    between atoms: N1_13  and  N2_15
REMARK   10  A    between atoms: N2_15  and  N3_16
REMARK   11  A    between atoms: C11_19  and  O3_20
REMARK   12  A    between atoms: C12_22  and  O4_23
REMARK   13  A    between atoms: C13_25  and  O5_26
REMARK   14  A    between atoms: O5_26  and  C14_27
REMARK   15  A    between atoms: C14_27  and  C15_28
REMARK   16  A    between atoms: C15_28  and  N4_29
ROOT
HETATM    1  C8  UNL     1      16.903  36.501  56.904  1.00  0.00     0.292 C
HETATM    2  O2  UNL     1      17.541  37.684  56.663  1.00  0.00    -0.349 OA
HETATM    3  C9  UNL     1      18.464  37.881  55.732  1.00  0.00     0.176 C
HETATM    4  C11 UNL     1      18.210  37.138  54.433  1.00  0.00     0.180 C
HETATM    5  C12 UNL     1      16.735  36.676  54.472  1.00  0.00     0.183 C
HETATM    6  C13 UNL     1      16.754  35.692  55.673  1.00  0.00     0.207 C
ENDROOT
BRANCH   1   7
HETATM    7  O1  UNL     1      17.554  35.777  57.877  1.00  0.00    -0.353 OA
BRANCH   7   8
HETATM    8  C7  UNL     1      17.636  36.354  59.161  1.00  0.00     0.128 C
BRANCH   8   9
HETATM    9  C6  UNL     1      16.293  36.303  59.714  1.00  0.00     0.041 C
BRANCH   9  10
HETATM   10  C3  UNL     1      15.610  37.185  60.637  1.00  0.00    -0.046 C
HETATM   11  C4  UNL     1      14.158  37.055  60.901  1.00  0.00     0.015 C
HETATM   12  C5  UNL     1      16.338  37.318  61.958  1.00  0.00     0.015 C
BRANCH  10  13
HETATM   13  C2  UNL     1      15.799  38.640  60.019  1.00  0.00     0.004 C
HETATM   14  C1  UNL     1      14.660  39.515  60.395  1.00  0.00     0.006 C
ENDBRANCH  10  13
ENDBRANCH   9  10
ENDBRANCH   8   9
BRANCH   8  15
HETATM   15  C17 UNL     1      18.814  35.859  59.920  1.00  0.00     0.006 C
HETATM   16  C18 UNL     1      19.272  34.508  59.279  1.00  0.00     0.012 C
HETATM   17  C19 UNL     1      20.072  36.697  59.787  1.00  0.00     0.012 C
ENDBRANCH   8  15
ENDBRANCH   7   8
ENDBRANCH   1   7
BRANCH   6  18
HETATM   18  O5  UNL     1      15.586  34.923  55.588  1.00  0.00    -0.377 OA
BRANCH  18  19
HETATM   19  C14 UNL     1      15.881  33.650  56.039  1.00  0.00     0.196 C
BRANCH  19  20
HETATM   20  C15 UNL     1      17.001  33.012  55.231  1.00  0.00     0.258 C
BRANCH  20  21
HETATM   21  N4  UNL     1      16.954  31.573  55.271  1.00  0.00    -0.077 N
HETATM   22  C16 UNL     1      18.006  30.928  54.552  1.00  0.00     0.267 C
ATOM     23  H42 UNL     1      16.929  31.244  56.237  1.00  0.00     0.276 HD
ATOM     24  H41 UNL     1      16.045  31.238  54.950  1.00  0.00     0.276 HD
ENDBRANCH  20  21
ENDBRANCH  19  20
ENDBRANCH  18  19
ENDBRANCH   6  18
BRANCH   3  25
HETATM   25  C10 UNL     1      19.859  37.608  56.172  1.00  0.00     0.190 C
BRANCH  25  26
HETATM   26  N1  UNL     1      20.268  36.242  56.200  1.00  0.00    -0.250 N
ATOM     27  H1  UNL     1      19.588  35.542  55.904  1.00  0.00     0.197 HD
BRANCH  26  28
HETATM   28  N2  UNL     1      21.380  35.840  56.554  1.00  0.00    -0.248 NA
BRANCH  28  29
HETATM   29  N3  UNL     1      22.542  35.525  56.832  1.00  0.00    -0.261 N
ATOM     30  H32 UNL     1      22.623  35.477  55.816  1.00  0.00     0.193 HD
ATOM     31  H31 UNL     1      23.475  35.276  57.162  1.00  0.00     0.193 HD
ENDBRANCH  28  29
ENDBRANCH  26  28
ENDBRANCH  25  26
ENDBRANCH   3  25
BRANCH   5  32
HETATM   32  O4  UNL     1      16.421  36.072  53.292  1.00  0.00    -0.390 OA
ATOM     33  H4  UNL     1      16.270  35.146  53.443  1.00  0.00     0.210 HD
ENDBRANCH   5  32
BRANCH   4  34
HETATM   34  O3  UNL     1      18.334  37.977  53.348  1.00  0.00    -0.390 OA
ATOM     35  H3  UNL     1      18.306  38.888  53.614  1.00  0.00     0.210 HD
ENDBRANCH   4  34
TORSDOF 16
ENDMDL