MODEL 1
REMARK VINA RESULT: -9.121092630      0.000      0.000
REMARK  17 active torsions:
REMARK  status: ('A' for Active; 'I' for Inactive)
REMARK    1  A    between atoms: C2_2  and  O1_3
REMARK    2  A    between atoms: C2_2  and  C3_5
REMARK    3  A    between atoms: C3_5  and  C4_6
REMARK    4  A    between atoms: C4_6  and  C5_7
REMARK    5  A    between atoms: C5_7  and  C6_8
REMARK    6  A    between atoms: C6_8  and  O2_9
REMARK    7  A    between atoms: C6_8  and  C7_11
REMARK    8  A    between atoms: C7_11  and  C8_12
REMARK    9  A    between atoms: C8_12  and  C9_13
REMARK   10  A    between atoms: C9_13  and  C10_14
REMARK   11  A    between atoms: C11_15  and  C12_16
REMARK   12  A    between atoms: C12_16  and  C13_17
REMARK   13  A    between atoms: C15_19  and  C17_21
REMARK   14  A    between atoms: C17_21  and  O3_22
REMARK   15  A    between atoms: O3_22  and  C18_23
REMARK   16  A    between atoms: C20_26  and  O5_27
REMARK   17  A    between atoms: C21_30  and  O7_31
ROOT
HETATM    1  C13 UNL     1      17.651  35.922  60.340  1.00  0.00    -0.000 A
HETATM    2  C14 UNL     1      19.050  36.286  59.972  1.00  0.00     0.017 A
HETATM    3  C15 UNL     1      18.162  35.409  59.074  1.00  0.00    -0.018 A
HETATM    4  C16 UNL     1      18.626  33.943  59.098  1.00  0.00     0.018 C
ENDROOT
BRANCH   1   5
HETATM    5  C12 UNL     1      16.706  37.086  60.474  1.00  0.00     0.032 C
BRANCH   5   6
HETATM    6  C11 UNL     1      15.973  37.052  61.756  1.00  0.00    -0.030 C
HETATM    7  C10 UNL     1      14.818  37.614  62.028  1.00  0.00    -0.031 C
BRANCH   7   8
HETATM    8  C9  UNL     1      14.010  38.399  61.102  1.00  0.00     0.027 C
BRANCH   8   9
HETATM    9  C8  UNL     1      12.514  38.187  61.334  1.00  0.00     0.006 C
BRANCH   9  10
HETATM   10  C7  UNL     1      12.315  36.808  61.911  1.00  0.00     0.032 C
BRANCH  10  11
HETATM   11  C6  UNL     1      11.004  36.733  62.611  1.00  0.00     0.118 C
BRANCH  11  12
HETATM   12  C5  UNL     1       9.894  37.147  61.705  1.00  0.00     0.032 C
BRANCH  12  13
HETATM   13  C4  UNL     1       8.985  38.172  62.362  1.00  0.00     0.005 C
BRANCH  13  14
HETATM   14  C3  UNL     1       9.093  39.496  61.679  1.00  0.00     0.031 C
BRANCH  14  15
HETATM   15  C2  UNL     1       7.808  40.271  61.610  1.00  0.00     0.114 C
HETATM   16  C1  UNL     1       6.896  40.037  62.770  1.00  0.00     0.039 C
BRANCH  15  17
HETATM   17  O1  UNL     1       8.170  41.634  61.648  1.00  0.00    -0.396 OA
ATOM     18  H1  UNL     1       7.787  42.039  60.879  1.00  0.00     0.210 HD
ENDBRANCH  15  17
ENDBRANCH  14  15
ENDBRANCH  13  14
ENDBRANCH  12  13
ENDBRANCH  11  12
BRANCH  11  19
HETATM   19  O2  UNL     1      10.798  35.424  63.049  1.00  0.00    -0.396 OA
ATOM     20  H2  UNL     1      11.633  35.003  63.217  1.00  0.00     0.210 HD
ENDBRANCH  11  19
ENDBRANCH  10  11
ENDBRANCH   9  10
ENDBRANCH   8   9
ENDBRANCH   7   8
ENDBRANCH   5   6
ENDBRANCH   1   5
BRANCH   3  21
HETATM   21  C17 UNL     1      17.791  35.965  57.721  1.00  0.00     0.180 C
BRANCH  21  22
HETATM   22  O3  UNL     1      16.482  35.672  57.456  1.00  0.00    -0.355 OA
BRANCH  22  23
HETATM   23  C18 UNL     1      16.297  34.974  56.255  1.00  0.00     0.314 C
HETATM   24  O4  UNL     1      16.697  33.671  56.339  1.00  0.00    -0.351 OA
HETATM   25  C19 UNL     1      16.765  32.989  55.161  1.00  0.00     0.231 C
HETATM   26  C20 UNL     1      17.310  33.824  54.018  1.00  0.00     0.283 C
HETATM   27  O6  UNL     1      16.669  35.033  53.902  1.00  0.00    -0.325 OA
HETATM   28  C21 UNL     1      16.835  35.743  55.076  1.00  0.00     0.315 C
BRANCH  26  29
HETATM   29  O5  UNL     1      18.692  33.956  54.240  1.00  0.00    -0.369 OA
ATOM     30  H5  UNL     1      19.106  33.955  53.386  1.00  0.00     0.212 HD
ENDBRANCH  26  29
BRANCH  28  31
HETATM   31  O7  UNL     1      16.048  36.911  54.916  1.00  0.00    -0.367 OA
ATOM     32  H7  UNL     1      15.597  36.851  54.082  1.00  0.00     0.212 HD
ENDBRANCH  28  31
ENDBRANCH  22  23
ENDBRANCH  21  22
ENDBRANCH   3  21
TORSDOF 17
ENDMDL