MODEL 4
REMARK VINA RESULT: -7.037834813      1.197      1.407
REMARK  17 active torsions:
REMARK  status: ('A' for Active; 'I' for Inactive)
REMARK    1  A    between atoms: C2_2  and  S1_3
REMARK    2  A    between atoms: S1_3  and  C3_4
REMARK    3  A    between atoms: C3_4  and  C4_5
REMARK    4  A    between atoms: C4_5  and  C5_6
REMARK    5  A    between atoms: C5_6  and  C6_7
REMARK    6  A    between atoms: C6_7  and  C7_8
REMARK    7  A    between atoms: C6_7  and  C9_10
REMARK    8  A    between atoms: C14_15  and  N1_16
REMARK    9  A    between atoms: N1_16  and  C15_19
REMARK   10  A    between atoms: C15_19  and  O1_20
REMARK   11  A    between atoms: C15_19  and  C16_22
REMARK   12  A    between atoms: C16_22  and  O2_23
REMARK   13  A    between atoms: O2_23  and  C17_24
REMARK   14  A    between atoms: C17_24  and  C18_26
REMARK   15  A    between atoms: C18_26  and  N2_27
REMARK   16  A    between atoms: C18_26  and  C19_31
REMARK   17  A    between atoms: C19_31  and  O4_32
ROOT
HETATM    1  N1  UNL     1      15.508  37.315  60.305  1.00  0.00    -0.043 N
ATOM      2  H11 UNL     1      15.175  36.417  60.658  1.00  0.00     0.280 HD
ATOM      3  H12 UNL     1      15.013  37.324  59.413  1.00  0.00     0.280 HD
ENDROOT
BRANCH   1   4
HETATM    4  C14 UNL     1      16.931  37.313  60.120  1.00  0.00     0.189 C
HETATM    5  C13 UNL     1      17.494  35.996  60.509  1.00  0.00     0.034 C
HETATM    6  C12 UNL     1      18.012  35.343  59.237  1.00  0.00     0.012 C
HETATM    7  C4  UNL     1      18.237  36.469  58.248  1.00  0.00    -0.030 C
HETATM    8  C20 UNL     1      17.370  37.598  58.699  1.00  0.00     0.043 C
BRANCH   7   9
HETATM    9  C3  UNL     1      17.614  36.035  56.898  1.00  0.00     0.083 C
BRANCH   9  10
HETATM   10  S1  UNL     1      18.339  34.655  56.120  1.00  0.00    -0.169 SA
BRANCH  10  11
HETATM   11  C2  UNL     1      17.244  33.301  55.780  1.00  0.00     0.069 C
HETATM   12  C1  UNL     1      15.855  33.722  56.327  1.00  0.00     0.016 C
ENDBRANCH  10  11
ENDBRANCH   9  10
ENDBRANCH   7   9
BRANCH   7  13
HETATM   13  C5  UNL     1      19.658  36.748  57.954  1.00  0.00     0.015 C
BRANCH  13  14
HETATM   14  C6  UNL     1      20.360  37.894  58.516  1.00  0.00    -0.011 C
BRANCH  14  15
HETATM   15  C7  UNL     1      20.910  38.974  57.694  1.00  0.00     0.000 C
HETATM   16  C8  UNL     1      19.892  39.761  56.895  1.00  0.00     0.005 C
ENDBRANCH  14  15
BRANCH  14  17
HETATM   17  C9  UNL     1      21.384  37.435  59.573  1.00  0.00    -0.019 C
HETATM   18  C10 UNL     1      22.546  38.369  59.670  1.00  0.00     0.010 C
HETATM   19  C11 UNL     1      21.837  36.026  59.375  1.00  0.00     0.010 C
ENDBRANCH  14  17
ENDBRANCH  13  14
ENDBRANCH   7  13
ENDBRANCH   1   4
BRANCH   1  20
HETATM   20  C15 UNL     1      15.085  38.424  61.167  1.00  0.00     0.343 C
BRANCH  20  21
HETATM   21  O1  UNL     1      15.244  38.109  62.486  1.00  0.00    -0.368 OA
ATOM     22  H1  UNL     1      15.182  38.884  63.032  1.00  0.00     0.212 HD
ENDBRANCH  20  21
BRANCH  20  23
HETATM   23  C16 UNL     1      13.654  38.703  60.819  1.00  0.00     0.239 C
BRANCH  23  24
HETATM   24  O2  UNL     1      12.733  38.468  61.794  1.00  0.00    -0.315 OA
BRANCH  24  25
HETATM   25  C17 UNL     1      12.164  37.333  62.224  1.00  0.00     0.291 C
HETATM   26  O3  UNL     1      12.754  36.569  63.006  1.00  0.00    -0.263 OA
BRANCH  25  27
HETATM   27  C18 UNL     1      10.777  36.935  61.773  1.00  0.00     0.305 C
BRANCH  27  28
HETATM   28  N2  UNL     1      10.387  35.761  62.506  1.00  0.00    -0.064 N
ATOM     29  H23 UNL     1      10.351  34.926  61.921  1.00  0.00     0.275 HD
ATOM     30  H22 UNL     1      11.108  35.444  63.154  1.00  0.00     0.275 HD
ATOM     31  H21 UNL     1       9.500  35.955  62.970  1.00  0.00     0.275 HD
ENDBRANCH  27  28
BRANCH  27  32
HETATM   32  C19 UNL     1       9.856  38.089  62.064  1.00  0.00     0.207 C
BRANCH  32  33
HETATM   33  O4  UNL     1      10.132  39.147  61.192  1.00  0.00    -0.398 OA
ATOM     34  H4  UNL     1      10.050  39.974  61.652  1.00  0.00     0.209 HD
ENDBRANCH  32  33
ENDBRANCH  27  32
ENDBRANCH  25  27
ENDBRANCH  24  25
ENDBRANCH  23  24
ENDBRANCH  20  23
ENDBRANCH   1  20
TORSDOF 17
ENDMDL