MODEL 5
REMARK VINA RESULT: -7.228415276      3.878      7.641
REMARK  14 active torsions:
REMARK  status: ('A' for Active; 'I' for Inactive)
REMARK    1  A    between atoms: C2_2  and  C3_3
REMARK    2  A    between atoms: C3_3  and  C4_4
REMARK    3  A    between atoms: C4_4  and  C5_5
REMARK    4  A    between atoms: C5_5  and  N1_6
REMARK    5  A    between atoms: N1_6  and  C6_8
REMARK    6  A    between atoms: N4_16  and  C10_17
REMARK    7  A    between atoms: C10_17  and  C11_18
REMARK    8  A    between atoms: C11_18  and  C12_19
REMARK    9  A    between atoms: C12_19  and  N5_20
REMARK   10  A    between atoms: N5_20  and  C13_23
REMARK   11  A    between atoms: C13_23  and  C14_24
REMARK   12  A    between atoms: C14_24  and  N6_25
REMARK   13  A    between atoms: N6_25  and  C15_28
REMARK   14  A    between atoms: C17_30  and  N7_31
ROOT
HETATM    1  C6  UNL     1      17.175  37.187  58.702  1.00  0.00     0.681 A
HETATM    2  N2  UNL     1      16.973  37.176  57.375  1.00  0.00    -0.174 N
ATOM      3  H2  UNL     1      16.021  37.170  57.008  1.00  0.00     0.186 HD
HETATM    4  C7  UNL     1      18.025  37.172  56.518  1.00  0.00     0.155 A
HETATM    5  C8  UNL     1      19.325  37.181  57.039  1.00  0.00     0.123 A
HETATM    6  N3  UNL     1      20.130  37.190  55.966  1.00  0.00    -0.346 N
ATOM      7  H3  UNL     1      21.149  37.198  56.003  1.00  0.00     0.167 HD
HETATM    8  C9  UNL     1      19.408  37.188  54.839  1.00  0.00     0.185 A
HETATM    9  N4  UNL     1      18.105  37.174  55.171  1.00  0.00    -0.327 N
HETATM   10  C17 UNL     1      19.539  37.193  58.396  1.00  0.00     0.150 A
HETATM   11  N8  UNL     1      18.459  37.195  59.174  1.00  0.00    -0.174 N
ATOM     12  H8  UNL     1      18.598  37.204  60.184  1.00  0.00     0.186 HD
ENDROOT
BRANCH   9  13
HETATM   13  C10 UNL     1      17.040  37.116  54.198  1.00  0.00     0.133 C
BRANCH  13  14
HETATM   14  C11 UNL     1      17.344  36.026  53.191  1.00  0.00     0.048 C
BRANCH  14  15
HETATM   15  C12 UNL     1      16.878  34.684  53.635  1.00  0.00     0.234 C
BRANCH  15  16
HETATM   16  N5  UNL     1      17.978  33.810  53.885  1.00  0.00    -0.073 N
ATOM     17  H52 UNL     1      18.032  33.073  53.182  1.00  0.00     0.277 HD
ATOM     18  H51 UNL     1      18.869  34.273  53.701  1.00  0.00     0.277 HD
BRANCH  16  19
HETATM   19  C13 UNL     1      17.939  33.262  55.217  1.00  0.00     0.259 C
BRANCH  19  20
HETATM   20  C14 UNL     1      16.555  33.466  55.826  1.00  0.00     0.259 C
BRANCH  20  21
HETATM   21  N6  UNL     1      16.689  33.685  57.233  1.00  0.00    -0.074 N
ATOM     22  H62 UNL     1      16.188  34.518  57.545  1.00  0.00     0.277 HD
ATOM     23  H61 UNL     1      16.176  32.996  57.784  1.00  0.00     0.277 HD
BRANCH  21  24
HETATM   24  C15 UNL     1      18.113  33.729  57.581  1.00  0.00     0.228 C
HETATM   25  C16 UNL     1      18.345  33.603  59.045  1.00  0.00     0.034 C
ENDBRANCH  21  24
ENDBRANCH  20  21
ENDBRANCH  19  20
ENDBRANCH  16  19
ENDBRANCH  15  16
ENDBRANCH  14  15
ENDBRANCH  13  14
ENDBRANCH   9  13
BRANCH   1  26
HETATM   26  N1  UNL     1      16.275  37.201  59.579  1.00  0.00    -0.223 N
ATOM     27  H1  UNL     1      15.437  37.706  59.292  1.00  0.00     0.178 HD
BRANCH  26  28
HETATM   28  C5  UNL     1      16.189  36.657  60.883  1.00  0.00     0.165 C
BRANCH  28  29
HETATM   29  C4  UNL     1      15.595  37.692  61.760  1.00  0.00    -0.011 C
BRANCH  29  30
HETATM   30  C3  UNL     1      14.362  37.716  62.110  1.00  0.00    -0.029 C
BRANCH  30  31
HETATM   31  C2  UNL     1      13.227  38.080  61.265  1.00  0.00     0.022 C
HETATM   32  C1  UNL     1      12.032  37.245  61.761  1.00  0.00     0.009 C
ENDBRANCH  30  31
ENDBRANCH  29  30
ENDBRANCH  28  29
ENDBRANCH  26  28
ENDBRANCH   1  26
BRANCH  10  33
HETATM   33  N7  UNL     1      20.859  37.173  58.910  1.00  0.00    -0.365 N
HETATM   34  C18 UNL     1      21.452  35.906  59.233  1.00  0.00     0.124 C
HETATM   35  C19 UNL     1      22.873  35.886  58.733  1.00  0.00     0.020 C
HETATM   36  C20 UNL     1      23.116  36.963  57.695  1.00  0.00     0.003 C
HETATM   37  C21 UNL     1      22.818  38.345  58.188  1.00  0.00     0.020 C
HETATM   38  C22 UNL     1      21.638  38.381  59.111  1.00  0.00     0.124 C
ENDBRANCH  10  33
TORSDOF 14
ENDMDL