MODEL 5
REMARK VINA RESULT: -7.303001043      1.741      2.578
REMARK  17 active torsions:
REMARK  status: ('A' for Active; 'I' for Inactive)
REMARK    1  A    between atoms: C2_2  and  C3_3
REMARK    2  A    between atoms: C3_3  and  C4_4
REMARK    3  A    between atoms: C4_4  and  C5_5
REMARK    4  A    between atoms: C5_5  and  C6_6
REMARK    5  A    between atoms: C6_6  and  C7_7
REMARK    6  A    between atoms: C7_7  and  C10_10
REMARK    7  A    between atoms: C10_10  and  O1_11
REMARK    8  A    between atoms: C10_10  and  C11_13
REMARK    9  A    between atoms: C11_13  and  C12_14
REMARK   10  A    between atoms: C11_13  and  O3_21
REMARK   11  A    between atoms: C12_14  and  C13_15
REMARK   12  A    between atoms: C14_16  and  C15_17
REMARK   13  A    between atoms: C15_17  and  O2_19
REMARK   14  A    between atoms: O3_21  and  C17_22
REMARK   15  A    between atoms: C20_26  and  O5_27
REMARK   16  A    between atoms: C21_29  and  C22_30
REMARK   17  A    between atoms: C22_30  and  O6_31
ROOT
HETATM    1  C11 UNL     1      17.553  36.892  59.950  1.00  0.00     0.157 C
ENDROOT
BRANCH   1   2
HETATM    2  C10 UNL     1      16.118  37.338  59.823  1.00  0.00     0.155 C
BRANCH   2   3
HETATM    3  C7  UNL     1      15.423  37.792  61.052  1.00  0.00    -0.019 C
HETATM    4  C8  UNL     1      16.112  37.538  62.337  1.00  0.00     0.017 C
HETATM    5  C9  UNL     1      14.947  39.229  60.893  1.00  0.00     0.017 C
BRANCH   3   6
HETATM    6  C6  UNL     1      14.105  36.952  61.065  1.00  0.00     0.011 C
BRANCH   6   7
HETATM    7  C5  UNL     1      12.920  37.832  61.322  1.00  0.00     0.001 C
BRANCH   7   8
HETATM    8  C4  UNL     1      11.819  36.931  61.858  1.00  0.00     0.004 C
BRANCH   8   9
HETATM    9  C3  UNL     1      10.491  37.647  61.946  1.00  0.00     0.026 C
BRANCH   9  10
HETATM   10  C2  UNL     1      10.634  38.972  61.292  1.00  0.00    -0.037 C
HETATM   11  C1  UNL     1       9.578  39.809  61.295  1.00  0.00     0.007 C
ENDBRANCH   9  10
ENDBRANCH   8   9
ENDBRANCH   7   8
ENDBRANCH   6   7
ENDBRANCH   3   6
ENDBRANCH   2   3
BRANCH   2  12
HETATM   12  O1  UNL     1      15.390  36.136  59.447  1.00  0.00    -0.392 OA
ATOM     13  H1  UNL     1      14.489  36.433  59.384  1.00  0.00     0.210 HD
ENDBRANCH   2  12
ENDBRANCH   1   2
BRANCH   1  14
HETATM   14  C12 UNL     1      17.461  35.363  59.735  1.00  0.00     0.061 C
BRANCH  14  15
HETATM   15  C13 UNL     1      18.517  34.777  58.939  1.00  0.00    -0.025 C
HETATM   16  C14 UNL     1      18.288  34.286  57.740  1.00  0.00     0.000 C
BRANCH  16  17
HETATM   17  C15 UNL     1      16.922  34.326  57.175  1.00  0.00     0.136 C
HETATM   18  C16 UNL     1      16.785  33.362  55.998  1.00  0.00     0.043 C
BRANCH  17  19
HETATM   19  O2  UNL     1      16.599  35.630  56.730  1.00  0.00    -0.392 OA
ATOM     20  H2  UNL     1      15.713  35.863  56.980  1.00  0.00     0.210 HD
ENDBRANCH  17  19
ENDBRANCH  16  17
ENDBRANCH  14  15
ENDBRANCH   1  14
BRANCH   1  21
HETATM   21  O3  UNL     1      18.500  37.502  59.219  1.00  0.00    -0.353 OA
BRANCH  21  22
HETATM   22  C17 UNL     1      18.072  38.253  58.132  1.00  0.00     0.269 C
HETATM   23  O4  UNL     1      18.574  37.691  56.968  1.00  0.00    -0.353 OA
HETATM   24  C18 UNL     1      18.828  38.742  56.090  1.00  0.00     0.150 C
HETATM   25  C19 UNL     1      19.656  38.294  54.935  1.00  0.00     0.042 C
HETATM   26  C20 UNL     1      19.586  39.675  57.031  1.00  0.00     0.157 C
HETATM   27  C21 UNL     1      18.667  39.629  58.233  1.00  0.00     0.096 C
BRANCH  26  28
HETATM   28  O5  UNL     1      20.777  39.034  57.358  1.00  0.00    -0.392 OA
ATOM     29  H5  UNL     1      20.553  38.320  57.943  1.00  0.00     0.210 HD
ENDBRANCH  26  28
BRANCH  27  30
HETATM   30  C22 UNL     1      17.628  40.716  58.011  1.00  0.00     0.176 C
BRANCH  30  31
HETATM   31  O6  UNL     1      16.404  40.038  57.823  1.00  0.00    -0.400 OA
ATOM     32  H6  UNL     1      16.552  39.438  57.102  1.00  0.00     0.209 HD
ENDBRANCH  30  31
ENDBRANCH  27  30
ENDBRANCH  21  22
ENDBRANCH   1  21
TORSDOF 17
ENDMDL