MODEL 1
REMARK VINA RESULT: -6.723485334      0.000      0.000
REMARK  16 active torsions:
REMARK  status: ('A' for Active; 'I' for Inactive)
REMARK    1  A    between atoms: C2_2  and  C3_3
REMARK    2  A    between atoms: C3_3  and  C4_4
REMARK    3  A    between atoms: C4_4  and  C5_5
REMARK    4  A    between atoms: C4_4  and  N1_9
REMARK    5  A    between atoms: C5_5  and  C6_6
REMARK    6  A    between atoms: C6_6  and  S1_7
REMARK    7  A    between atoms: N1_9  and  C8_11
REMARK    8  A    between atoms: C9_12  and  O1_13
REMARK    9  A    between atoms: O1_13  and  C10_14
REMARK   10  A    between atoms: C12_17  and  C13_18
REMARK   11  A    between atoms: C13_18  and  O3_19
REMARK   12  A    between atoms: O3_19  and  C14_20
REMARK   13  A    between atoms: C14_20  and  C15_21
REMARK   14  A    between atoms: C15_21  and  C16_22
REMARK   15  A    between atoms: C19_25  and  O4_26
REMARK   16  A    between atoms: C20_28  and  O5_29
ROOT
HETATM    1  C8  UNL     1      15.870  38.033  59.728  1.00  0.00     0.073 C
HETATM    2  C9  UNL     1      16.087  36.832  60.485  1.00  0.00     0.309 C
HETATM    3  O2  UNL     1      15.459  36.938  61.833  1.00  0.00    -0.346 OA
HETATM    4  C12 UNL     1      14.103  37.111  61.520  1.00  0.00     0.180 C
HETATM    5  C19 UNL     1      14.017  38.609  61.386  1.00  0.00     0.183 C
HETATM    6  C20 UNL     1      14.676  38.911  60.049  1.00  0.00     0.200 C
ENDROOT
BRANCH   1   7
HETATM    7  N1  UNL     1      16.942  38.795  59.223  1.00  0.00    -0.360 N
ATOM      8  H1  UNL     1      17.391  39.448  59.865  1.00  0.00     0.165 HD
BRANCH   7   9
HETATM    9  C4  UNL     1      17.440  38.735  57.934  1.00  0.00     0.006 C
BRANCH   9  10
HETATM   10  C3  UNL     1      18.563  39.785  57.768  1.00  0.00     0.056 C
BRANCH  10  11
HETATM   11  C2  UNL     1      19.939  39.173  57.889  1.00  0.00     0.002 C
HETATM   12  C1  UNL     1      20.770  39.761  56.751  1.00  0.00     0.005 C
ENDBRANCH  10  11
ENDBRANCH   9  10
BRANCH   9  13
HETATM   13  C5  UNL     1      17.670  37.552  57.128  1.00  0.00     0.008 C
BRANCH  13  14
HETATM   14  C6  UNL     1      17.526  37.503  55.665  1.00  0.00     0.102 C
BRANCH  14  15
HETATM   15  S1  UNL     1      16.794  35.982  55.001  1.00  0.00    -0.170 SA
HETATM   16  C7  UNL     1      16.442  34.864  56.397  1.00  0.00     0.090 C
ENDBRANCH  14  15
ENDBRANCH  13  14
ENDBRANCH   9  13
ENDBRANCH   7   9
ENDBRANCH   1   7
BRANCH   2  17
HETATM   17  O1  UNL     1      17.356  36.517  60.886  1.00  0.00    -0.356 OA
BRANCH  17  18
HETATM   18  C10 UNL     1      18.042  35.640  60.098  1.00  0.00     0.167 C
HETATM   19  C11 UNL     1      19.448  35.948  59.752  1.00  0.00     0.033 C
ENDBRANCH  17  18
ENDBRANCH   2  17
BRANCH   6  20
HETATM   20  O5  UNL     1      15.083  40.227  60.085  1.00  0.00    -0.387 OA
ATOM     21  H5  UNL     1      14.470  40.727  60.611  1.00  0.00     0.210 HD
ENDBRANCH   6  20
BRANCH   5  22
HETATM   22  O4  UNL     1      14.876  39.245  62.311  1.00  0.00    -0.390 OA
ATOM     23  H4  UNL     1      14.408  39.462  63.110  1.00  0.00     0.210 HD
ENDBRANCH   5  22
BRANCH   4  24
HETATM   24  C13 UNL     1      13.152  36.421  62.396  1.00  0.00     0.202 C
BRANCH  24  25
HETATM   25  O3  UNL     1      11.963  36.895  62.755  1.00  0.00    -0.389 OA
BRANCH  25  26
HETATM   26  C14 UNL     1      10.858  36.715  61.995  1.00  0.00     0.168 C
BRANCH  26  27
HETATM   27  C15 UNL     1       9.658  37.503  62.543  1.00  0.00     0.030 C
BRANCH  27  28
HETATM   28  C16 UNL     1       9.067  38.451  61.555  1.00  0.00    -0.021 C
HETATM   29  C17 UNL     1       7.848  39.153  62.093  1.00  0.00     0.009 C
HETATM   30  C18 UNL     1      10.105  39.485  61.159  1.00  0.00     0.009 C
ENDBRANCH  27  28
ENDBRANCH  26  27
ENDBRANCH  25  26
ENDBRANCH  24  25
ENDBRANCH   4  24
TORSDOF 16
ENDMDL