MODEL 4
REMARK VINA RESULT: -8.202931367      1.353      1.814
REMARK  17 active torsions:
REMARK  status: ('A' for Active; 'I' for Inactive)
REMARK    1  A    between atoms: C4_4  and  C5_5
REMARK    2  A    between atoms: C5_5  and  O1_6
REMARK    3  A    between atoms: O1_6  and  C6_7
REMARK    4  A    between atoms: C8_10  and  C9_11
REMARK    5  A    between atoms: C9_11  and  O3_12
REMARK    6  A    between atoms: C9_11  and  C10_14
REMARK    7  A    between atoms: C10_14  and  O4_15
REMARK    8  A    between atoms: O4_15  and  C11_16
REMARK    9  A    between atoms: C11_16  and  C12_17
REMARK   10  A    between atoms: C12_17  and  O5_18
REMARK   11  A    between atoms: C12_17  and  C13_20
REMARK   12  A    between atoms: C16_23  and  C17_24
REMARK   13  A    between atoms: C18_25  and  C19_26
REMARK   14  A    between atoms: C19_26  and  O6_27
REMARK   15  A    between atoms: C19_26  and  C20_29
REMARK   16  A    between atoms: C20_29  and  C21_30
REMARK   17  A    between atoms: C21_30  and  O7_31
ROOT
HETATM    1  C6  UNL     1      17.134  37.625  59.807  1.00  0.00     0.277 C
HETATM    2  O2  UNL     1      17.129  36.500  60.734  1.00  0.00    -0.331 OA
HETATM    3  C7  UNL     1      16.165  36.745  61.691  1.00  0.00     0.144 C
HETATM    4  C8  UNL     1      15.291  37.634  61.259  1.00  0.00    -0.015 C
HETATM    5  C16 UNL     1      15.717  38.033  59.868  1.00  0.00     0.097 C
ENDROOT
BRANCH   4   6
HETATM    6  C9  UNL     1      14.105  38.198  61.928  1.00  0.00     0.173 C
BRANCH   6   7
HETATM    7  O3  UNL     1      14.079  37.910  63.311  1.00  0.00    -0.389 OA
ATOM      8  H3  UNL     1      14.876  38.181  63.752  1.00  0.00     0.210 HD
ENDBRANCH   6   7
BRANCH   6   9
HETATM    9  C10 UNL     1      12.823  37.522  61.392  1.00  0.00     0.204 C
BRANCH   9  10
HETATM   10  O4  UNL     1      11.832  38.440  61.563  1.00  0.00    -0.386 OA
BRANCH  10  11
HETATM   11  C11 UNL     1      10.544  38.049  61.718  1.00  0.00     0.199 C
BRANCH  11  12
HETATM   12  C12 UNL     1       9.582  39.195  61.667  1.00  0.00     0.145 C
BRANCH  12  13
HETATM   13  O5  UNL     1       9.841  40.076  60.645  1.00  0.00    -0.393 OA
ATOM     14  H5  UNL     1      10.417  40.787  60.900  1.00  0.00     0.210 HD
ENDBRANCH  12  13
BRANCH  12  15
HETATM   15  C13 UNL     1       8.136  38.718  61.651  1.00  0.00     0.008 C
HETATM   16  C14 UNL     1       7.736  38.465  63.098  1.00  0.00     0.012 C
HETATM   17  C15 UNL     1       8.105  37.384  60.939  1.00  0.00     0.012 C
ENDBRANCH  12  15
ENDBRANCH  11  12
ENDBRANCH  10  11
ENDBRANCH   9  10
ENDBRANCH   6   9
ENDBRANCH   4   6
BRANCH   5  18
HETATM   18  C17 UNL     1      15.503  39.463  59.735  1.00  0.00    -0.014 C
HETATM   19  C18 UNL     1      15.907  40.197  58.747  1.00  0.00     0.001 C
BRANCH  19  20
HETATM   20  C19 UNL     1      15.619  41.690  58.724  1.00  0.00     0.142 C
BRANCH  20  21
HETATM   21  O6  UNL     1      16.698  42.271  58.078  1.00  0.00    -0.392 OA
ATOM     22  H6  UNL     1      16.367  43.076  57.697  1.00  0.00     0.210 HD
ENDBRANCH  20  21
BRANCH  20  23
HETATM   23  C20 UNL     1      15.532  42.107  60.179  1.00  0.00     0.061 C
BRANCH  23  24
HETATM   24  C21 UNL     1      15.609  43.607  60.316  1.00  0.00     0.167 C
BRANCH  24  25
HETATM   25  O7  UNL     1      14.754  43.983  61.345  1.00  0.00    -0.401 OA
ATOM     26  H7  UNL     1      14.409  44.844  61.136  1.00  0.00     0.209 HD
ENDBRANCH  24  25
ENDBRANCH  23  24
ENDBRANCH  20  23
ENDBRANCH  19  20
ENDBRANCH   5  18
BRANCH   1  27
HETATM   27  O1  UNL     1      17.490  37.022  58.599  1.00  0.00    -0.356 OA
BRANCH  27  28
HETATM   28  C5  UNL     1      16.677  35.922  58.391  1.00  0.00     0.198 C
BRANCH  28  29
HETATM   29  C4  UNL     1      17.041  35.197  57.117  1.00  0.00     0.001 C
HETATM   30  C2  UNL     1      17.801  34.119  57.164  1.00  0.00    -0.089 C
HETATM   31  C1  UNL     1      18.165  33.398  55.902  1.00  0.00     0.042 C
HETATM   32  C3  UNL     1      18.285  33.642  58.489  1.00  0.00     0.042 C
ENDBRANCH  28  29
ENDBRANCH  27  28
ENDBRANCH   1  27
TORSDOF 17
ENDMDL