MODEL 2
REMARK VINA RESULT: -8.806593177      1.898      3.175
REMARK  6 active torsions:
REMARK  status: ('A' for Active; 'I' for Inactive)
REMARK       I    between atoms: C1_2  and  N1_3
REMARK       I    between atoms: C1_2  and  N2_13
REMARK    1  A    between atoms: N1_3  and  C2_5
REMARK    2  A    between atoms: C19_25  and  N3_26
REMARK    3  A    between atoms: C23_36  and  N7_37
REMARK    4  A    between atoms: N7_37  and  C24_39
REMARK    5  A    between atoms: C28_44  and  C29_45
REMARK    6  A    between atoms: C29_45  and  O5_46
ROOT
HETATM    1  O1  UNL     1      40.914 -45.341  70.723  1.00  0.00    -0.247 OA
HETATM    2  C1  UNL     1      40.752 -46.414  70.088  1.00  0.00     0.318 C
HETATM    3  N1  UNL     1      40.053 -47.457  70.740  1.00  0.00    -0.338 N
ATOM      4  H1  UNL     1      39.906 -48.343  70.257  1.00  0.00     0.164 HD
HETATM    5  N2  UNL     1      41.277 -46.505  68.782  1.00  0.00    -0.334 N
HETATM    6  C10 UNL     1      41.999 -45.390  68.206  1.00  0.00     0.130 C
HETATM    7  C11 UNL     1      41.416 -45.069  66.848  1.00  0.00     0.061 C
HETATM    8  C12 UNL     1      41.664 -46.278  65.987  1.00  0.00     0.098 C
HETATM    9  C13 UNL     1      40.837 -47.387  66.560  1.00  0.00     0.061 C
HETATM   10  C14 UNL     1      41.108 -47.696  68.012  1.00  0.00     0.130 C
HETATM   11  O2  UNL     1      42.987 -46.638  66.098  1.00  0.00    -0.375 OA
HETATM   12  C15 UNL     1      43.352 -47.751  65.359  1.00  0.00     0.195 C
HETATM   13  C16 UNL     1      42.816 -47.784  63.974  1.00  0.00     0.195 C
HETATM   14  O3  UNL     1      41.751 -47.010  63.692  1.00  0.00    -0.372 OA
HETATM   15  C17 UNL     1      41.322 -46.071  64.557  1.00  0.00     0.124 C
HETATM   16  C18 UNL     1      39.775 -46.001  64.445  1.00  0.00     0.098 C
HETATM   17  C19 UNL     1      39.675 -45.442  63.055  1.00  0.00     0.232 C
HETATM   18  O4  UNL     1      40.864 -44.819  62.767  1.00  0.00    -0.356 OA
HETATM   19  C28 UNL     1      41.604 -44.719  63.982  1.00  0.00     0.185 C
ENDROOT
BRANCH  19  20
HETATM   20  C29 UNL     1      42.999 -44.456  63.538  1.00  0.00     0.199 C
BRANCH  20  21
HETATM   21  O5  UNL     1      43.887 -44.079  64.534  1.00  0.00    -0.398 OA
ATOM     22  H5  UNL     1      44.771 -43.881  64.246  1.00  0.00     0.209 HD
ENDBRANCH  20  21
ENDBRANCH  19  20
BRANCH  17  23
HETATM   23  N3  UNL     1      38.604 -44.521  62.847  1.00  0.00    -0.309 N
HETATM   24  C20 UNL     1      38.617 -43.190  62.583  1.00  0.00     0.187 A
HETATM   25  N4  UNL     1      37.362 -42.731  62.462  1.00  0.00    -0.336 N
HETATM   26  C21 UNL     1      36.524 -43.742  62.644  1.00  0.00     0.138 A
ATOM     27  H4  UNL     1      37.097 -41.767  62.264  1.00  0.00     0.168 HD
HETATM   28  N5  UNL     1      35.184 -43.753  62.616  1.00  0.00    -0.337 N
HETATM   29  C27 UNL     1      37.298 -44.855  62.884  1.00  0.00     0.126 A
HETATM   30  C22 UNL     1      34.545 -44.920  62.834  1.00  0.00     0.183 A
ATOM     31  H5  UNL     1      34.659 -42.896  62.433  1.00  0.00     0.168 HD
HETATM   32  N6  UNL     1      35.267 -46.037  63.074  1.00  0.00    -0.337 N
HETATM   33  C23 UNL     1      36.606 -46.054  63.108  1.00  0.00     0.133 A
ATOM     34  H6  UNL     1      34.768 -46.911  63.237  1.00  0.00     0.168 HD
BRANCH  33  35
HETATM   35  N7  UNL     1      37.256 -47.103  63.334  1.00  0.00    -0.370 N
ATOM     36  H7  UNL     1      37.896 -47.030  64.126  1.00  0.00     0.161 HD
BRANCH  35  37
HETATM   37  C24 UNL     1      37.271 -48.368  62.702  1.00  0.00     0.083 A
HETATM   38  C25 UNL     1      37.374 -48.584  61.249  1.00  0.00     0.027 A
HETATM   39  C26 UNL     1      38.588 -48.814  62.092  1.00  0.00     0.027 A
ENDBRANCH  35  37
ENDBRANCH  33  35
ENDBRANCH  17  23
BRANCH   3  40
HETATM   40  C2  UNL     1      39.535 -47.280  72.109  1.00  0.00     0.086 C
HETATM   41  C3  UNL     1      40.223 -46.124  72.720  1.00  0.00     0.025 C
HETATM   42  C4  UNL     1      39.478 -45.494  73.891  1.00  0.00     0.002 C
HETATM   43  C5  UNL     1      38.666 -44.346  73.336  1.00  0.00     0.000 C
HETATM   44  C6  UNL     1      37.205 -44.739  73.424  1.00  0.00     0.000 C
HETATM   45  C7  UNL     1      36.636 -45.100  72.084  1.00  0.00     0.000 C
HETATM   46  C8  UNL     1      37.494 -46.051  71.295  1.00  0.00     0.002 C
HETATM   47  C9  UNL     1      38.035 -47.187  72.069  1.00  0.00     0.025 C
ENDBRANCH   3  40
TORSDOF 6
ENDMDL