MODEL 5
REMARK VINA RESULT: -8.479377799      4.299      8.932
REMARK  5 active torsions:
REMARK  status: ('A' for Active; 'I' for Inactive)
REMARK    1  A    between atoms: C3_3  and  C4_4
REMARK    2  A    between atoms: C4_4  and  N1_5
REMARK    3  A    between atoms: C14_21  and  N5_22
REMARK    4  A    between atoms: N5_22  and  C15_23
REMARK    5  A    between atoms: C21_32  and  C22_33
ROOT
HETATM    1  C22 UNL     1      43.640 -44.389  64.521  1.00  0.00    -0.008 A
HETATM    2  C23 UNL     1      43.864 -43.371  63.566  1.00  0.00     0.016 A
HETATM    3  C24 UNL     1      45.088 -43.223  62.954  1.00  0.00     0.032 A
HETATM    4  C25 UNL     1      46.147 -44.058  63.227  1.00  0.00     0.059 A
HETATM    5  C26 UNL     1      45.958 -45.052  64.147  1.00  0.00    -0.029 A
HETATM    6  C27 UNL     1      44.736 -45.158  64.747  1.00  0.00     0.023 A
HETATM    7  C28 UNL     1      47.066 -46.072  64.474  1.00  0.00     0.050 C
HETATM    8  C29 UNL     1      48.003 -46.203  63.300  1.00  0.00     0.109 C
HETATM    9  C30 UNL     1      48.384 -44.887  62.739  1.00  0.00     0.237 C
HETATM   10  O2  UNL     1      49.564 -44.637  62.480  1.00  0.00    -0.272 OA
HETATM   11  N8  UNL     1      47.365 -43.947  62.506  1.00  0.00    -0.218 N
HETATM   12  C31 UNL     1      47.527 -42.897  61.576  1.00  0.00     0.192 C
HETATM   13  N9  UNL     1      47.641 -42.055  60.814  1.00  0.00    -0.171 NA
ENDROOT
BRANCH   1  14
HETATM   14  C21 UNL     1      42.344 -44.471  65.128  1.00  0.00     0.054 A
HETATM   15  C12 UNL     1      42.184 -44.981  66.429  1.00  0.00     0.002 A
HETATM   16  C11 UNL     1      43.191 -45.934  67.012  1.00  0.00     0.063 C
HETATM   17  C13 UNL     1      40.904 -44.979  67.000  1.00  0.00     0.089 A
HETATM   18  C10 UNL     1      43.008 -46.401  68.384  1.00  0.00     0.135 C
HETATM   19  N3  UNL     1      41.688 -46.286  68.932  1.00  0.00    -0.333 N
HETATM   20  C2  UNL     1      41.293 -46.715  70.129  1.00  0.00     0.034 A
HETATM   21  C9  UNL     1      40.710 -45.648  68.296  1.00  0.00     0.136 A
HETATM   22  C1  UNL     1      42.184 -47.525  71.049  1.00  0.00     0.070 C
HETATM   23  C3  UNL     1      39.970 -46.332  70.293  1.00  0.00     0.051 A
HETATM   24  N2  UNL     1      39.649 -45.681  69.162  1.00  0.00    -0.341 N
ATOM     25  H2  UNL     1      38.736 -45.265  68.974  1.00  0.00     0.167 HD
HETATM   26  N4  UNL     1      39.831 -44.550  66.292  1.00  0.00    -0.312 N
HETATM   27  C14 UNL     1      39.949 -44.101  65.023  1.00  0.00     0.260 A
ATOM     28  H4  UNL     1      38.910 -44.568  66.730  1.00  0.00     0.170 HD
HETATM   29  N7  UNL     1      41.234 -44.058  64.483  1.00  0.00    -0.315 N
ATOM     30  H7  UNL     1      41.341 -43.691  63.537  1.00  0.00     0.170 HD
BRANCH  23  31
HETATM   31  C4  UNL     1      39.155 -46.688  71.450  1.00  0.00     0.176 C
BRANCH  31  32
HETATM   32  N1  UNL     1      38.916 -45.610  72.390  1.00  0.00    -0.403 N
HETATM   33  C5  UNL     1      39.419 -45.533  73.677  1.00  0.00     0.143 C
HETATM   34  C6  UNL     1      38.373 -44.836  74.560  1.00  0.00     0.187 C
HETATM   35  O1  UNL     1      37.101 -45.409  74.485  1.00  0.00    -0.388 OA
HETATM   36  C7  UNL     1      36.568 -45.496  73.216  1.00  0.00     0.187 C
HETATM   37  C8  UNL     1      37.556 -45.084  72.181  1.00  0.00     0.143 C
ENDBRANCH  31  32
ENDBRANCH  23  31
BRANCH  27  38
HETATM   38  N5  UNL     1      39.036 -44.426  64.202  1.00  0.00    -0.371 NA
BRANCH  38  39
HETATM   39  C15 UNL     1      38.105 -44.767  63.398  1.00  0.00     0.113 A
HETATM   40  C16 UNL     1      38.159 -46.161  62.929  1.00  0.00     0.045 A
HETATM   41  C17 UNL     1      37.239 -46.730  62.140  1.00  0.00     0.005 A
HETATM   42  C18 UNL     1      36.152 -46.027  61.714  1.00  0.00     0.027 A
HETATM   43  C19 UNL     1      36.018 -44.671  62.121  1.00  0.00     0.049 A
HETATM   44  N6  UNL     1      34.815 -44.106  61.666  1.00  0.00    -0.102 NA
HETATM   45  C20 UNL     1      36.994 -44.092  62.940  1.00  0.00     0.071 A
ENDBRANCH  38  39
ENDBRANCH  27  38
ENDBRANCH   1  14
TORSDOF 5
ENDMDL