MODEL 3
REMARK VINA RESULT: -7.960123555      2.509      7.762
REMARK  4 active torsions:
REMARK  status: ('A' for Active; 'I' for Inactive)
REMARK    1  A    between atoms: C2_2  and  C3_3
REMARK    2  A    between atoms: C19_27  and  C20_28
REMARK    3  A    between atoms: C20_28  and  N5_29
REMARK    4  A    between atoms: N8_45  and  C28_46
ROOT
HETATM    1  C3  UNL     1      40.130 -48.083  70.321  1.00  0.00     0.277 C
HETATM    2  C4  UNL     1      40.017 -48.248  68.837  1.00  0.00    -0.021 A
HETATM    3  C5  UNL     1      38.830 -48.588  68.242  1.00  0.00     0.010 A
HETATM    4  C6  UNL     1      38.665 -48.764  66.831  1.00  0.00     0.009 A
HETATM    5  C7  UNL     1      39.716 -48.600  65.974  1.00  0.00    -0.038 A
HETATM    6  C8  UNL     1      40.924 -48.258  66.547  1.00  0.00     0.009 A
HETATM    7  C9  UNL     1      41.058 -48.090  67.947  1.00  0.00     0.010 A
HETATM    8  C10 UNL     1      39.573 -48.783  64.460  1.00  0.00     0.188 C
HETATM    9  N1  UNL     1      39.223 -47.502  63.844  1.00  0.00    -0.283 N
HETATM   10  C11 UNL     1      39.926 -46.389  63.609  1.00  0.00     0.140 A
HETATM   11  C12 UNL     1      39.053 -45.529  63.010  1.00  0.00     0.070 A
HETATM   12  N2  UNL     1      37.814 -46.156  62.893  1.00  0.00    -0.287 N
ATOM     13  H2  UNL     1      36.967 -45.757  62.486  1.00  0.00     0.188 HD
HETATM   14  N3  UNL     1      37.941 -47.337  63.400  1.00  0.00    -0.240 N
ATOM     15  H3  UNL     1      37.202 -48.037  63.458  1.00  0.00     0.208 HD
HETATM   16  C13 UNL     1      39.218 -44.119  62.500  1.00  0.00     0.292 C
HETATM   17  N4  UNL     1      40.089 -43.970  61.383  1.00  0.00    -0.066 N
ATOM     18  H41 UNL     1      39.588 -43.929  60.495  1.00  0.00     0.277 HD
ATOM     19  H42 UNL     1      40.634 -44.811  61.193  1.00  0.00     0.277 HD
HETATM   20  C14 UNL     1      40.934 -42.783  61.617  1.00  0.00     0.271 C
HETATM   21  C15 UNL     1      42.234 -43.128  62.317  1.00  0.00    -0.032 A
HETATM   22  C16 UNL     1      42.294 -43.309  63.661  1.00  0.00     0.009 A
HETATM   23  C17 UNL     1      43.522 -43.628  64.308  1.00  0.00     0.010 A
HETATM   24  C18 UNL     1      44.717 -43.776  63.651  1.00  0.00    -0.025 A
HETATM   25  C19 UNL     1      44.695 -43.604  62.283  1.00  0.00    -0.025 A
HETATM   26  C21 UNL     1      43.434 -43.282  61.664  1.00  0.00     0.018 A
HETATM   27  C22 UNL     1      45.913 -44.109  64.554  1.00  0.00     0.271 C
HETATM   28  N6  UNL     1      46.058 -45.529  64.773  1.00  0.00    -0.069 N
ATOM     29  H61 UNL     1      46.972 -45.886  64.491  1.00  0.00     0.277 HD
ATOM     30  H62 UNL     1      45.496 -46.091  64.134  1.00  0.00     0.277 HD
HETATM   31  C23 UNL     1      45.751 -45.781  66.186  1.00  0.00     0.260 C
HETATM   32  C24 UNL     1      46.895 -46.487  66.881  1.00  0.00     0.221 C
HETATM   33  O1  UNL     1      46.449 -46.961  68.088  1.00  0.00    -0.302 OA
HETATM   34  N7  UNL     1      47.300 -47.793  68.705  1.00  0.00    -0.200 NA
HETATM   35  C25 UNL     1      48.660 -47.348  68.693  1.00  0.00     0.143 C
HETATM   36  C26 UNL     1      46.868 -48.032  70.074  1.00  0.00     0.150 C
HETATM   37  C27 UNL     1      45.394 -48.331  70.165  1.00  0.00     0.289 C
HETATM   38  N8  UNL     1      44.792 -47.545  71.218  1.00  0.00     0.091 N
HETATM   39  C30 UNL     1      43.511 -47.004  70.839  1.00  0.00     0.302 C
HETATM   40  C31 UNL     1      42.353 -47.922  71.061  1.00  0.00     0.303 C
HETATM   41  N9  UNL     1      41.130 -47.273  70.901  1.00  0.00     0.098 N
HETATM   42  C32 UNL     1      41.209 -45.979  70.336  1.00  0.00     0.311 C
ENDROOT
BRANCH  25  43
HETATM   43  C20 UNL     1      45.766 -43.716  61.180  1.00  0.00     0.268 C
BRANCH  43  44
HETATM   44  N5  UNL     1      45.957 -42.471  60.449  1.00  0.00    -0.075 N
ATOM     45  H53 UNL     1      46.416 -41.771  61.034  1.00  0.00     0.274 HD
ATOM     46  H52 UNL     1      46.670 -42.576  59.727  1.00  0.00     0.274 HD
ATOM     47  H51 UNL     1      45.089 -42.106  60.056  1.00  0.00     0.274 HD
ENDBRANCH  43  44
ENDBRANCH  25  43
BRANCH  38  48
HETATM   48  C28 UNL     1      44.876 -48.135  72.499  1.00  0.00     0.268 C
HETATM   49  C29 UNL     1      45.216 -47.162  73.596  1.00  0.00     0.037 C
ENDBRANCH  38  48
BRANCH   1  50
HETATM   50  C2  UNL     1      38.895 -47.503  71.001  1.00  0.00     0.003 C
HETATM   51  C1  UNL     1      38.082 -48.295  71.679  1.00  0.00     0.009 C
ENDBRANCH   1  50
TORSDOF 4
ENDMDL