MODEL 3
REMARK VINA RESULT: -8.620991339      3.420      7.180
REMARK  7 active torsions:
REMARK  status: ('A' for Active; 'I' for Inactive)
REMARK    1  A    between atoms: C2_2  and  C5_5
REMARK    2  A    between atoms: C6_6  and  C7_7
REMARK    3  A    between atoms: C8_10  and  N2_11
REMARK    4  A    between atoms: N4_19  and  C12_20
REMARK    5  A    between atoms: C13_23  and  N6_24
REMARK    6  A    between atoms: C19_33  and  C20_34
REMARK    7  A    between atoms: N9_40  and  C24_42
ROOT
HETATM    1  C12 UNL     1      39.418 -46.339  69.899  1.00  0.00     0.132 A
HETATM    2  N5  UNL     1      38.779 -46.368  71.133  1.00  0.00    -0.176 N
ATOM      3  H5  UNL     1      38.618 -47.270  71.581  1.00  0.00     0.186 HD
HETATM    4  C13 UNL     1      38.369 -45.264  71.750  1.00  0.00     0.681 A
HETATM    5  N7  UNL     1      38.573 -44.061  71.174  1.00  0.00    -0.201 N
ATOM      6  H7  UNL     1      38.259 -43.213  71.646  1.00  0.00     0.183 HD
HETATM    7  C18 UNL     1      39.189 -43.973  69.983  1.00  0.00     0.122 A
HETATM    8  C19 UNL     1      39.625 -45.141  69.326  1.00  0.00     0.035 A
ENDROOT
BRANCH   1   9
HETATM    9  N4  UNL     1      39.747 -47.561  69.290  1.00  0.00    -0.356 N
HETATM   10  C11 UNL     1      39.041 -48.010  68.056  1.00  0.00     0.168 C
HETATM   11  C10 UNL     1      40.223 -48.436  67.256  1.00  0.00     0.021 A
HETATM   12  C7  UNL     1      40.352 -48.484  65.874  1.00  0.00     0.113 A
HETATM   13  C9  UNL     1      41.251 -48.792  68.096  1.00  0.00     0.055 A
HETATM   14  N1  UNL     1      41.548 -48.902  65.424  1.00  0.00    -0.183 N
HETATM   15  C8  UNL     1      42.551 -49.249  66.250  1.00  0.00     0.677 A
ATOM     16  H1  UNL     1      41.701 -48.959  64.417  1.00  0.00     0.185 HD
HETATM   17  N3  UNL     1      42.406 -49.196  67.583  1.00  0.00    -0.193 N
ATOM     18  H3  UNL     1      43.176 -49.465  68.196  1.00  0.00     0.184 HD
HETATM   19  C30 UNL     1      40.700 -48.608  69.493  1.00  0.00     0.183 C
BRANCH  12  20
HETATM   20  C6  UNL     1      39.292 -48.119  64.981  1.00  0.00    -0.047 C
HETATM   21  C5  UNL     1      38.407 -47.823  64.212  1.00  0.00    -0.091 C
BRANCH  21  22
HETATM   22  C2  UNL     1      37.337 -47.480  63.257  1.00  0.00     0.013 C
HETATM   23  C1  UNL     1      35.974 -47.720  63.849  1.00  0.00     0.028 C
HETATM   24  C3  UNL     1      37.416 -45.986  62.906  1.00  0.00     0.028 C
HETATM   25  C4  UNL     1      37.559 -48.240  61.988  1.00  0.00     0.028 C
ENDBRANCH  21  22
ENDBRANCH  12  20
BRANCH  15  26
HETATM   26  N2  UNL     1      43.665 -49.639  65.697  1.00  0.00    -0.234 N
ATOM     27  H22 UNL     1      43.706 -49.925  64.718  1.00  0.00     0.174 HD
ATOM     28  H21 UNL     1      44.497 -49.644  66.286  1.00  0.00     0.174 HD
ENDBRANCH  15  26
ENDBRANCH   1   9
BRANCH   8  29
HETATM   29  C20 UNL     1      40.350 -44.961  68.078  1.00  0.00    -0.016 A
HETATM   30  C21 UNL     1      41.693 -45.264  68.044  1.00  0.00     0.029 A
HETATM   31  C22 UNL     1      42.380 -45.153  66.872  1.00  0.00     0.090 A
HETATM   32  N8  UNL     1      41.746 -44.748  65.743  1.00  0.00    -0.353 N
HETATM   33  C23 UNL     1      40.442 -44.439  65.717  1.00  0.00     0.101 A
ATOM     34  H8  UNL     1      42.283 -44.675  64.879  1.00  0.00     0.166 HD
HETATM   35  N9  UNL     1      39.805 -44.051  64.666  1.00  0.00    -0.371 N
HETATM   36  C29 UNL     1      39.741 -44.553  66.919  1.00  0.00     0.060 A
ATOM     37  H9  UNL     1      38.809 -43.836  64.731  1.00  0.00     0.161 HD
BRANCH  35  38
HETATM   38  C24 UNL     1      40.473 -43.918  63.413  1.00  0.00     0.087 C
HETATM   39  C25 UNL     1      39.517 -43.444  62.317  1.00  0.00     0.051 C
HETATM   40  C26 UNL     1      40.333 -43.369  61.046  1.00  0.00     0.169 C
HETATM   41  O2  UNL     1      41.438 -42.558  61.138  1.00  0.00    -0.391 OA
HETATM   42  C27 UNL     1      42.317 -42.974  62.145  1.00  0.00     0.169 C
HETATM   43  C28 UNL     1      41.593 -42.876  63.454  1.00  0.00     0.051 C
ENDBRANCH  35  38
ENDBRANCH   8  29
BRANCH   4  44
HETATM   44  N6  UNL     1      37.712 -45.268  73.009  1.00  0.00    -0.214 N
HETATM   45  C14 UNL     1      38.512 -45.128  74.203  1.00  0.00     0.167 C
HETATM   46  C15 UNL     1      37.776 -44.167  75.128  1.00  0.00     0.188 C
HETATM   47  O1  UNL     1      36.795 -43.462  74.422  1.00  0.00    -0.388 OA
HETATM   48  C16 UNL     1      35.762 -44.293  74.035  1.00  0.00     0.188 C
HETATM   49  C17 UNL     1      36.282 -45.405  73.154  1.00  0.00     0.167 C
ENDBRANCH   4  44
TORSDOF 7
ENDMDL