MODEL 4
REMARK VINA RESULT: -10.133639211      1.219      1.552
REMARK  4 active torsions:
REMARK  status: ('A' for Active; 'I' for Inactive)
REMARK    1  A    between atoms: C3_3  and  N1_4
REMARK    2  A    between atoms: C10_13  and  N3_14
REMARK       I    between atoms: N3_14  and  C11_16
REMARK    3  A    between atoms: C11_16  and  C12_18
REMARK    4  A    between atoms: N5_26  and  C18_27
ROOT
HETATM    1  C1  UNL     1      42.466 -42.448  63.811  1.00  0.00     0.014 C
HETATM    2  C2  UNL     1      42.110 -43.609  63.772  1.00  0.00    -0.096 C
HETATM    3  C3  UNL     1      41.701 -45.014  63.714  1.00  0.00     0.243 C
ENDROOT
BRANCH   3   4
HETATM    4  N1  UNL     1      40.266 -45.020  63.415  1.00  0.00    -0.264 N
HETATM    5  N2  UNL     1      39.537 -43.958  63.232  1.00  0.00    -0.295 N
HETATM    6  C4  UNL     1      38.239 -44.280  62.970  1.00  0.00     0.062 A
ATOM      7  H2  UNL     1      39.892 -43.003  63.280  1.00  0.00     0.187 HD
HETATM    8  C5  UNL     1      37.109 -43.543  62.714  1.00  0.00     0.032 A
HETATM    9  C9  UNL     1      38.228 -45.677  63.008  1.00  0.00     0.038 A
HETATM   10  C6  UNL     1      35.906 -44.159  62.481  1.00  0.00     0.002 A
HETATM   11  C7  UNL     1      35.872 -45.543  62.513  1.00  0.00     0.001 A
HETATM   12  C8  UNL     1      37.011 -46.271  62.772  1.00  0.00     0.017 A
HETATM   13  C10 UNL     1      39.500 -46.117  63.286  1.00  0.00     0.138 A
BRANCH  13  14
HETATM   14  N3  UNL     1      39.920 -47.289  63.407  1.00  0.00    -0.307 N
HETATM   15  C11 UNL     1      39.326 -48.455  63.862  1.00  0.00     0.257 C
HETATM   16  O1  UNL     1      38.664 -49.179  63.104  1.00  0.00    -0.267 OA
ATOM     17  H3  UNL     1      40.889 -47.411  63.114  1.00  0.00     0.170 HD
BRANCH  15  18
HETATM   18  C12 UNL     1      39.499 -48.828  65.284  1.00  0.00     0.033 A
HETATM   19  C13 UNL     1      39.584 -50.153  65.653  1.00  0.00     0.017 A
HETATM   20  C14 UNL     1      39.744 -50.515  66.973  1.00  0.00     0.002 A
HETATM   21  C15 UNL     1      39.820 -49.513  67.923  1.00  0.00     0.014 A
HETATM   22  C16 UNL     1      39.739 -48.167  67.591  1.00  0.00    -0.006 A
HETATM   23  C17 UNL     1      39.774 -47.217  68.678  1.00  0.00     0.076 A
HETATM   24  C30 UNL     1      39.578 -47.868  66.266  1.00  0.00     0.030 A
HETATM   25  N4  UNL     1      38.915 -47.210  69.757  1.00  0.00    -0.295 N
HETATM   26  C29 UNL     1      40.659 -46.191  68.859  1.00  0.00     0.082 A
HETATM   27  N5  UNL     1      39.207 -46.254  70.586  1.00  0.00    -0.268 N
ATOM     28  H4  UNL     1      38.149 -47.870  69.888  1.00  0.00     0.187 HD
HETATM   29  C26 UNL     1      40.275 -45.601  70.071  1.00  0.00     0.140 A
HETATM   30  N6  UNL     1      40.999 -44.554  70.497  1.00  0.00    -0.337 N
HETATM   31  C27 UNL     1      42.056 -44.060  69.822  1.00  0.00     0.183 A
ATOM     32  H6  UNL     1      40.735 -44.110  71.376  1.00  0.00     0.168 HD
HETATM   33  N7  UNL     1      42.403 -44.651  68.658  1.00  0.00    -0.338 N
HETATM   34  C28 UNL     1      41.737 -45.704  68.153  1.00  0.00     0.116 A
ATOM     35  H7  UNL     1      43.202 -44.284  68.142  1.00  0.00     0.168 HD
HETATM   36  N8  UNL     1      42.139 -46.246  67.042  1.00  0.00    -0.385 N
ATOM     37  H82 UNL     1      42.937 -45.887  66.520  1.00  0.00     0.157 HD
ATOM     38  H81 UNL     1      41.634 -47.045  66.659  1.00  0.00     0.157 HD
BRANCH  27  39
HETATM   39  C18 UNL     1      38.577 -45.873  71.845  1.00  0.00     0.134 C
HETATM   40  C19 UNL     1      37.575 -44.800  71.576  1.00  0.00     0.035 C
HETATM   41  C20 UNL     1      37.436 -43.795  72.693  1.00  0.00     0.073 C
HETATM   42  C21 UNL     1      36.884 -44.533  73.913  1.00  0.00     0.185 C
HETATM   43  C22 UNL     1      38.051 -45.399  74.407  1.00  0.00     0.236 C
HETATM   44  O3  UNL     1      35.782 -45.282  73.590  1.00  0.00    -0.351 OA
HETATM   45  O4  UNL     1      36.521 -43.589  74.842  1.00  0.00    -0.351 OA
HETATM   46  O2  UNL     1      39.258 -44.916  73.966  1.00  0.00    -0.384 OA
HETATM   47  C23 UNL     1      39.671 -45.366  72.739  1.00  0.00     0.195 C
HETATM   48  C24 UNL     1      34.677 -44.709  74.175  1.00  0.00     0.198 C
HETATM   49  C25 UNL     1      35.142 -43.407  74.752  1.00  0.00     0.198 C
ENDBRANCH  27  39
ENDBRANCH  15  18
ENDBRANCH  13  14
ENDBRANCH   3   4
TORSDOF 4
ENDMDL