MODEL 4
REMARK VINA RESULT: -8.700143832      3.401      4.893
REMARK  9 active torsions:
REMARK  status: ('A' for Active; 'I' for Inactive)
REMARK    1  A    between atoms: O1_2  and  C2_3
REMARK    2  A    between atoms: C6_9  and  C7_10
REMARK    3  A    between atoms: C7_10  and  C8_11
REMARK    4  A    between atoms: C8_11  and  C9_12
REMARK    5  A    between atoms: C9_12  and  C10_13
REMARK    6  A    between atoms: C9_12  and  C24_41
REMARK    7  A    between atoms: C12_17  and  C13_18
REMARK    8  A    between atoms: N6_28  and  C17_30
REMARK    9  A    between atoms: C17_30  and  C18_31
ROOT
HETATM    1  C10 UNL     1      39.771 -47.163  65.806  1.00  0.00     0.190 A
HETATM    2  N2  UNL     1      39.422 -48.370  66.448  1.00  0.00    -0.342 N
ATOM      3  H2  UNL     1      39.306 -49.210  65.881  1.00  0.00     0.167 HD
HETATM    4  C11 UNL     1      39.241 -48.456  67.742  1.00  0.00     0.124 A
HETATM    5  C12 UNL     1      39.392 -47.298  68.609  1.00  0.00     0.100 A
HETATM    6  N7  UNL     1      39.744 -46.080  67.960  1.00  0.00    -0.256 N
ATOM      7  H7  UNL     1      39.865 -45.228  68.507  1.00  0.00     0.195 HD
HETATM    8  O2  UNL     1      39.920 -46.051  66.606  1.00  0.00    -0.218 OA
ENDROOT
BRANCH   1   9
HETATM    9  C9  UNL     1      39.954 -47.056  64.521  1.00  0.00     0.081 C
BRANCH   9  10
HETATM   10  C8  UNL     1      41.220 -46.621  64.015  1.00  0.00    -0.055 C
BRANCH  10  11
HETATM   11  C7  UNL     1      42.285 -46.232  63.610  1.00  0.00    -0.043 C
BRANCH  11  12
HETATM   12  C6  UNL     1      43.567 -45.775  63.162  1.00  0.00     0.088 A
HETATM   13  C5  UNL     1      44.722 -46.507  63.207  1.00  0.00     0.041 A
HETATM   14  C4  UNL     1      45.938 -46.039  62.763  1.00  0.00     0.036 A
HETATM   15  C3  UNL     1      45.984 -44.746  62.241  1.00  0.00     0.080 A
HETATM   16  N1  UNL     1      46.962 -43.985  61.728  1.00  0.00    -0.319 N
HETATM   17  C30 UNL     1      44.820 -44.000  62.192  1.00  0.00     0.136 A
HETATM   18  C2  UNL     1      46.470 -42.794  61.360  1.00  0.00     0.225 A
ATOM     19  H1  UNL     1      47.936 -44.270  61.632  1.00  0.00     0.169 HD
HETATM   20  N9  UNL     1      45.147 -42.821  61.653  1.00  0.00    -0.306 N
ATOM     21  H9  UNL     1      44.496 -42.054  61.486  1.00  0.00     0.171 HD
HETATM   22  N8  UNL     1      43.675 -44.519  62.641  1.00  0.00    -0.334 N
ATOM     23  H8  UNL     1      42.834 -43.946  62.591  1.00  0.00     0.168 HD
BRANCH  18  24
HETATM   24  O1  UNL     1      47.142 -41.700  60.780  1.00  0.00    -0.327 OA
HETATM   25  C1  UNL     1      47.741 -40.759  61.635  1.00  0.00     0.213 C
ENDBRANCH  18  24
ENDBRANCH  11  12
ENDBRANCH  10  11
ENDBRANCH   9  10
BRANCH   9  26
HETATM   26  C24 UNL     1      38.878 -47.364  63.581  1.00  0.00    -0.013 A
HETATM   27  C25 UNL     1      37.849 -46.445  63.426  1.00  0.00     0.013 A
HETATM   28  C26 UNL     1      36.788 -46.639  62.579  1.00  0.00     0.001 A
HETATM   29  C27 UNL     1      36.727 -47.799  61.840  1.00  0.00     0.000 A
HETATM   30  C28 UNL     1      37.740 -48.717  61.984  1.00  0.00     0.001 A
HETATM   31  C29 UNL     1      38.802 -48.516  62.836  1.00  0.00     0.013 A
ENDBRANCH   9  26
ENDBRANCH   1   9
BRANCH   5  32
HETATM   32  C13 UNL     1      39.214 -47.346  69.931  1.00  0.00     0.107 A
HETATM   33  N3  UNL     1      38.053 -47.730  70.501  1.00  0.00    -0.295 N
HETATM   34  N4  UNL     1      38.194 -47.670  71.818  1.00  0.00    -0.291 N
ATOM     35  H3  UNL     1      37.210 -48.019  70.003  1.00  0.00     0.187 HD
HETATM   36  C14 UNL     1      39.431 -47.252  72.096  1.00  0.00     0.121 A
ATOM     37  H4  UNL     1      37.477 -47.905  72.505  1.00  0.00     0.187 HD
HETATM   38  C15 UNL     1      40.137 -47.026  70.942  1.00  0.00     0.100 A
HETATM   39  S1  UNL     1      40.584 -46.845  73.413  1.00  0.00    -0.033 SA
HETATM   40  N5  UNL     1      41.313 -46.632  71.039  1.00  0.00    -0.332 N
HETATM   41  C16 UNL     1      41.890 -46.426  72.280  1.00  0.00     0.147 A
ATOM     42  H5  UNL     1      41.858 -46.458  70.195  1.00  0.00     0.168 HD
HETATM   43  N6  UNL     1      43.049 -46.043  72.582  1.00  0.00    -0.366 N
ATOM     44  H6  UNL     1      43.332 -45.936  73.556  1.00  0.00     0.162 HD
BRANCH  43  45
HETATM   45  C17 UNL     1      43.974 -45.757  71.491  1.00  0.00     0.160 C
BRANCH  45  46
HETATM   46  C18 UNL     1      44.786 -46.911  71.126  1.00  0.00    -0.041 A
HETATM   47  C19 UNL     1      45.385 -47.676  72.094  1.00  0.00     0.009 A
HETATM   48  C20 UNL     1      46.159 -48.776  71.777  1.00  0.00     0.001 A
HETATM   49  C21 UNL     1      46.341 -49.121  70.467  1.00  0.00     0.000 A
HETATM   50  C22 UNL     1      45.748 -48.364  69.466  1.00  0.00     0.001 A
HETATM   51  C23 UNL     1      44.966 -47.252  69.810  1.00  0.00     0.009 A
ENDBRANCH  45  46
ENDBRANCH  43  45
ENDBRANCH   5  32
TORSDOF 9
ENDMDL