MODEL 1
REMARK VINA RESULT: -8.864787887      0.000      0.000
REMARK  7 active torsions:
REMARK  status: ('A' for Active; 'I' for Inactive)
REMARK       I    between atoms: C1_2  and  N1_3
REMARK       I    between atoms: C1_2  and  N5_42
REMARK    1  A    between atoms: N1_3  and  C2_5
REMARK    2  A    between atoms: C2_5  and  C3_6
REMARK    3  A    between atoms: C11_17  and  C12_18
REMARK    4  A    between atoms: C13_21  and  C14_22
REMARK    5  A    between atoms: C17_25  and  C18_26
REMARK    6  A    between atoms: C19_27  and  C20_28
REMARK    7  A    between atoms: C20_28  and  O2_29
ROOT
HETATM    1  C3  UNL     1      40.231 -48.354  65.681  1.00  0.00     0.140 C
HETATM    2  C4  UNL     1      39.212 -49.190  65.062  1.00  0.00     0.034 C
HETATM    3  C5  UNL     1      37.912 -48.474  64.748  1.00  0.00     0.014 C
HETATM    4  C6  UNL     1      38.103 -47.697  63.471  1.00  0.00    -0.012 C
HETATM    5  C7  UNL     1      36.982 -46.716  63.224  1.00  0.00     0.039 C
HETATM    6  C8  UNL     1      36.971 -46.581  61.701  1.00  0.00     0.233 C
HETATM    7  N2  UNL     1      37.778 -47.647  61.192  1.00  0.00    -0.074 N
ATOM      8  H21 UNL     1      38.648 -47.317  60.776  1.00  0.00     0.277 HD
ATOM      9  H22 UNL     1      37.380 -48.078  60.357  1.00  0.00     0.277 HD
HETATM   10  C9  UNL     1      37.994 -48.587  62.249  1.00  0.00     0.241 C
HETATM   11  C10 UNL     1      39.447 -47.053  63.489  1.00  0.00     0.051 C
HETATM   12  C11 UNL     1      39.644 -46.291  64.755  1.00  0.00     0.200 C
HETATM   13  O4  UNL     1      39.967 -47.005  65.866  1.00  0.00    -0.371 OA
ENDROOT
BRANCH  12  14
HETATM   14  C12 UNL     1      40.599 -45.190  64.459  1.00  0.00     0.177 A
HETATM   15  N3  UNL     1      41.804 -45.330  63.884  1.00  0.00    -0.321 N
HETATM   16  C13 UNL     1      42.406 -44.136  63.763  1.00  0.00     0.138 A
ATOM     17  H3  UNL     1      42.205 -46.218  63.581  1.00  0.00     0.169 HD
HETATM   18  N4  UNL     1      41.539 -43.251  64.281  1.00  0.00    -0.242 N
HETATM   19  O3  UNL     1      40.469 -43.905  64.689  1.00  0.00    -0.220 OA
ATOM     20  H4  UNL     1      41.683 -42.244  64.347  1.00  0.00     0.196 HD
BRANCH  16  21
HETATM   21  C14 UNL     1      43.722 -43.837  63.197  1.00  0.00     0.010 A
HETATM   22  C15 UNL     1      44.245 -42.563  63.293  1.00  0.00     0.017 A
HETATM   23  C16 UNL     1      45.488 -42.302  62.756  1.00  0.00     0.021 A
HETATM   24  C17 UNL     1      46.236 -43.278  62.117  1.00  0.00     0.017 A
HETATM   25  C26 UNL     1      45.723 -44.552  62.017  1.00  0.00     0.021 A
HETATM   26  C27 UNL     1      44.479 -44.798  62.560  1.00  0.00     0.017 A
BRANCH  24  27
HETATM   27  C18 UNL     1      47.530 -43.014  61.556  1.00  0.00    -0.064 C
HETATM   28  C19 UNL     1      48.623 -42.811  61.074  1.00  0.00    -0.063 C
BRANCH  28  29
HETATM   29  C20 UNL     1      49.957 -42.588  60.475  1.00  0.00     0.121 C
HETATM   30  C21 UNL     1      50.552 -41.286  60.975  1.00  0.00     0.051 C
HETATM   31  C22 UNL     1      50.118 -40.103  60.133  1.00  0.00     0.004 C
HETATM   32  C23 UNL     1      50.704 -40.258  58.752  1.00  0.00     0.000 C
HETATM   33  C24 UNL     1      50.972 -41.713  58.431  1.00  0.00     0.004 C
HETATM   34  C25 UNL     1      49.880 -42.611  58.984  1.00  0.00     0.051 C
BRANCH  29  35
HETATM   35  O2  UNL     1      50.769 -43.609  60.920  1.00  0.00    -0.378 OA
ATOM     36  H2  UNL     1      50.727 -44.298  60.268  1.00  0.00     0.211 HD
ENDBRANCH  29  35
ENDBRANCH  28  29
ENDBRANCH  24  27
ENDBRANCH  16  21
ENDBRANCH  12  14
BRANCH   1  37
HETATM   37  C2  UNL     1      40.849 -48.900  66.917  1.00  0.00     0.156 C
BRANCH  37  38
HETATM   38  N1  UNL     1      40.408 -48.358  68.156  1.00  0.00    -0.341 N
HETATM   39  C1  UNL     1      39.346 -48.691  69.002  1.00  0.00     0.318 C
HETATM   40  O1  UNL     1      38.509 -49.596  68.849  1.00  0.00    -0.247 OA
HETATM   41  N5  UNL     1      39.158 -47.912  70.219  1.00  0.00    -0.330 N
HETATM   42  C28 UNL     1      40.042 -46.826  70.537  1.00  0.00     0.153 C
HETATM   43  C31 UNL     1      38.078 -48.244  71.104  1.00  0.00     0.153 C
HETATM   44  C29 UNL     1      39.562 -46.194  71.823  1.00  0.00     0.187 C
HETATM   45  O5  UNL     1      38.210 -45.901  71.679  1.00  0.00    -0.388 OA
HETATM   46  C30 UNL     1      37.458 -47.056  71.790  1.00  0.00     0.187 C
ATOM     47  H1  UNL     1      40.974 -47.578  68.491  1.00  0.00     0.164 HD
ENDBRANCH  37  38
ENDBRANCH   1  37
TORSDOF 7
ENDMDL