MODEL 1
REMARK VINA RESULT: -8.912653012      0.000      0.000
REMARK  5 active torsions:
REMARK  status: ('A' for Active; 'I' for Inactive)
REMARK    1  A    between atoms: C3_3  and  O1_4
REMARK    2  A    between atoms: C5_7  and  N1_8
REMARK    3  A    between atoms: C10_18  and  C11_19
REMARK    4  A    between atoms: C11_19  and  O5_20
REMARK    5  A    between atoms: O5_20  and  C12_21
ROOT
HETATM    1  C1  UNL     1      42.558 -44.619  69.945  1.00  0.00     0.015 C
HETATM    2  C2  UNL     1      41.866 -45.423  70.539  1.00  0.00    -0.076 C
HETATM    3  C3  UNL     1      41.014 -46.381  71.242  1.00  0.00     0.152 C
HETATM    4  C4  UNL     1      40.871 -47.674  70.514  1.00  0.00     0.108 C
HETATM    5  C5  UNL     1      39.443 -47.693  70.055  1.00  0.00     0.236 C
HETATM    6  O4  UNL     1      38.893 -46.466  70.310  1.00  0.00    -0.355 OA
HETATM    7  C10 UNL     1      39.617 -45.860  71.326  1.00  0.00     0.195 C
ENDROOT
BRANCH   3   8
HETATM    8  O1  UNL     1      41.539 -46.529  72.524  1.00  0.00    -0.375 OA
ATOM      9  H1  UNL     1      41.994 -47.363  72.543  1.00  0.00     0.212 HD
ENDBRANCH   3   8
BRANCH   7  10
HETATM   10  C11 UNL     1      38.942 -46.181  72.644  1.00  0.00     0.207 C
BRANCH  10  11
HETATM   11  O5  UNL     1      39.379 -45.227  73.562  1.00  0.00    -0.359 OA
BRANCH  11  12
HETATM   12  C12 UNL     1      38.331 -44.324  73.752  1.00  0.00     0.259 C
HETATM   13  C13 UNL     1      38.472 -43.243  72.692  1.00  0.00     0.061 C
HETATM   14  C14 UNL     1      37.919 -41.975  73.254  1.00  0.00     0.005 C
HETATM   15  C15 UNL     1      38.493 -40.741  72.552  1.00  0.00     0.000 C
HETATM   16  C16 UNL     1      38.278 -39.574  73.504  1.00  0.00     0.000 C
HETATM   17  C17 UNL     1      38.585 -38.260  72.894  1.00  0.00     0.000 C
HETATM   18  C18 UNL     1      37.473 -37.583  72.194  1.00  0.00     0.000 C
HETATM   19  C19 UNL     1      36.140 -38.225  72.299  1.00  0.00     0.002 C
HETATM   20  C20 UNL     1      35.312 -37.711  73.458  1.00  0.00     0.020 C
HETATM   21  C21 UNL     1      33.876 -37.456  73.041  1.00  0.00     0.122 C
HETATM   22  N3  UNL     1      33.076 -37.410  74.235  1.00  0.00    -0.359 N
HETATM   23  C22 UNL     1      31.944 -38.225  74.478  1.00  0.00     0.241 C
ATOM     24  H3  UNL     1      33.342 -36.742  74.959  1.00  0.00     0.162 HD
HETATM   25  O6  UNL     1      30.991 -37.704  75.134  1.00  0.00    -0.271 OA
HETATM   26  C23 UNL     1      31.833 -39.634  74.004  1.00  0.00     0.270 C
HETATM   27  O7  UNL     1      32.621 -40.497  74.751  1.00  0.00    -0.380 OA
HETATM   28  C24 UNL     1      31.943 -41.700  74.971  1.00  0.00     0.194 C
HETATM   29  C25 UNL     1      32.944 -42.671  75.580  1.00  0.00     0.193 C
HETATM   30  O8  UNL     1      32.732 -43.977  75.117  1.00  0.00    -0.389 OA
HETATM   31  C26 UNL     1      33.900 -44.695  75.403  1.00  0.00     0.169 C
HETATM   32  C27 UNL     1      34.859 -44.566  74.262  1.00  0.00     0.052 C
HETATM   33  C28 UNL     1      36.294 -44.574  74.764  1.00  0.00     0.173 C
HETATM   34  O9  UNL     1      37.094 -44.945  73.685  1.00  0.00    -0.361 OA
ENDBRANCH  11  12
ENDBRANCH  10  11
ENDBRANCH   7  10
BRANCH   5  35
HETATM   35  N1  UNL     1      39.419 -47.911  68.607  1.00  0.00    -0.282 N
HETATM   36  C6  UNL     1      39.896 -47.005  67.737  1.00  0.00     0.104 A
HETATM   37  C7  UNL     1      39.863 -47.230  66.365  1.00  0.00     0.092 A
HETATM   38  C8  UNL     1      39.322 -48.418  65.924  1.00  0.00     0.250 A
HETATM   39  O2  UNL     1      39.280 -48.650  64.675  1.00  0.00    -0.268 OA
HETATM   40  N2  UNL     1      38.858 -49.291  66.829  1.00  0.00    -0.275 N
HETATM   41  C9  UNL     1      38.885 -49.084  68.156  1.00  0.00     0.331 A
ATOM     42  H2  UNL     1      38.459 -50.166  66.489  1.00  0.00     0.173 HD
HETATM   43  O3  UNL     1      38.435 -49.937  68.970  1.00  0.00    -0.246 OA
ENDBRANCH   5  35
TORSDOF 5
ENDMDL