MODEL 3
REMARK VINA RESULT: -8.541262041      1.909      2.641
REMARK  4 active torsions:
REMARK  status: ('A' for Active; 'I' for Inactive)
REMARK    1  A    between atoms: N2_6  and  C5_7
REMARK    2  A    between atoms: C5_7  and  C6_8
REMARK    3  A    between atoms: N3_26  and  C22_27
REMARK       I    between atoms: C24_33  and  N5_34
REMARK    4  A    between atoms: C27_39  and  N7_40
ROOT
HETATM    1  C1  UNL     1      39.214 -47.987  72.094  1.00  0.00     0.315 C
HETATM    2  N1  UNL     1      39.259 -47.508  70.747  1.00  0.00     0.135 N
HETATM    3  C2  UNL     1      38.257 -48.082  69.890  1.00  0.00     0.278 C
HETATM    4  C3  UNL     1      38.947 -49.094  69.001  1.00  0.00     0.060 C
HETATM    5  C4  UNL     1      38.587 -48.896  67.552  1.00  0.00     0.274 C
HETATM    6  N2  UNL     1      39.732 -48.785  66.696  1.00  0.00     0.094 N
HETATM    7  C16 UNL     1      40.520 -49.969  66.593  1.00  0.00     0.299 C
HETATM    8  C17 UNL     1      41.879 -49.653  66.013  1.00  0.00     0.198 C
HETATM    9  O1  UNL     1      42.327 -48.391  66.388  1.00  0.00    -0.387 OA
HETATM   10  C18 UNL     1      43.436 -48.078  65.602  1.00  0.00     0.193 C
HETATM   11  C19 UNL     1      44.656 -47.799  66.477  1.00  0.00     0.193 C
HETATM   12  O2  UNL     1      44.404 -48.156  67.787  1.00  0.00    -0.387 OA
HETATM   13  C20 UNL     1      43.920 -47.058  68.497  1.00  0.00     0.187 C
HETATM   14  C21 UNL     1      43.814 -47.422  69.959  1.00  0.00     0.153 C
HETATM   15  N3  UNL     1      43.037 -46.493  70.723  1.00  0.00    -0.334 N
HETATM   16  C23 UNL     1      41.674 -46.832  71.077  1.00  0.00     0.363 C
HETATM   17  N4  UNL     1      40.775 -45.717  70.920  1.00  0.00    -0.009 N
ATOM     18  H41 UNL     1      41.131 -45.065  70.221  1.00  0.00     0.283 HD
ATOM     19  H42 UNL     1      40.800 -45.117  71.743  1.00  0.00     0.283 HD
HETATM   20  C24 UNL     1      39.412 -46.100  70.611  1.00  0.00     0.532 C
HETATM   21  N5  UNL     1      38.446 -45.320  71.355  1.00  0.00    -0.273 N
HETATM   22  C25 UNL     1      37.286 -45.665  71.911  1.00  0.00     0.189 A
HETATM   23  N6  UNL     1      36.759 -44.561  72.494  1.00  0.00    -0.346 N
ATOM     24  H6  UNL     1      35.873 -44.525  72.997  1.00  0.00     0.167 HD
HETATM   25  C26 UNL     1      37.589 -43.521  72.306  1.00  0.00     0.122 A
HETATM   26  C27 UNL     1      37.586 -42.186  72.658  1.00  0.00     0.131 A
HETATM   27  N8  UNL     1      38.604 -41.375  72.304  1.00  0.00    -0.337 N
ATOM     28  H8  UNL     1      38.581 -40.392  72.576  1.00  0.00     0.168 HD
HETATM   29  C28 UNL     1      39.643 -41.840  71.602  1.00  0.00     0.183 A
HETATM   30  N9  UNL     1      39.654 -43.136  71.256  1.00  0.00    -0.336 N
ATOM     31  H9  UNL     1      40.447 -43.493  70.722  1.00  0.00     0.168 HD
HETATM   32  C29 UNL     1      38.654 -43.992  71.588  1.00  0.00     0.143 A
ENDROOT
BRANCH  15  33
HETATM   33  C22 UNL     1      43.591 -45.261  71.130  1.00  0.00     0.352 C
HETATM   34  O3  UNL     1      43.287 -44.210  70.529  1.00  0.00    -0.283 OA
ENDBRANCH  15  33
BRANCH  26  35
HETATM   35  N7  UNL     1      36.566 -41.758  73.338  1.00  0.00    -0.383 N
ATOM     36  H72 UNL     1      36.607 -40.910  73.902  1.00  0.00     0.157 HD
ATOM     37  H71 UNL     1      35.710 -42.311  73.286  1.00  0.00     0.157 HD
ENDBRANCH  26  35
BRANCH   6  38
HETATM   38  C5  UNL     1      39.403 -48.223  65.423  1.00  0.00     0.311 C
BRANCH  38  39
HETATM   39  C6  UNL     1      39.856 -46.821  65.251  1.00  0.00    -0.029 A
HETATM   40  C7  UNL     1      39.643 -45.867  66.228  1.00  0.00     0.010 A
HETATM   41  C8  UNL     1      40.069 -44.566  66.058  1.00  0.00     0.013 A
HETATM   42  C9  UNL     1      40.729 -44.139  64.911  1.00  0.00    -0.026 A
HETATM   43  C10 UNL     1      41.148 -42.841  64.753  1.00  0.00     0.012 A
HETATM   44  C14 UNL     1      40.938 -45.103  63.936  1.00  0.00    -0.025 A
HETATM   45  C11 UNL     1      41.797 -42.440  63.614  1.00  0.00     0.001 A
HETATM   46  C12 UNL     1      42.014 -43.384  62.635  1.00  0.00     0.001 A
HETATM   47  C13 UNL     1      41.595 -44.691  62.789  1.00  0.00     0.012 A
HETATM   48  C15 UNL     1      40.511 -46.402  64.111  1.00  0.00     0.021 A
ENDBRANCH  38  39
ENDBRANCH   6  38
TORSDOF 4
ENDMDL