MODEL 2
REMARK VINA RESULT: -9.165057939      0.875      2.035
REMARK  6 active torsions:
REMARK  status: ('A' for Active; 'I' for Inactive)
REMARK    1  A    between atoms: C4_5  and  N2_6
REMARK    2  A    between atoms: N2_6  and  C5_8
REMARK    3  A    between atoms: C6_11  and  N4_12
REMARK    4  A    between atoms: N4_12  and  C7_14
REMARK    5  A    between atoms: N6_24  and  C14_25
REMARK    6  A    between atoms: C15_28  and  N8_29
ROOT
HETATM    1  C5  UNL     1      39.581 -47.396  70.768  1.00  0.00     0.718 A
HETATM    2  N3  UNL     1      39.091 -46.766  71.842  1.00  0.00    -0.021 N
ATOM      3  H3  UNL     1      39.762 -46.345  72.484  1.00  0.00     0.203 HD
HETATM    4  C6  UNL     1      37.780 -46.643  72.145  1.00  0.00     0.697 A
HETATM    5  N5  UNL     1      36.901 -47.200  71.298  1.00  0.00    -0.139 N
ATOM      6  H5  UNL     1      35.902 -47.131  71.489  1.00  0.00     0.189 HD
HETATM    7  C13 UNL     1      37.329 -47.852  70.196  1.00  0.00     0.376 A
HETATM    8  O1  UNL     1      36.496 -48.384  69.386  1.00  0.00    -0.244 OA
HETATM    9  N6  UNL     1      38.637 -47.950  69.932  1.00  0.00     0.077 N
ENDROOT
BRANCH   9  10
HETATM   10  C14 UNL     1      39.068 -48.635  68.773  1.00  0.00     0.711 A
HETATM   11  N7  UNL     1      39.263 -48.016  67.608  1.00  0.00    -0.174 N
HETATM   12  C15 UNL     1      39.672 -48.643  66.494  1.00  0.00     0.134 A
ATOM     13  H7  UNL     1      39.092 -47.012  67.560  1.00  0.00     0.186 HD
HETATM   14  C24 UNL     1      39.896 -50.003  66.586  1.00  0.00     0.054 A
HETATM   15  C25 UNL     1      40.304 -50.978  65.709  1.00  0.00     0.036 A
HETATM   16  C27 UNL     1      39.704 -50.683  67.782  1.00  0.00     0.135 A
HETATM   17  C26 UNL     1      40.350 -52.183  66.366  1.00  0.00     0.091 A
HETATM   18  N9  UNL     1      39.980 -51.985  67.634  1.00  0.00    -0.351 N
ATOM     19  H9  UNL     1      39.919 -52.699  68.360  1.00  0.00     0.166 HD
HETATM   20  N10 UNL     1      39.292 -49.955  68.839  1.00  0.00    -0.174 N
ATOM     21  H10 UNL     1      39.143 -50.430  69.730  1.00  0.00     0.186 HD
BRANCH  12  22
HETATM   22  N8  UNL     1      39.883 -47.979  65.278  1.00  0.00    -0.352 N
HETATM   23  C16 UNL     1      38.758 -47.951  64.328  1.00  0.00     0.151 C
HETATM   24  C17 UNL     1      38.740 -46.649  63.594  1.00  0.00     0.187 C
HETATM   25  O2  UNL     1      39.433 -45.643  64.303  1.00  0.00    -0.387 OA
HETATM   26  C18 UNL     1      40.784 -45.958  64.327  1.00  0.00     0.198 C
HETATM   27  C19 UNL     1      41.080 -47.327  64.863  1.00  0.00     0.055 C
HETATM   28  C20 UNL     1      42.183 -47.305  65.895  1.00  0.00     0.033 C
HETATM   29  C23 UNL     1      41.754 -48.167  63.772  1.00  0.00     0.033 C
HETATM   30  C21 UNL     1      43.344 -46.800  65.016  1.00  0.00     0.003 C
HETATM   31  C22 UNL     1      43.110 -47.478  63.671  1.00  0.00     0.003 C
ENDBRANCH  12  22
ENDBRANCH   9  10
BRANCH   1  32
HETATM   32  N2  UNL     1      40.762 -47.556  70.417  1.00  0.00    -0.220 N
ATOM     33  H2  UNL     1      40.948 -48.553  70.301  1.00  0.00     0.178 HD
BRANCH  32  34
HETATM   34  C4  UNL     1      41.909 -46.844  70.129  1.00  0.00     0.102 C
HETATM   35  C3  UNL     1      41.566 -45.644  69.245  1.00  0.00     0.045 C
HETATM   36  C2  UNL     1      42.648 -44.587  69.362  1.00  0.00     0.118 C
HETATM   37  N1  UNL     1      43.955 -45.123  69.580  1.00  0.00    -0.416 N
HETATM   38  C1  UNL     1      44.615 -45.598  68.396  1.00  0.00     0.143 C
HETATM   39  C29 UNL     1      44.106 -45.958  70.728  1.00  0.00     0.118 C
HETATM   40  C28 UNL     1      42.706 -46.270  71.280  1.00  0.00     0.045 C
ENDBRANCH  32  34
ENDBRANCH   1  32
BRANCH   4  41
HETATM   41  N4  UNL     1      37.414 -46.003  73.224  1.00  0.00    -0.221 N
ATOM     42  H4  UNL     1      37.933 -46.194  74.081  1.00  0.00     0.178 HD
BRANCH  41  43
HETATM   43  C7  UNL     1      36.351 -45.061  73.301  1.00  0.00     0.099 C
HETATM   44  C8  UNL     1      35.384 -45.320  74.436  1.00  0.00     0.026 C
HETATM   45  C9  UNL     1      36.068 -45.246  75.784  1.00  0.00     0.002 C
HETATM   46  C10 UNL     1      37.155 -44.194  75.802  1.00  0.00     0.000 C
HETATM   47  C11 UNL     1      36.764 -43.112  74.808  1.00  0.00     0.002 C
HETATM   48  C12 UNL     1      36.979 -43.677  73.432  1.00  0.00     0.026 C
ENDBRANCH  41  43
ENDBRANCH   4  41
TORSDOF 6
ENDMDL