MODEL 2
REMARK VINA RESULT: -8.289995522      3.279      8.019
REMARK  6 active torsions:
REMARK  status: ('A' for Active; 'I' for Inactive)
REMARK    1  A    between atoms: C5_6  and  S1_7
REMARK    2  A    between atoms: C7_12  and  O4_13
REMARK    3  A    between atoms: O4_13  and  N2_14
REMARK    4  A    between atoms: N2_14  and  C8_16
REMARK       I    between atoms: N4_19  and  C9_20
REMARK    5  A    between atoms: C10_23  and  N6_24
REMARK    6  A    between atoms: N7_27  and  N8_28
ROOT
HETATM    1  C8  UNL     1      42.695  34.577  63.215  1.00  0.00     0.753 A
HETATM    2  N3  UNL     1      42.804  35.723  63.935  1.00  0.00    -0.103 N
ATOM      3  H3  UNL     1      43.199  36.598  63.590  1.00  0.00     0.207 HD
HETATM    4  N4  UNL     1      42.325  35.533  65.138  1.00  0.00    -0.018 N
HETATM    5  C9  UNL     1      42.258  36.486  66.190  1.00  0.00     0.369 C
HETATM    6  N5  UNL     1      42.751  37.787  65.952  1.00  0.00    -0.037 NA
HETATM    7  O5  UNL     1      41.766  36.173  67.315  1.00  0.00    -0.248 OA
HETATM    8  C10 UNL     1      41.884  34.245  65.237  1.00  0.00     0.737 A
HETATM    9  N7  UNL     1      42.125  33.684  64.040  1.00  0.00     0.088 N
ENDROOT
BRANCH   1  10
HETATM   10  N2  UNL     1      43.059  34.381  61.995  1.00  0.00    -0.087 N
ATOM     11  H2  UNL     1      43.808  34.931  61.576  1.00  0.00     0.214 HD
BRANCH  10  12
HETATM   12  O4  UNL     1      42.408  33.410  61.276  1.00  0.00    -0.223 OA
BRANCH  12  13
HETATM   13  C7  UNL     1      41.806  33.789  60.066  1.00  0.00     0.107 A
HETATM   14  C2  UNL     1      40.458  34.037  60.027  1.00  0.00    -0.024 A
HETATM   15  C1  UNL     1      39.651  33.900  61.273  1.00  0.00     0.051 C
HETATM   16  C3  UNL     1      39.869  34.409  58.837  1.00  0.00     0.037 A
HETATM   17  C4  UNL     1      40.621  34.538  57.676  1.00  0.00     0.071 A
HETATM   18  N1  UNL     1      40.040  34.920  56.437  1.00  0.00    -0.101 NA
HETATM   19  C5  UNL     1      41.976  34.293  57.698  1.00  0.00     0.107 A
HETATM   20  C6  UNL     1      42.546  33.922  58.897  1.00  0.00     0.068 A
BRANCH  19  21
HETATM   21  S1  UNL     1      42.924  34.455  56.233  1.00  0.00     0.139 S
HETATM   22  O1  UNL     1      42.709  35.802  55.609  1.00  0.00    -0.591 OA
HETATM   23  O2  UNL     1      44.363  34.247  56.616  1.00  0.00    -0.591 OA
HETATM   24  O3  UNL     1      42.467  33.250  55.152  1.00  0.00    -0.591 OA
ENDBRANCH  19  21
ENDBRANCH  12  13
ENDBRANCH  10  12
ENDBRANCH   1  10
BRANCH   9  25
HETATM   25  N8  UNL     1      41.828  32.354  63.694  1.00  0.00    -0.309 N
ATOM     26  H82 UNL     1      42.515  31.610  63.575  1.00  0.00     0.178 HD
ATOM     27  H81 UNL     1      40.887  31.996  63.526  1.00  0.00     0.178 HD
ENDBRANCH   9  25
BRANCH   8  28
HETATM   28  N6  UNL     1      41.353  33.736  66.301  1.00  0.00    -0.230 N
ATOM     29  H62 UNL     1      41.529  33.943  67.283  1.00  0.00     0.174 HD
ATOM     30  H61 UNL     1      40.638  33.010  66.294  1.00  0.00     0.174 HD
ENDBRANCH   8  28
TORSDOF 6
ENDMDL