MODEL 2
REMARK VINA RESULT: -8.141576016      2.102      2.741
REMARK  8 active torsions:
REMARK  status: ('A' for Active; 'I' for Inactive)
REMARK    1  A    between atoms: C2_2  and  N1_3
REMARK    2  A    between atoms: C2_2  and  C8_20
REMARK    3  A    between atoms: N1_3  and  C3_5
REMARK    4  A    between atoms: C5_12  and  N4_13
REMARK    5  A    between atoms: C7_17  and  O3_18
REMARK    6  A    between atoms: C8_20  and  C9_22
REMARK    7  A    between atoms: C9_22  and  N5_23
REMARK    8  A    between atoms: N7_28  and  N8_29
ROOT
HETATM    1  C1  UNL     1      40.714  32.462  61.024  1.00  0.00     0.072 C
HETATM    2  C2  UNL     1      40.639  33.911  61.313  1.00  0.00     0.055 C
ENDROOT
BRANCH   2   3
HETATM    3  N1  UNL     1      40.038  34.376  62.342  1.00  0.00    -0.341 N
ATOM      4  H1  UNL     1      39.034  34.534  62.253  1.00  0.00     0.167 HD
BRANCH   3   5
HETATM    5  C3  UNL     1      40.616  34.688  63.575  1.00  0.00     0.141 A
HETATM    6  N2  UNL     1      40.758  33.755  64.517  1.00  0.00    -0.325 N
HETATM    7  C4  UNL     1      41.312  34.011  65.723  1.00  0.00     0.134 A
ATOM      8  H2  UNL     1      40.435  32.808  64.319  1.00  0.00     0.169 HD
HETATM    9  N3  UNL     1      41.455  33.118  66.641  1.00  0.00    -0.383 N
HETATM   10  C5  UNL     1      41.750  35.284  65.995  1.00  0.00     0.149 A
ATOM     11  H32 UNL     1      41.130  32.173  66.439  1.00  0.00     0.157 HD
ATOM     12  H31 UNL     1      41.873  33.311  67.551  1.00  0.00     0.157 HD
HETATM   13  C6  UNL     1      41.622  36.263  65.059  1.00  0.00     0.080 A
HETATM   14  C7  UNL     1      41.048  35.963  63.831  1.00  0.00     0.112 A
BRANCH  10  15
HETATM   15  N4  UNL     1      42.342  35.627  67.241  1.00  0.00    -0.112 N
HETATM   16  O1  UNL     1      41.681  36.101  68.185  1.00  0.00    -0.532 OA
HETATM   17  O2  UNL     1      43.693  35.427  67.407  1.00  0.00    -0.532 OA
ENDBRANCH  10  15
BRANCH  14  18
HETATM   18  O3  UNL     1      40.919  36.964  62.876  1.00  0.00    -0.357 OA
ATOM     19  H3  UNL     1      41.628  37.157  62.274  1.00  0.00     0.218 HD
ENDBRANCH  14  18
ENDBRANCH   3   5
ENDBRANCH   2   3
BRANCH   2  20
HETATM   20  C8  UNL     1      41.270  34.829  60.394  1.00  0.00     0.191 C
HETATM   21  O4  UNL     1      40.634  35.800  59.868  1.00  0.00    -0.289 OA
BRANCH  20  22
HETATM   22  C9  UNL     1      42.695  34.637  60.052  1.00  0.00     0.253 C
BRANCH  22  23
HETATM   23  N5  UNL     1      42.908  34.353  58.653  1.00  0.00    -0.111 N
HETATM   24  N6  UNL     1      42.774  35.181  57.623  1.00  0.00    -0.232 N
HETATM   25  C10 UNL     1      43.069  34.518  56.479  1.00  0.00     0.375 A
ATOM     26  H6  UNL     1      42.493  36.160  57.684  1.00  0.00     0.192 HD
HETATM   27  O5  UNL     1      43.053  34.976  55.295  1.00  0.00    -0.243 OA
HETATM   28  N7  UNL     1      43.391  33.256  56.809  1.00  0.00    -0.036 N
HETATM   29  C11 UNL     1      43.290  33.164  58.138  1.00  0.00     0.718 A
HETATM   30  N9  UNL     1      43.515  32.112  58.860  1.00  0.00    -0.231 N
ATOM     31  H92 UNL     1      43.438  32.042  59.874  1.00  0.00     0.174 HD
ATOM     32  H91 UNL     1      43.804  31.214  58.471  1.00  0.00     0.174 HD
BRANCH  28  33
HETATM   33  N8  UNL     1      43.767  32.206  55.953  1.00  0.00    -0.320 N
ATOM     34  H82 UNL     1      43.865  32.283  54.941  1.00  0.00     0.178 HD
ATOM     35  H81 UNL     1      43.991  31.243  56.201  1.00  0.00     0.178 HD
ENDBRANCH  28  33
ENDBRANCH  22  23
ENDBRANCH  20  22
ENDBRANCH   2  20
TORSDOF 8
ENDMDL