MODEL 5
REMARK VINA RESULT: -6.553100715      3.038      6.114
REMARK  9 active torsions:
REMARK  status: ('A' for Active; 'I' for Inactive)
REMARK    1  A    between atoms: C2_3  and  N2_4
REMARK    2  A    between atoms: C3_9  and  O1_10
REMARK    3  A    between atoms: O1_10  and  C4_11
REMARK    4  A    between atoms: C5_13  and  N4_14
REMARK    5  A    between atoms: N4_14  and  N5_16
REMARK    6  A    between atoms: C6_22  and  N7_23
REMARK    7  A    between atoms: C6_22  and  C7_27
REMARK    8  A    between atoms: C7_27  and  O4_28
REMARK    9  A    between atoms: O4_28  and  N8_29
ROOT
HETATM    1  C4  UNL     1      44.666  32.609  57.783  1.00  0.00     0.335 C
HETATM    2  O2  UNL     1      44.950  32.358  56.369  1.00  0.00    -0.307 OA
HETATM    3  C5  UNL     1      44.630  31.014  56.231  1.00  0.00     0.392 C
HETATM    4  O3  UNL     1      44.582  30.414  57.459  1.00  0.00    -0.299 OA
HETATM    5  C6  UNL     1      45.268  31.330  58.290  1.00  0.00     0.301 C
ENDROOT
BRANCH   1   6
HETATM    6  O1  UNL     1      43.311  32.572  57.919  1.00  0.00    -0.305 OA
BRANCH   6   7
HETATM    7  C3  UNL     1      42.660  33.737  58.246  1.00  0.00     0.253 C
HETATM    8  N3  UNL     1      41.795  33.486  59.387  1.00  0.00    -0.310 N
HETATM    9  C2  UNL     1      42.551  33.796  60.547  1.00  0.00     0.175 C
ATOM     10  H3  UNL     1      40.832  33.151  59.359  1.00  0.00     0.167 HD
HETATM   11  N1  UNL     1      43.734  34.486  60.198  1.00  0.00    -0.337 N
HETATM   12  C1  UNL     1      44.738  34.917  61.142  1.00  0.00     0.154 C
HETATM   13  C9  UNL     1      43.739  34.669  58.763  1.00  0.00     0.235 C
HETATM   14  S1  UNL     1      43.043  36.308  58.430  1.00  0.00    -0.062 SA
HETATM   15  C8  UNL     1      41.826  35.738  57.204  1.00  0.00     0.139 C
HETATM   16  N9  UNL     1      42.035  34.324  57.156  1.00  0.00    -0.319 N
HETATM   17  N10 UNL     1      41.043  36.434  56.581  1.00  0.00    -0.380 N
ATOM     18  H9  UNL     1      41.736  33.770  56.353  1.00  0.00     0.166 HD
ATOM     19 2H10 UNL     1      40.360  36.114  55.894  1.00  0.00     0.158 HD
ATOM     20 1H10 UNL     1      40.894  37.443  56.615  1.00  0.00     0.158 HD
BRANCH   9  21
HETATM   21  N2  UNL     1      42.174  33.468  61.754  1.00  0.00    -0.371 N
ATOM     22  H22 UNL     1      42.658  33.783  62.595  1.00  0.00     0.159 HD
ATOM     23  H21 UNL     1      41.377  32.881  62.000  1.00  0.00     0.159 HD
ENDBRANCH   9  21
ENDBRANCH   6   7
ENDBRANCH   1   6
BRANCH   5  24
HETATM   24  N7  UNL     1      46.670  31.231  57.920  1.00  0.00    -0.039 N
ATOM     25  H73 UNL     1      46.965  32.022  57.348  1.00  0.00     0.278 HD
ATOM     26  H72 UNL     1      47.282  31.384  58.722  1.00  0.00     0.278 HD
ATOM     27  H71 UNL     1      46.866  30.341  57.461  1.00  0.00     0.278 HD
ENDBRANCH   5  24
BRANCH   5  28
HETATM   28  C7  UNL     1      45.020  31.102  59.730  1.00  0.00     0.274 C
BRANCH  28  29
HETATM   29  O4  UNL     1      44.310  29.938  59.983  1.00  0.00    -0.282 OA
BRANCH  29  30
HETATM   30  N8  UNL     1      42.986  30.207  59.936  1.00  0.00    -0.311 N
ATOM     31  H82 UNL     1      42.548  30.854  59.281  1.00  0.00     0.184 HD
ATOM     32  H81 UNL     1      42.508  29.664  60.655  1.00  0.00     0.184 HD
ENDBRANCH  29  30
ENDBRANCH  28  29
ENDBRANCH   5  28
BRANCH   3  33
HETATM   33  N4  UNL     1      45.517  30.285  55.370  1.00  0.00    -0.271 N
ATOM     34  H4  UNL     1      45.490  29.265  55.343  1.00  0.00     0.187 HD
BRANCH  33  35
HETATM   35  N5  UNL     1      46.312  30.909  54.666  1.00  0.00    -0.250 N
HETATM   36  N6  UNL     1      47.247  31.663  54.385  1.00  0.00    -0.331 N
ATOM     37  H62 UNL     1      47.514  31.914  55.337  1.00  0.00     0.178 HD
ATOM     38  H61 UNL     1      47.904  32.179  53.802  1.00  0.00     0.178 HD
ATOM     39  H5  UNL     1      46.006  30.627  53.735  1.00  0.00     0.207 HD
ENDBRANCH  33  35
ENDBRANCH   3  33
TORSDOF 9
ENDMDL