MODEL 5
REMARK VINA RESULT: -7.431570514      4.478      6.878
REMARK  7 active torsions:
REMARK  status: ('A' for Active; 'I' for Inactive)
REMARK    1  A    between atoms: C2_2  and  O1_3
REMARK    2  A    between atoms: O1_3  and  C3_4
REMARK    3  A    between atoms: C5_8  and  N2_9
REMARK    4  A    between atoms: C11_23  and  C12_24
REMARK    5  A    between atoms: C12_24  and  O2_25
REMARK    6  A    between atoms: C12_24  and  N8_27
REMARK       I    between atoms: N8_27  and  C13_29
REMARK       I    between atoms: C13_29  and  N10_33
REMARK    7  A    between atoms: N10_33  and  N11_35
ROOT
HETATM    1  C3  UNL     1      42.616  33.904  59.575  1.00  0.00     0.174 A
HETATM    2  N1  UNL     1      42.937  32.998  60.561  1.00  0.00    -0.341 N
ATOM      3  H1  UNL     1      43.296  32.073  60.322  1.00  0.00     0.167 HD
HETATM    4  C4  UNL     1      42.767  33.356  61.837  1.00  0.00     0.139 A
HETATM    5  C5  UNL     1      42.283  34.599  62.178  1.00  0.00     0.128 A
HETATM    6  N7  UNL     1      41.989  35.436  61.188  1.00  0.00    -0.334 N
ATOM      7  H7  UNL     1      41.630  36.357  61.438  1.00  0.00     0.168 HD
HETATM    8  C11 UNL     1      42.134  35.148  59.856  1.00  0.00     0.137 A
ENDROOT
BRANCH   8   9
HETATM    9  C12 UNL     1      41.780  36.142  58.860  1.00  0.00     0.186 C
BRANCH   9  10
HETATM   10  O2  UNL     1      42.763  36.907  58.485  1.00  0.00    -0.344 OA
ATOM     11  H2  UNL     1      43.321  36.533  57.813  1.00  0.00     0.219 HD
ENDBRANCH   9  10
BRANCH   9  12
HETATM   12  N8  UNL     1      40.571  36.400  58.254  1.00  0.00    -0.167 N
HETATM   13  C13 UNL     1      40.378  36.116  56.855  1.00  0.00     0.692 C
HETATM   14  N9  UNL     1      39.242  36.361  56.287  1.00  0.00    -0.233 N
HETATM   15  N10 UNL     1      41.393  35.567  56.035  1.00  0.00    -0.139 N
ATOM     16  H92 UNL     1      38.510  36.757  56.877  1.00  0.00     0.174 HD
ATOM     17  H91 UNL     1      39.104  36.159  55.296  1.00  0.00     0.174 HD
ATOM     18  H10 UNL     1      42.156  36.173  55.732  1.00  0.00     0.205 HD
ATOM     19  H8  UNL     1      39.806  36.796  58.800  1.00  0.00     0.186 HD
BRANCH  15  20
HETATM   20  N11 UNL     1      41.396  34.225  55.620  1.00  0.00    -0.331 N
ATOM     21 2H11 UNL     1      40.816  33.570  56.144  1.00  0.00     0.177 HD
ATOM     22 1H11 UNL     1      41.947  33.891  54.829  1.00  0.00     0.177 HD
ENDBRANCH  15  20
ENDBRANCH   9  12
ENDBRANCH   8   9
BRANCH   1  23
HETATM   23  O1  UNL     1      42.798  33.519  58.248  1.00  0.00    -0.334 OA
BRANCH  23  24
HETATM   24  C2  UNL     1      44.084  33.166  57.788  1.00  0.00     0.173 C
HETATM   25  C1  UNL     1      44.757  34.306  57.091  1.00  0.00     0.034 C
ENDBRANCH  23  24
ENDBRANCH   1  23
BRANCH   5  26
HETATM   26  N2  UNL     1      42.123  34.926  63.556  1.00  0.00    -0.279 N
HETATM   27  C6  UNL     1      43.153  35.677  64.217  1.00  0.00     0.200 A
HETATM   28  N3  UNL     1      44.293  36.051  63.430  1.00  0.00    -0.063 NA
HETATM   29  N4  UNL     1      43.071  36.006  65.461  1.00  0.00    -0.304 N
HETATM   30  C7  UNL     1      41.926  35.619  66.221  1.00  0.00     0.192 A
ATOM     31  H4  UNL     1      43.821  36.540  65.901  1.00  0.00     0.171 HD
HETATM   32  N5  UNL     1      41.898  36.013  67.585  1.00  0.00    -0.063 NA
HETATM   33  N6  UNL     1      40.996  34.952  65.660  1.00  0.00    -0.338 N
HETATM   34  C8  UNL     1      40.947  34.516  64.292  1.00  0.00     0.109 A
ATOM     35  H6  UNL     1      40.200  34.700  66.245  1.00  0.00     0.164 HD
HETATM   36  C9  UNL     1      40.797  33.001  64.316  1.00  0.00     0.063 C
HETATM   37  C10 UNL     1      39.693  35.155  63.680  1.00  0.00     0.063 C
ENDBRANCH   5  26
TORSDOF 7
ENDMDL