MODEL 3
REMARK VINA RESULT: -7.699961565      2.202      2.649
REMARK  8 active torsions:
REMARK  status: ('A' for Active; 'I' for Inactive)
REMARK    1  A    between atoms: N1_4  and  C4_5
REMARK    2  A    between atoms: C4_5  and  C5_6
REMARK    3  A    between atoms: C6_9  and  N3_10
REMARK    4  A    between atoms: N5_16  and  N6_18
REMARK    5  A    between atoms: N6_18  and  C8_20
REMARK    6  A    between atoms: C9_25  and  C10_26
REMARK    7  A    between atoms: C10_26  and  N9_27
REMARK    8  A    between atoms: C10_26  and  O1_31
ROOT
HETATM    1  C5  UNL     1      42.196  35.359  65.813  1.00  0.00     0.090 A
HETATM    2  N2  UNL     1      40.993  35.860  65.601  1.00  0.00    -0.188 N
ATOM      3  H2  UNL     1      40.334  35.814  66.379  1.00  0.00     0.184 HD
HETATM    4  C6  UNL     1      40.550  36.421  64.472  1.00  0.00     0.678 A
HETATM    5  N4  UNL     1      41.222  36.587  63.345  1.00  0.00    -0.169 N
ATOM      6  H4  UNL     1      40.727  37.038  62.576  1.00  0.00     0.186 HD
HETATM    7  C7  UNL     1      42.498  36.219  63.113  1.00  0.00     0.180 A
HETATM    8  N5  UNL     1      43.123  36.391  62.020  1.00  0.00    -0.265 N
ATOM      9  H5  UNL     1      44.090  36.074  61.949  1.00  0.00     0.189 HD
HETATM   10  S1  UNL     1      43.246  35.471  64.462  1.00  0.00    -0.036 SA
ENDROOT
BRANCH   8  11
HETATM   11  N6  UNL     1      42.528  36.999  60.914  1.00  0.00    -0.129 N
ATOM     12  H6  UNL     1      42.316  37.997  60.917  1.00  0.00     0.205 HD
BRANCH  11  13
HETATM   13  C8  UNL     1      42.250  36.259  59.878  1.00  0.00     0.713 A
HETATM   14  N7  UNL     1      42.932  35.194  59.425  1.00  0.00    -0.129 N
HETATM   15  N8  UNL     1      42.295  34.750  58.356  1.00  0.00    -0.271 N
ATOM     16  H7  UNL     1      43.783  34.803  59.831  1.00  0.00     0.205 HD
HETATM   17  C9  UNL     1      41.214  35.509  58.110  1.00  0.00     0.169 A
ATOM     18  H8  UNL     1      42.582  33.947  57.798  1.00  0.00     0.189 HD
HETATM   19  N10 UNL     1      41.197  36.449  59.070  1.00  0.00    -0.172 N
ATOM     20  H10 UNL     1      40.499  37.186  59.167  1.00  0.00     0.185 HD
BRANCH  17  21
HETATM   21  C10 UNL     1      40.216  35.355  56.997  1.00  0.00     0.386 C
BRANCH  21  22
HETATM   22  N9  UNL     1      39.597  36.614  56.653  1.00  0.00    -0.046 N
ATOM     23  H93 UNL     1      38.836  36.483  55.986  1.00  0.00     0.277 HD
ATOM     24  H92 UNL     1      39.061  36.990  57.435  1.00  0.00     0.277 HD
ATOM     25  H91 UNL     1      40.278  37.291  56.310  1.00  0.00     0.277 HD
ENDBRANCH  21  22
BRANCH  21  26
HETATM   26  O1  UNL     1      39.230  34.499  57.439  1.00  0.00    -0.364 OA
ATOM     27  H1  UNL     1      39.481  34.197  58.304  1.00  0.00     0.212 HD
ENDBRANCH  21  26
ENDBRANCH  17  21
ENDBRANCH  11  13
ENDBRANCH   8  11
BRANCH   4  28
HETATM   28  N3  UNL     1      39.318  36.842  64.512  1.00  0.00    -0.234 N
ATOM     29  H32 UNL     1      39.156  37.844  64.414  1.00  0.00     0.174 HD
ATOM     30  H31 UNL     1      38.617  36.113  64.640  1.00  0.00     0.174 HD
ENDBRANCH   4  28
BRANCH   1  31
HETATM   31  C4  UNL     1      42.648  34.744  67.085  1.00  0.00     0.215 C
BRANCH  31  32
HETATM   32  N1  UNL     1      41.782  33.711  67.560  1.00  0.00    -0.281 N
HETATM   33  C3  UNL     1      41.360  33.425  68.806  1.00  0.00     0.138 A
HETATM   34  C2  UNL     1      40.530  32.323  68.754  1.00  0.00     0.040 A
HETATM   35  C1  UNL     1      39.879  31.724  69.934  1.00  0.00     0.071 C
HETATM   36  N12 UNL     1      40.472  31.969  67.475  1.00  0.00    -0.289 N
HETATM   37  N11 UNL     1      41.215  32.797  66.787  1.00  0.00    -0.240 N
ATOM     38  H12 UNL     1      39.938  31.186  67.096  1.00  0.00     0.188 HD
ATOM     39  H11 UNL     1      41.343  32.745  65.776  1.00  0.00     0.208 HD
ENDBRANCH  31  32
ENDBRANCH   1  31
TORSDOF 8
ENDMDL