MODEL 2
REMARK VINA RESULT: -7.244182370      0.856      1.187
REMARK  7 active torsions:
REMARK  status: ('A' for Active; 'I' for Inactive)
REMARK    1  A    between atoms: O1_2  and  N1_3
REMARK    2  A    between atoms: C3_6  and  N2_7
REMARK       I    between atoms: N2_7  and  C4_9
REMARK    3  A    between atoms: C4_9  and  O3_11
REMARK    4  A    between atoms: C7_15  and  O5_16
REMARK    5  A    between atoms: C8_18  and  O6_19
REMARK    6  A    between atoms: O6_19  and  C9_20
REMARK    7  A    between atoms: C9_20  and  C10_22
ROOT
HETATM    1  N1  UNL     1      41.071  33.241  61.870  1.00  0.00    -0.268 N
ATOM      2  H1  UNL     1      41.123  33.217  62.889  1.00  0.00     0.194 HD
HETATM    3  C2  UNL     1      41.307  34.353  61.268  1.00  0.00     0.090 C
HETATM    4  C3  UNL     1      41.650  35.608  61.959  1.00  0.00     0.276 C
HETATM    5  O4  UNL     1      42.814  36.082  61.358  1.00  0.00    -0.358 OA
HETATM    6  C6  UNL     1      42.494  36.605  60.136  1.00  0.00     0.205 C
HETATM    7  C7  UNL     1      41.566  35.811  59.305  1.00  0.00     0.177 C
HETATM    8  C8  UNL     1      41.246  34.444  59.785  1.00  0.00     0.212 C
ENDROOT
BRANCH   8   9
HETATM    9  O6  UNL     1      42.007  33.425  59.168  1.00  0.00    -0.327 OA
BRANCH   9  10
HETATM   10  C9  UNL     1      43.223  33.698  58.611  1.00  0.00     0.151 C
HETATM   11  S1  UNL     1      44.522  33.662  59.627  1.00  0.00    -0.054 SA
BRANCH  10  12
HETATM   12  C10 UNL     1      43.467  34.014  57.203  1.00  0.00     0.275 C
HETATM   13  N3  UNL     1      42.939  33.059  56.271  1.00  0.00    -0.098 NA
HETATM   14  N4  UNL     1      42.303  33.857  55.304  1.00  0.00    -0.019 NA
HETATM   15  N5  UNL     1      42.901  35.115  55.387  1.00  0.00    -0.019 NA
HETATM   16  N6  UNL     1      42.970  35.310  56.792  1.00  0.00    -0.098 NA
ENDBRANCH  10  12
ENDBRANCH   9  10
ENDBRANCH   8   9
BRANCH   7  17
HETATM   17  O5  UNL     1      40.372  36.532  59.071  1.00  0.00    -0.390 OA
ATOM     18  H5  UNL     1      40.563  37.450  58.923  1.00  0.00     0.210 HD
ENDBRANCH   7  17
BRANCH   1  19
HETATM   19  O1  UNL     1      40.752  32.085  61.199  1.00  0.00    -0.285 OA
HETATM   20  C1  UNL     1      41.603  30.945  61.381  1.00  0.00     0.237 C
ENDBRANCH   1  19
BRANCH   4  21
HETATM   21  N2  UNL     1      41.731  35.509  63.371  1.00  0.00    -0.305 N
HETATM   22  C4  UNL     1      40.701  36.061  64.187  1.00  0.00     0.362 C
HETATM   23  O2  UNL     1      39.709  36.643  63.681  1.00  0.00    -0.238 OA
ATOM     24  H2  UNL     1      42.528  35.041  63.803  1.00  0.00     0.167 HD
BRANCH  22  25
HETATM   25  O3  UNL     1      40.738  35.988  65.576  1.00  0.00    -0.309 OA
HETATM   26  C5  UNL     1      41.946  36.072  66.311  1.00  0.00     0.215 C
ENDBRANCH  22  25
ENDBRANCH   4  21
TORSDOF 7
ENDMDL