MODEL 5
REMARK VINA RESULT: -6.965592301      4.758      6.753
REMARK  7 active torsions:
REMARK  status: ('A' for Active; 'I' for Inactive)
REMARK    1  A    between atoms: N4_6  and  C2_7
REMARK    2  A    between atoms: C5_10  and  N5_11
REMARK    3  A    between atoms: N5_11  and  O1_12
REMARK    4  A    between atoms: C6_15  and  C7_16
REMARK    5  A    between atoms: C7_16  and  N6_17
REMARK    6  A    between atoms: N6_17  and  N7_18
REMARK    7  A    between atoms: N7_18  and  N8_19
REMARK       I    between atoms: N8_19  and  C8_21
REMARK       I    between atoms: C8_21  and  N9_23
ROOT
HETATM    1  N1  UNL     1      41.965  32.580  62.703  1.00  0.00    -0.079 NA
HETATM    2  C1  UNL     1      41.633  33.716  61.887  1.00  0.00     0.160 A
HETATM    3  N2  UNL     1      41.260  34.936  62.150  1.00  0.00    -0.269 N
ATOM      4  H2  UNL     1      41.139  35.322  63.086  1.00  0.00     0.185 HD
HETATM    5  N3  UNL     1      41.057  35.611  61.005  1.00  0.00    -0.016 NA
HETATM    6  N4  UNL     1      41.310  34.768  59.949  1.00  0.00    -0.241 N
HETATM    7  C6  UNL     1      41.663  33.615  60.495  1.00  0.00     0.126 A
ENDROOT
BRANCH   7   8
HETATM    8  C7  UNL     1      42.168  32.489  59.735  1.00  0.00     0.261 C
BRANCH   8   9
HETATM    9  N6  UNL     1      43.104  32.474  59.018  1.00  0.00    -0.239 NA
BRANCH   9  10
HETATM   10  N7  UNL     1      44.121  32.484  58.242  1.00  0.00    -0.151 NA
BRANCH  10  11
HETATM   11  N8  UNL     1      45.167  32.498  57.450  1.00  0.00    -0.152 N
HETATM   12  C8  UNL     1      45.622  31.968  56.264  1.00  0.00     0.349 C
HETATM   13  O3  UNL     1      44.931  31.195  55.573  1.00  0.00    -0.244 OA
HETATM   14  N9  UNL     1      46.964  32.353  55.834  1.00  0.00    -0.328 N
HETATM   15  C9  UNL     1      47.692  33.277  56.642  1.00  0.00     0.153 C
HETATM   16  C12 UNL     1      47.502  31.787  54.659  1.00  0.00     0.153 C
HETATM   17  C10 UNL     1      48.883  33.893  55.973  1.00  0.00     0.187 C
HETATM   18  O4  UNL     1      48.663  33.908  54.612  1.00  0.00    -0.388 OA
HETATM   19  C11 UNL     1      48.744  32.561  54.201  1.00  0.00     0.187 C
ATOM     20  H8  UNL     1      45.884  33.106  57.848  1.00  0.00     0.210 HD
ENDBRANCH  10  11
ENDBRANCH   9  10
ENDBRANCH   8   9
ENDBRANCH   7   8
BRANCH   6  21
HETATM   21  C2  UNL     1      41.181  35.239  58.637  1.00  0.00     0.245 C
HETATM   22  C3  UNL     1      40.254  34.652  57.647  1.00  0.00     0.059 C
HETATM   23  C4  UNL     1      40.406  35.817  56.601  1.00  0.00     0.056 C
HETATM   24  C5  UNL     1      41.873  36.047  56.766  1.00  0.00     0.244 C
HETATM   25  O2  UNL     1      42.330  35.327  57.872  1.00  0.00    -0.342 OA
BRANCH  24  26
HETATM   26  N5  UNL     1      42.531  35.564  55.549  1.00  0.00    -0.071 NA
BRANCH  26  27
HETATM   27  O1  UNL     1      43.575  34.780  55.888  1.00  0.00    -0.294 OA
ATOM     28  H1  UNL     1      43.262  34.041  56.396  1.00  0.00     0.238 HD
ENDBRANCH  26  27
ENDBRANCH  24  26
ENDBRANCH   6  21
TORSDOF 7
ENDMDL