MODEL 3
REMARK VINA RESULT: -7.274570462      0.841      1.300
REMARK  8 active torsions:
REMARK  status: ('A' for Active; 'I' for Inactive)
REMARK    1  A    between atoms: C2_2  and  O1_4
REMARK    2  A    between atoms: C2_2  and  C4_6
REMARK    3  A    between atoms: C5_11  and  N3_12
REMARK    4  A    between atoms: N3_12  and  N4_13
REMARK    5  A    between atoms: N4_13  and  C6_15
REMARK    6  A    between atoms: C7_18  and  N6_19
REMARK    7  A    between atoms: C12_27  and  N8_28
REMARK    8  A    between atoms: N10_33  and  N11_34
ROOT
HETATM    1  C6  UNL     1      41.703  34.319  56.391  1.00  0.00     0.736 A
HETATM    2  N5  UNL     1      41.730  34.024  57.719  1.00  0.00    -0.019 N
ATOM      3  H5  UNL     1      42.343  33.274  58.040  1.00  0.00     0.203 HD
HETATM    4  C7  UNL     1      40.992  34.673  58.618  1.00  0.00     0.709 A
HETATM    5  N7  UNL     1      40.197  35.663  58.111  1.00  0.00    -0.022 N
ATOM      6  H7  UNL     1      39.610  36.192  58.757  1.00  0.00     0.203 HD
HETATM    7  C12 UNL     1      40.150  35.975  56.811  1.00  0.00     0.705 A
HETATM    8  N9  UNL     1      40.923  35.282  55.941  1.00  0.00    -0.019 N
ATOM      9  H9  UNL     1      40.902  35.503  54.946  1.00  0.00     0.203 HD
ENDROOT
BRANCH   1  10
HETATM   10  N4  UNL     1      42.466  33.649  55.602  1.00  0.00    -0.060 N
ATOM     11  H4  UNL     1      42.420  33.855  54.604  1.00  0.00     0.221 HD
BRANCH  10  12
HETATM   12  N3  UNL     1      43.298  32.720  55.995  1.00  0.00    -0.269 NA
BRANCH  12  13
HETATM   13  C5  UNL     1      44.164  31.754  56.413  1.00  0.00     0.319 A
HETATM   14  N2  UNL     1      44.257  30.465  55.944  1.00  0.00    -0.255 N
HETATM   15  N1  UNL     1      45.169  29.811  56.591  1.00  0.00    -0.281 N
ATOM     16  H2  UNL     1      43.688  30.077  55.191  1.00  0.00     0.191 HD
HETATM   17  C4  UNL     1      45.719  30.627  57.510  1.00  0.00     0.156 A
ATOM     18  H1  UNL     1      45.428  28.838  56.430  1.00  0.00     0.188 HD
HETATM   19  N10 UNL     1      45.112  31.799  57.401  1.00  0.00    -0.200 N
BRANCH  17  20
HETATM   20  C2  UNL     1      46.800  30.265  58.452  1.00  0.00     0.112 C
HETATM   21  C1  UNL     1      46.767  28.832  58.901  1.00  0.00     0.054 C
HETATM   22  C3  UNL     1      48.163  30.650  57.940  1.00  0.00     0.054 C
BRANCH  20  23
HETATM   23  O1  UNL     1      46.617  31.032  59.617  1.00  0.00    -0.383 OA
ATOM     24  H1  UNL     1      47.088  31.843  59.466  1.00  0.00     0.211 HD
ENDBRANCH  20  23
ENDBRANCH  17  20
BRANCH  19  25
HETATM   25  N11 UNL     1      45.342  32.939  58.139  1.00  0.00    -0.333 N
ATOM     26 2H11 UNL     1      45.358  32.929  59.158  1.00  0.00     0.177 HD
ATOM     27 1H11 UNL     1      45.519  33.882  57.792  1.00  0.00     0.177 HD
ENDBRANCH  19  25
ENDBRANCH  12  13
ENDBRANCH  10  12
ENDBRANCH   1  10
BRANCH   4  28
HETATM   28  N6  UNL     1      40.967  34.424  60.008  1.00  0.00    -0.213 N
HETATM   29  C8  UNL     1      42.048  34.948  60.832  1.00  0.00     0.167 C
HETATM   30  C9  UNL     1      42.367  33.914  61.900  1.00  0.00     0.188 C
HETATM   31  O2  UNL     1      41.219  33.632  62.650  1.00  0.00    -0.388 OA
HETATM   32  C10 UNL     1      40.266  33.003  61.899  1.00  0.00     0.188 C
HETATM   33  C11 UNL     1      39.910  33.691  60.617  1.00  0.00     0.167 C
ENDBRANCH   4  28
BRANCH   7  34
HETATM   34  N8  UNL     1      39.397  36.907  56.353  1.00  0.00    -0.234 N
ATOM     35  H82 UNL     1      39.707  37.874  56.449  1.00  0.00     0.174 HD
ATOM     36  H81 UNL     1      38.505  36.716  55.897  1.00  0.00     0.174 HD
ENDBRANCH   7  34
TORSDOF 8
ENDMDL