MODEL 3
REMARK VINA RESULT: -7.501686454      3.170      4.251
REMARK  6 active torsions:
REMARK  status: ('A' for Active; 'I' for Inactive)
REMARK       I    between atoms: N1_2  and  C2_4
REMARK    1  A    between atoms: C2_4  and  C3_6
REMARK    2  A    between atoms: C6_11  and  C7_12
REMARK    3  A    between atoms: C7_12  and  N3_13
REMARK    4  A    between atoms: C7_12  and  C8_17
REMARK    5  A    between atoms: C9_20  and  C10_21
REMARK    6  A    between atoms: C12_32  and  N10_33
ROOT
HETATM    1  C8  UNL     1      41.746  35.214  61.083  1.00  0.00     0.085 A
HETATM    2  N4  UNL     1      42.148  35.316  59.789  1.00  0.00    -0.349 N
ATOM      3  H4  UNL     1      43.085  35.680  59.622  1.00  0.00     0.166 HD
HETATM    4  C9  UNL     1      41.432  34.987  58.727  1.00  0.00     0.121 A
HETATM    5  C11 UNL     1      40.159  34.486  58.955  1.00  0.00     0.148 A
HETATM    6  N8  UNL     1      39.382  34.115  57.838  1.00  0.00    -0.080 NA
HETATM    7  N9  UNL     1      39.708  34.362  60.208  1.00  0.00    -0.328 N
ATOM      8  H9  UNL     1      38.771  33.994  60.370  1.00  0.00     0.168 HD
HETATM    9  C12 UNL     1      40.488  34.723  61.282  1.00  0.00     0.125 A
ENDROOT
BRANCH   1  10
HETATM   10  C7  UNL     1      42.564  35.851  62.187  1.00  0.00     0.242 C
BRANCH  10  11
HETATM   11  C6  UNL     1      43.988  36.033  61.871  1.00  0.00     0.040 C
HETATM   12  C5  UNL     1      45.032  35.134  62.353  1.00  0.00     0.120 C
HETATM   13  N2  UNL     1      46.352  35.735  62.118  1.00  0.00    -0.420 N
HETATM   14  C4  UNL     1      46.460  36.509  60.942  1.00  0.00     0.127 C
ATOM     15  H2  UNL     1      47.135  35.602  62.759  1.00  0.00     0.153 HD
HETATM   16  C3  UNL     1      45.442  37.595  60.749  1.00  0.00     0.095 C
HETATM   17  C13 UNL     1      44.338  37.525  61.790  1.00  0.00     0.024 C
BRANCH  16  18
HETATM   18  C2  UNL     1      46.069  38.910  60.643  1.00  0.00     0.223 C
HETATM   19  N1  UNL     1      46.159  39.763  61.775  1.00  0.00    -0.365 N
HETATM   20  C1  UNL     1      46.766  41.070  61.667  1.00  0.00     0.149 C
ATOM     21  H1  UNL     1      45.791  39.450  62.673  1.00  0.00     0.161 HD
HETATM   22  O1  UNL     1      46.543  39.336  59.558  1.00  0.00    -0.273 OA
ENDBRANCH  16  18
ENDBRANCH  10  11
BRANCH  10  23
HETATM   23  N3  UNL     1      42.039  37.336  61.922  1.00  0.00    -0.069 N
ATOM     24  H33 UNL     1      41.620  37.505  61.008  1.00  0.00     0.275 HD
ATOM     25  H32 UNL     1      41.207  37.615  62.443  1.00  0.00     0.275 HD
ATOM     26  H31 UNL     1      42.891  37.858  62.127  1.00  0.00     0.275 HD
ENDBRANCH  10  23
ENDBRANCH   1  10
BRANCH   9  27
HETATM   27  N10 UNL     1      40.058  34.594  62.451  1.00  0.00    -0.384 N
ATOM     28 2H10 UNL     1      39.353  33.890  62.667  1.00  0.00     0.157 HD
ATOM     29 1H10 UNL     1      40.426  35.195  63.188  1.00  0.00     0.157 HD
ENDBRANCH   9  27
BRANCH   4  30
HETATM   30  C10 UNL     1      41.893  35.270  57.360  1.00  0.00     0.171 A
HETATM   31  N5  UNL     1      42.894  34.750  56.669  1.00  0.00    -0.258 N
HETATM   32  N6  UNL     1      42.853  35.308  55.463  1.00  0.00     0.049 NA
ATOM     33  H5  UNL     1      43.567  34.058  56.998  1.00  0.00     0.186 HD
HETATM   34  O2  UNL     1      41.886  36.142  55.371  1.00  0.00    -0.141 OA
HETATM   35  N7  UNL     1      41.276  36.145  56.515  1.00  0.00    -0.224 N
ATOM     36  H7  UNL     1      40.461  36.713  56.747  1.00  0.00     0.198 HD
ENDBRANCH   4  30
TORSDOF 6
ENDMDL