MODEL 4
REMARK VINA RESULT: -5.819826487      3.390      4.957
REMARK  9 active torsions:
REMARK  status: ('A' for Active; 'I' for Inactive)
REMARK    1  A    between atoms: O1_2  and  C2_3
REMARK    2  A    between atoms: C2_3  and  O2_4
REMARK    3  A    between atoms: C7_14  and  C8_15
REMARK    4  A    between atoms: C8_15  and  O3_16
REMARK    5  A    between atoms: C9_18  and  O4_19
REMARK    6  A    between atoms: C9_18  and  C10_21
REMARK       I    between atoms: C10_21  and  N4_23
REMARK    7  A    between atoms: N4_23  and  C11_25
REMARK    8  A    between atoms: C11_25  and  N5_26
REMARK    9  A    between atoms: C11_25  and  O6_30
ROOT
HETATM    1  C2  UNL     1      42.662  33.308  61.370  1.00  0.00     0.294 C
HETATM    2  N1  UNL     1      43.609  32.759  60.373  1.00  0.00    -0.306 N
ATOM      3  H1  UNL     1      44.336  32.095  60.639  1.00  0.00     0.167 HD
HETATM    4  C4  UNL     1      43.476  33.154  59.159  1.00  0.00     0.192 C
HETATM    5  N2  UNL     1      44.393  32.631  58.155  1.00  0.00    -0.063 NA
HETATM    6  N3  UNL     1      42.513  34.067  58.673  1.00  0.00    -0.331 N
HETATM    7  C5  UNL     1      42.070  34.319  57.300  1.00  0.00     0.200 C
HETATM    8  S1  UNL     1      40.338  34.809  57.577  1.00  0.00    -0.146 SA
HETATM    9  C6  UNL     1      40.363  34.589  59.417  1.00  0.00     0.113 C
HETATM   10  C7  UNL     1      41.828  34.923  59.608  1.00  0.00     0.113 C
HETATM   11  C9  UNL     1      42.360  34.771  60.967  1.00  0.00     0.244 C
ENDROOT
BRANCH  11  12
HETATM   12  O4  UNL     1      43.618  35.409  61.007  1.00  0.00    -0.372 OA
ATOM     13  H4  UNL     1      43.874  35.478  60.094  1.00  0.00     0.211 HD
ENDBRANCH  11  12
BRANCH  11  14
HETATM   14  C10 UNL     1      41.538  35.360  62.029  1.00  0.00     0.266 C
HETATM   15  O5  UNL     1      41.625  36.571  62.369  1.00  0.00    -0.270 OA
HETATM   16  N4  UNL     1      40.562  34.588  62.764  1.00  0.00    -0.310 N
ATOM     17  H4  UNL     1      40.451  33.601  62.529  1.00  0.00     0.166 HD
BRANCH  16  18
HETATM   18  C11 UNL     1      39.744  35.134  63.803  1.00  0.00     0.426 C
BRANCH  18  19
HETATM   19  N5  UNL     1      40.512  35.581  64.949  1.00  0.00    -0.035 N
ATOM     20  H53 UNL     1      40.045  35.332  65.821  1.00  0.00     0.279 HD
ATOM     21  H52 UNL     1      41.365  35.031  65.054  1.00  0.00     0.279 HD
ATOM     22  H51 UNL     1      40.722  36.579  64.920  1.00  0.00     0.279 HD
ENDBRANCH  18  19
BRANCH  18  23
HETATM   23  O6  UNL     1      39.005  36.249  63.362  1.00  0.00    -0.355 OA
ATOM     24  H6  UNL     1      39.329  37.061  63.735  1.00  0.00     0.213 HD
ENDBRANCH  18  23
ENDBRANCH  16  18
ENDBRANCH  11  14
BRANCH   1  25
HETATM   25  O1  UNL     1      43.257  33.404  62.574  1.00  0.00    -0.340 OA
HETATM   26  C1  UNL     1      44.217  32.639  63.060  1.00  0.00     0.207 C
ENDBRANCH   1  25
BRANCH   1  27
HETATM   27  O2  UNL     1      41.486  32.668  61.326  1.00  0.00    -0.340 OA
HETATM   28  C3  UNL     1      41.310  31.349  61.247  1.00  0.00     0.207 C
ENDBRANCH   1  27
BRANCH  10  29
HETATM   29  C8  UNL     1      41.963  36.388  59.228  1.00  0.00     0.200 C
BRANCH  29  30
HETATM   30  O3  UNL     1      40.845  37.071  59.694  1.00  0.00    -0.398 OA
ATOM     31  H3  UNL     1      40.180  36.437  59.935  1.00  0.00     0.209 HD
ENDBRANCH  29  30
ENDBRANCH  10  29
TORSDOF 9
ENDMDL