MODEL 4
REMARK VINA RESULT: -7.696776620      6.934     10.403
REMARK  13 active torsions:
REMARK  status: ('A' for Active; 'I' for Inactive)
REMARK    1  A    between atoms: C2_2  and  O1_3
REMARK    2  A    between atoms: O1_3  and  S1_4
REMARK    3  A    between atoms: S1_4  and  N1_7
REMARK       I    between atoms: N1_7  and  C3_9
REMARK    4  A    between atoms: C3_9  and  O5_11
REMARK    5  A    between atoms: O5_11  and  N2_12
REMARK    6  A    between atoms: N2_12  and  C4_14
REMARK    7  A    between atoms: C6_17  and  N3_18
REMARK    8  A    between atoms: C10_28  and  C11_29
REMARK    9  A    between atoms: C11_29  and  N7_34
REMARK   10  A    between atoms: N6_30  and  O6_32
REMARK   11  A    between atoms: N7_34  and  C12_36
REMARK   12  A    between atoms: C12_36  and  C13_37
REMARK   13  A    between atoms: C13_37  and  S3_38
ROOT
HETATM    1  C4  UNL     1      78.443 -11.461   6.272  1.00  0.00     0.113 A
HETATM    2  S2  UNL     1      80.034 -10.830   6.373  1.00  0.00    -0.064 SA
HETATM    3  C5  UNL     1      80.529 -11.086   4.769  1.00  0.00     0.078 A
HETATM    4  C6  UNL     1      81.714 -10.821   4.071  1.00  0.00     0.119 A
HETATM    5  N4  UNL     1      81.831 -11.127   2.769  1.00  0.00    -0.332 N
ATOM      6  H4  UNL     1      82.683 -10.943   2.241  1.00  0.00     0.168 HD
HETATM    7  C7  UNL     1      80.746 -11.694   2.207  1.00  0.00     0.079 A
HETATM    8  C8  UNL     1      80.831 -12.055   0.740  1.00  0.00     0.089 C
HETATM    9  N5  UNL     1      79.614 -11.953   2.853  1.00  0.00    -0.344 N
ATOM     10  H5  UNL     1      78.845 -12.384   2.341  1.00  0.00     0.167 HD
HETATM   11  C9  UNL     1      79.440 -11.662   4.184  1.00  0.00     0.071 A
HETATM   12  C10 UNL     1      78.353 -11.855   4.974  1.00  0.00     0.073 A
ENDROOT
BRANCH   1  13
HETATM   13  N2  UNL     1      77.491 -11.522   7.342  1.00  0.00    -0.248 N
ATOM     14  H2  UNL     1      77.323 -12.392   7.849  1.00  0.00     0.195 HD
BRANCH  13  15
HETATM   15  O5  UNL     1      76.811 -10.371   7.665  1.00  0.00    -0.179 OA
BRANCH  15  16
HETATM   16  C3  UNL     1      75.453 -10.353   7.450  1.00  0.00     0.397 C
HETATM   17  N1  UNL     1      74.594  -9.811   8.434  1.00  0.00    -0.205 N
ATOM     18  H1  UNL     1      75.014  -9.446   9.289  1.00  0.00     0.186 HD
HETATM   19  O4  UNL     1      74.945 -10.808   6.397  1.00  0.00    -0.235 OA
BRANCH  17  20
HETATM   20  S1  UNL     1      72.874  -9.733   8.272  1.00  0.00     0.366 S
HETATM   21  O2  UNL     1      72.554  -8.858   7.080  1.00  0.00    -0.175 OA
HETATM   22  O3  UNL     1      72.300 -11.094   7.985  1.00  0.00    -0.175 OA
BRANCH  20  23
HETATM   23  O1  UNL     1      72.143  -9.172   9.664  1.00  0.00    -0.260 OA
BRANCH  23  24
HETATM   24  C2  UNL     1      72.861  -9.470  10.822  1.00  0.00     0.187 C
HETATM   25  C1  UNL     1      72.564  -8.423  11.870  1.00  0.00     0.035 C
ENDBRANCH  23  24
ENDBRANCH  20  23
ENDBRANCH  17  20
ENDBRANCH  15  16
ENDBRANCH  13  15
ENDBRANCH   1  13
BRANCH  12  26
HETATM   26  C11 UNL     1      77.082 -12.447   4.474  1.00  0.00     0.136 C
HETATM   27  N6  UNL     1      76.234 -11.647   4.003  1.00  0.00    -0.252 N
ATOM     28  H6  UNL     1      76.541 -10.674   4.025  1.00  0.00     0.196 HD
BRANCH  27  29
HETATM   29  O6  UNL     1      75.020 -11.806   3.480  1.00  0.00    -0.288 OA
ATOM     30  H6  UNL     1      74.273 -11.228   3.379  1.00  0.00     0.244 HD
ENDBRANCH  27  29
BRANCH  26  31
HETATM   31  N7  UNL     1      76.849 -13.832   4.565  1.00  0.00    -0.373 N
ATOM     32  H7  UNL     1      76.186 -14.138   5.277  1.00  0.00     0.161 HD
BRANCH  31  33
HETATM   33  C12 UNL     1      77.448 -14.861   3.759  1.00  0.00     0.139 C
BRANCH  33  34
HETATM   34  C13 UNL     1      77.135 -14.815   2.302  1.00  0.00     0.184 C
BRANCH  34  35
HETATM   35  S3  UNL     1      75.399 -15.177   2.007  1.00  0.00     0.103 S
HETATM   36  O7  UNL     1      74.545 -14.753   3.165  1.00  0.00    -0.595 OA
HETATM   37  O8  UNL     1      75.216 -16.647   1.785  1.00  0.00    -0.595 OA
HETATM   38  O9  UNL     1      74.918 -14.391   0.590  1.00  0.00    -0.595 OA
ENDBRANCH  34  35
ENDBRANCH  33  34
ENDBRANCH  31  33
ENDBRANCH  26  31
ENDBRANCH  12  26
BRANCH   4  39
HETATM   39  N3  UNL     1      82.675 -10.278   4.724  1.00  0.00    -0.384 N
ATOM     40  H32 UNL     1      82.508  -9.733   5.570  1.00  0.00     0.157 HD
ATOM     41  H31 UNL     1      83.621 -10.411   4.365  1.00  0.00     0.157 HD
ENDBRANCH   4  39
TORSDOF 13
ENDMDL