MODEL 4
REMARK VINA RESULT: -8.885084904      2.057      3.280
REMARK  11 active torsions:
REMARK  status: ('A' for Active; 'I' for Inactive)
REMARK    1  A    between atoms: N1_2  and  C2_3
REMARK    2  A    between atoms: N1_2  and  C4_7
REMARK    3  A    between atoms: C2_3  and  C3_4
REMARK    4  A    between atoms: C3_4  and  O1_5
REMARK    5  A    between atoms: C5_10  and  N3_11
REMARK    6  A    between atoms: C8_17  and  C9_18
REMARK    7  A    between atoms: C9_18  and  O2_19
REMARK    8  A    between atoms: O2_19  and  C10_20
REMARK    9  A    between atoms: C12_22  and  N5_23
REMARK   10  A    between atoms: N7_31  and  N8_33
REMARK       I    between atoms: N9_36  and  C16_37
REMARK   11  A    between atoms: C17_42  and  N12_43
ROOT
HETATM    1  C4  UNL     1      74.765 -14.137   1.318  1.00  0.00     0.681 A
HETATM    2  N2  UNL     1      75.712 -14.489   2.259  1.00  0.00    -0.175 N
ATOM      3  H2  UNL     1      76.319 -15.293   2.106  1.00  0.00     0.186 HD
HETATM    4  C5  UNL     1      75.819 -13.751   3.389  1.00  0.00     0.137 A
HETATM    5  C6  UNL     1      75.011 -12.685   3.594  1.00  0.00     0.114 A
HETATM    6  C7  UNL     1      75.174 -11.895   4.775  1.00  0.00     0.105 C
HETATM    7  N4  UNL     1      75.336 -11.239   5.737  1.00  0.00    -0.191 NA
HETATM    8  C8  UNL     1      74.043 -12.340   2.610  1.00  0.00     0.075 A
HETATM    9  N13 UNL     1      73.968 -13.080   1.517  1.00  0.00    -0.192 N
ATOM     10  H13 UNL     1      73.281 -12.839   0.803  1.00  0.00     0.184 HD
ENDROOT
BRANCH   4  11
HETATM   11  N3  UNL     1      76.763 -14.113   4.215  1.00  0.00    -0.384 N
ATOM     12  H32 UNL     1      77.747 -14.179   3.955  1.00  0.00     0.157 HD
ATOM     13  H31 UNL     1      76.456 -14.366   5.154  1.00  0.00     0.157 HD
ENDBRANCH   4  11
BRANCH   8  14
HETATM   14  C9  UNL     1      73.113 -11.266   3.030  1.00  0.00     0.235 C
BRANCH  14  15
HETATM   15  O2  UNL     1      71.962 -11.665   3.646  1.00  0.00    -0.343 OA
BRANCH  15  16
HETATM   16  C10 UNL     1      71.223 -12.811   3.595  1.00  0.00     0.107 A
HETATM   17  C11 UNL     1      70.607 -13.296   2.491  1.00  0.00     0.077 A
HETATM   18  C12 UNL     1      69.871 -14.493   2.433  1.00  0.00     0.135 A
HETATM   19  C13 UNL     1      69.781 -15.243   3.593  1.00  0.00     0.122 A
HETATM   20  C14 UNL     1      70.406 -14.762   4.762  1.00  0.00     0.115 A
HETATM   21  N9  UNL     1      69.331 -16.461   3.895  1.00  0.00    -0.113 N
HETATM   22  N6  UNL     1      70.300 -15.711   5.746  1.00  0.00    -0.185 N
HETATM   23  C17 UNL     1      71.094 -13.587   4.769  1.00  0.00     0.165 A
HETATM   24  C15 UNL     1      69.660 -16.721   5.212  1.00  0.00     0.706 A
ATOM     25  H6  UNL     1      70.649 -15.644   6.702  1.00  0.00     0.184 HD
HETATM   26  N7  UNL     1      69.434 -17.902   5.759  1.00  0.00    -0.138 N
ATOM     27  H7  UNL     1      68.916 -18.629   5.267  1.00  0.00     0.205 HD
HETATM   28  C16 UNL     1      68.703 -17.443   3.086  1.00  0.00     0.208 C
HETATM   29  N10 UNL     1      67.514 -17.789   3.212  1.00  0.00    -0.373 N
HETATM   30  N11 UNL     1      69.517 -18.157   2.099  1.00  0.00    -0.063 NA
ATOM     31 2H10 UNL     1      66.947 -17.292   3.899  1.00  0.00     0.158 HD
ATOM     32 1H10 UNL     1      67.062 -18.494   2.630  1.00  0.00     0.158 HD
BRANCH  18  33
HETATM   33  N5  UNL     1      69.249 -14.831   1.245  1.00  0.00    -0.113 N
HETATM   34  O3  UNL     1      70.076 -15.176   0.304  1.00  0.00    -0.532 OA
HETATM   35  O4  UNL     1      67.971 -14.889   0.887  1.00  0.00    -0.532 OA
ENDBRANCH  18  33
BRANCH  26  36
HETATM   36  N8  UNL     1      69.945 -18.106   7.055  1.00  0.00    -0.331 N
ATOM     37  H82 UNL     1      70.284 -19.024   7.342  1.00  0.00     0.177 HD
ATOM     38  H81 UNL     1      69.956 -17.298   7.677  1.00  0.00     0.177 HD
ENDBRANCH  26  36
BRANCH  23  39
HETATM   39  N12 UNL     1      71.661 -13.097   5.966  1.00  0.00    -0.110 N
HETATM   40  O5  UNL     1      72.733 -13.561   6.374  1.00  0.00    -0.532 OA
HETATM   41  O6  UNL     1      71.014 -12.109   6.710  1.00  0.00    -0.532 OA
ENDBRANCH  23  39
ENDBRANCH  15  16
ENDBRANCH  14  15
ENDBRANCH   8  14
BRANCH   1  42
HETATM   42  N1  UNL     1      74.670 -14.994   0.202  1.00  0.00    -0.220 N
HETATM   43  C1  UNL     1      73.735 -14.610  -0.823  1.00  0.00     0.168 C
BRANCH  42  44
HETATM   44  C2  UNL     1      75.541 -16.133   0.128  1.00  0.00     0.166 C
BRANCH  44  45
HETATM   45  C3  UNL     1      76.021 -16.541  -1.230  1.00  0.00     0.184 C
BRANCH  45  46
HETATM   46  O1  UNL     1      77.348 -16.175  -1.384  1.00  0.00    -0.399 OA
ATOM     47  H1  UNL     1      77.493 -15.862  -2.268  1.00  0.00     0.209 HD
ENDBRANCH  45  46
ENDBRANCH  44  45
ENDBRANCH  42  44
ENDBRANCH   1  42
TORSDOF 11
ENDMDL