MODEL 3
REMARK VINA RESULT: -9.319243458      2.585      5.724
REMARK  12 active torsions:
REMARK  status: ('A' for Active; 'I' for Inactive)
REMARK    1  A    between atoms: C4_8  and  C5_9
REMARK    2  A    between atoms: C5_9  and  O1_10
REMARK    3  A    between atoms: C5_9  and  N2_12
REMARK    4  A    between atoms: N2_12  and  C6_14
REMARK    5  A    between atoms: C9_17  and  C10_18
REMARK    6  A    between atoms: C13_27  and  C14_28
REMARK    7  A    between atoms: C14_28  and  N7_29
REMARK    8  A    between atoms: C14_28  and  C15_33
REMARK    9  A    between atoms: C15_33  and  C16_35
REMARK       I    between atoms: C16_35  and  N8_37
REMARK   10  A    between atoms: C18_39  and  C19_40
REMARK   11  A    between atoms: C19_40  and  N9_41
REMARK   12  A    between atoms: C19_40  and  N10_45
ROOT
HETATM    1  N1  UNL     1      81.642 -10.707   4.927  1.00  0.00    -0.385 N
ATOM      2  H11 UNL     1      81.986 -11.072   4.038  1.00  0.00     0.157 HD
ATOM      3  H12 UNL     1      82.219 -10.074   5.480  1.00  0.00     0.157 HD
HETATM    4  C1  UNL     1      80.464 -11.018   5.408  1.00  0.00     0.100 A
HETATM    5  C2  UNL     1      80.001 -10.527   6.602  1.00  0.00     0.068 A
HETATM    6  C3  UNL     1      78.760 -10.900   7.038  1.00  0.00     0.032 A
HETATM    7  S1  UNL     1      78.075 -10.309   8.584  1.00  0.00    -0.051 SA
HETATM    8  C4  UNL     1      77.939 -11.783   6.282  1.00  0.00     0.058 A
HETATM    9  C13 UNL     1      78.459 -12.221   5.119  1.00  0.00     0.065 A
HETATM   10  N13 UNL     1      79.706 -11.848   4.682  1.00  0.00    -0.343 N
ATOM     11  H13 UNL     1      80.058 -12.209   3.795  1.00  0.00     0.167 HD
ENDROOT
BRANCH   9  12
HETATM   12  C14 UNL     1      77.708 -13.091   4.183  1.00  0.00     0.313 C
BRANCH  12  13
HETATM   13  N7  UNL     1      78.265 -14.403   4.255  1.00  0.00    -0.062 N
ATOM     14  H73 UNL     1      79.215 -14.449   3.885  1.00  0.00     0.275 HD
ATOM     15  H72 UNL     1      78.476 -14.690   5.211  1.00  0.00     0.275 HD
ATOM     16  H71 UNL     1      77.627 -15.044   3.783  1.00  0.00     0.275 HD
ENDBRANCH  12  13
BRANCH  12  17
HETATM   17  C15 UNL     1      77.995 -12.490   2.810  1.00  0.00     0.255 C
HETATM   18  O2  UNL     1      77.542 -11.317   2.687  1.00  0.00    -0.284 OA
BRANCH  17  19
HETATM   19  C16 UNL     1      78.709 -13.205   1.778  1.00  0.00     0.315 C
HETATM   20  O3  UNL     1      79.923 -12.929   1.582  1.00  0.00    -0.262 OA
HETATM   21  N8  UNL     1      78.123 -14.205   0.968  1.00  0.00    -0.212 N
HETATM   22  C17 UNL     1      76.869 -14.683   0.969  1.00  0.00     0.152 A
HETATM   23  N12 UNL     1      78.772 -14.865   0.019  1.00  0.00    -0.233 N
HETATM   24  C18 UNL     1      76.754 -15.664  -0.008  1.00  0.00     0.102 A
HETATM   25  N11 UNL     1      77.974 -15.728  -0.563  1.00  0.00    -0.285 N
ATOM     26  H11 UNL     1      78.241 -16.353  -1.323  1.00  0.00     0.188 HD
ATOM     27  H12 UNL     1      79.753 -14.723  -0.223  1.00  0.00     0.209 HD
BRANCH  24  28
HETATM   28  C19 UNL     1      75.602 -16.481  -0.403  1.00  0.00     0.430 C
BRANCH  28  29
HETATM   29  N9  UNL     1      74.349 -15.914   0.062  1.00  0.00    -0.045 N
ATOM     30  H93 UNL     1      74.393 -14.895   0.095  1.00  0.00     0.277 HD
ATOM     31  H92 UNL     1      73.613 -16.021  -0.635  1.00  0.00     0.277 HD
ATOM     32  H91 UNL     1      74.067 -16.301   0.963  1.00  0.00     0.277 HD
ENDBRANCH  28  29
BRANCH  28  33
HETATM   33  N10 UNL     1      75.489 -16.609  -1.854  1.00  0.00    -0.045 N
ATOM     34 3H10 UNL     1      75.335 -15.702  -2.293  1.00  0.00     0.277 HD
ATOM     35 2H10 UNL     1      76.388 -16.842  -2.275  1.00  0.00     0.277 HD
ATOM     36 1H10 UNL     1      74.769 -17.279  -2.126  1.00  0.00     0.277 HD
ENDBRANCH  28  33
ENDBRANCH  24  28
ENDBRANCH  17  19
ENDBRANCH  12  17
ENDBRANCH   9  12
BRANCH   8  37
HETATM   37  C5  UNL     1      76.628 -12.107   6.780  1.00  0.00     0.154 C
BRANCH  37  38
HETATM   38  O1  UNL     1      76.639 -13.135   7.586  1.00  0.00    -0.345 OA
ATOM     39  H1  UNL     1      76.238 -12.943   8.426  1.00  0.00     0.219 HD
ENDBRANCH  37  38
BRANCH  37  40
HETATM   40  N2  UNL     1      75.386 -11.549   6.561  1.00  0.00    -0.336 N
ATOM     41  H2  UNL     1      75.272 -10.544   6.691  1.00  0.00     0.168 HD
BRANCH  40  42
HETATM   42  C6  UNL     1      74.257 -12.316   6.162  1.00  0.00     0.034 A
HETATM   43  C7  UNL     1      73.018 -12.127   6.690  1.00  0.00     0.030 A
HETATM   44  C8  UNL     1      71.938 -12.934   6.284  1.00  0.00     0.017 A
HETATM   45  C9  UNL     1      72.091 -13.931   5.351  1.00  0.00     0.010 A
HETATM   46  C11 UNL     1      73.340 -14.131   4.810  1.00  0.00     0.017 A
HETATM   47  C12 UNL     1      74.378 -13.331   5.221  1.00  0.00     0.030 A
BRANCH  45  48
HETATM   48  C10 UNL     1      70.936 -14.743   4.963  1.00  0.00     0.141 A
HETATM   49  N3  UNL     1      70.756 -15.241   3.737  1.00  0.00    -0.270 N
HETATM   50  N4  UNL     1      69.613 -15.932   3.707  1.00  0.00    -0.007 NA
ATOM     51  H3  UNL     1      71.390 -15.113   2.948  1.00  0.00     0.185 HD
HETATM   52  N5  UNL     1      69.099 -15.850   4.929  1.00  0.00    -0.007 NA
HETATM   53  N6  UNL     1      69.894 -15.129   5.702  1.00  0.00    -0.270 N
ATOM     54  H6  UNL     1      69.739 -14.908   6.686  1.00  0.00     0.185 HD
ENDBRANCH  45  48
ENDBRANCH  40  42
ENDBRANCH  37  40
ENDBRANCH   8  37
TORSDOF 12
ENDMDL