MODEL 2
REMARK VINA RESULT: -9.228186032      5.569      9.524
REMARK  12 active torsions:
REMARK  status: ('A' for Active; 'I' for Inactive)
REMARK    1  A    between atoms: C2_7  and  N3_8
REMARK    2  A    between atoms: N3_8  and  O1_10
REMARK    3  A    between atoms: N4_12  and  C3_13
REMARK    4  A    between atoms: C9_19  and  N5_20
REMARK    5  A    between atoms: N5_20  and  O2_21
REMARK    6  A    between atoms: O2_21  and  C10_22
REMARK    7  A    between atoms: C10_22  and  C11_23
REMARK       I    between atoms: C11_23  and  N6_25
REMARK    8  A    between atoms: N6_25  and  N7_27
REMARK    9  A    between atoms: C12_29  and  C13_30
REMARK   10  A    between atoms: C15_32  and  N8_33
REMARK   11  A    between atoms: C17_37  and  N9_38
REMARK   12  A    between atoms: C18_41  and  O8_42
ROOT
HETATM    1  O2  UNL     1      70.779 -16.277   1.044  1.00  0.00    -0.197 OA
ENDROOT
BRANCH   1   2
HETATM    2  N5  UNL     1      70.158 -16.925   1.941  1.00  0.00    -0.240 NA
BRANCH   2   3
HETATM    3  C9  UNL     1      69.849 -17.617   2.867  1.00  0.00     0.325 A
HETATM    4  N4  UNL     1      69.800 -17.248   4.184  1.00  0.00    -0.099 N
HETATM    5  C2  UNL     1      69.635 -18.175   5.102  1.00  0.00     0.727 A
HETATM    6  N2  UNL     1      69.502 -19.467   4.808  1.00  0.00    -0.020 N
HETATM    7  C1  UNL     1      69.540 -19.879   3.487  1.00  0.00     0.694 A
ATOM      8  H2  UNL     1      69.372 -20.151   5.553  1.00  0.00     0.203 HD
HETATM    9  N1  UNL     1      69.458 -21.070   3.178  1.00  0.00    -0.234 N
HETATM   10  N10 UNL     1      69.713 -18.952   2.535  1.00  0.00    -0.146 N
ATOM     11  H12 UNL     1      69.327 -21.776   3.902  1.00  0.00     0.174 HD
ATOM     12  H11 UNL     1      69.487 -21.374   2.205  1.00  0.00     0.174 HD
ATOM     13  H10 UNL     1      69.745 -19.234   1.556  1.00  0.00     0.188 HD
BRANCH   4  14
HETATM   14  C3  UNL     1      69.918 -15.842   4.391  1.00  0.00     0.061 A
HETATM   15  C4  UNL     1      68.863 -15.015   4.125  1.00  0.00     0.030 A
HETATM   16  C5  UNL     1      68.970 -13.636   4.415  1.00  0.00     0.002 A
HETATM   17  C6  UNL     1      70.132 -13.146   4.957  1.00  0.00     0.000 A
HETATM   18  C7  UNL     1      71.217 -13.995   5.232  1.00  0.00     0.002 A
HETATM   19  C8  UNL     1      71.080 -15.355   4.937  1.00  0.00     0.030 A
ENDBRANCH   4  14
BRANCH   5  20
HETATM   20  N3  UNL     1      69.597 -17.778   6.355  1.00  0.00    -0.097 N
ATOM     21  H3  UNL     1      70.185 -17.005   6.665  1.00  0.00     0.213 HD
BRANCH  20  22
HETATM   22  O1  UNL     1      68.762 -18.406   7.243  1.00  0.00    -0.276 OA
ATOM     23  H1  UNL     1      69.119 -18.781   8.040  1.00  0.00     0.245 HD
ENDBRANCH  20  22
ENDBRANCH   5  20
ENDBRANCH   2   3
ENDBRANCH   1   2
BRANCH   1  24
HETATM   24  C10 UNL     1      70.228 -14.939   0.702  1.00  0.00     0.322 C
BRANCH  24  25
HETATM   25  C11 UNL     1      71.282 -14.040   1.387  1.00  0.00     0.263 C
HETATM   26  O3  UNL     1      71.025 -12.833   1.567  1.00  0.00    -0.269 OA
HETATM   27  N6  UNL     1      72.418 -14.646   1.777  1.00  0.00    -0.269 N
ATOM     28  H6  UNL     1      72.498 -15.629   1.520  1.00  0.00     0.190 HD
BRANCH  27  29
HETATM   29  N7  UNL     1      73.496 -14.126   2.478  1.00  0.00    -0.308 N
HETATM   30  C12 UNL     1      74.661 -14.672   2.417  1.00  0.00     0.121 C
ATOM     31  H7  UNL     1      73.363 -13.294   3.054  1.00  0.00     0.186 HD
BRANCH  30  32
HETATM   32  C13 UNL     1      75.767 -14.111   3.140  1.00  0.00     0.019 A
HETATM   33  C14 UNL     1      76.870 -13.686   2.336  1.00  0.00     0.052 A
HETATM   34  C15 UNL     1      78.003 -13.122   2.853  1.00  0.00     0.106 A
HETATM   35  C16 UNL     1      78.052 -12.971   4.248  1.00  0.00     0.075 A
HETATM   36  C17 UNL     1      77.038 -13.350   5.055  1.00  0.00     0.139 A
HETATM   37  C18 UNL     1      75.878 -13.929   4.477  1.00  0.00     0.110 A
BRANCH  34  38
HETATM   38  N8  UNL     1      79.073 -12.704   2.015  1.00  0.00    -0.116 N
HETATM   39  O4  UNL     1      79.175 -13.264   0.918  1.00  0.00    -0.532 OA
HETATM   40  O5  UNL     1      79.914 -11.731   2.392  1.00  0.00    -0.532 OA
ENDBRANCH  34  38
BRANCH  36  41
HETATM   41  N9  UNL     1      77.088 -13.203   6.445  1.00  0.00    -0.113 N
HETATM   42  O6  UNL     1      77.256 -14.144   7.246  1.00  0.00    -0.532 OA
HETATM   43  O7  UNL     1      76.929 -11.947   6.981  1.00  0.00    -0.532 OA
ENDBRANCH  36  41
BRANCH  37  44
HETATM   44  O8  UNL     1      74.913 -14.272   5.318  1.00  0.00    -0.357 OA
ATOM     45  H8  UNL     1      74.505 -13.644   5.902  1.00  0.00     0.217 HD
ENDBRANCH  37  44
ENDBRANCH  30  32
ENDBRANCH  27  29
ENDBRANCH  24  25
ENDBRANCH   1  24
TORSDOF 12
ENDMDL