MODEL 4
REMARK VINA RESULT: -8.515205012      2.714      4.381
REMARK  14 active torsions:
REMARK  status: ('A' for Active; 'I' for Inactive)
REMARK    1  A    between atoms: O1_2  and  C2_3
REMARK    2  A    between atoms: C2_3  and  C3_5
REMARK    3  A    between atoms: C3_5  and  N1_6
REMARK    4  A    between atoms: N1_6  and  N2_7
REMARK    5  A    between atoms: N1_6  and  C4_10
REMARK    6  A    between atoms: C6_15  and  N4_16
REMARK       I    between atoms: N4_16  and  C7_18
REMARK    7  A    between atoms: C7_18  and  C8_20
REMARK    8  A    between atoms: C8_20  and  N5_23
REMARK    9  A    between atoms: C11_27  and  C12_28
REMARK   10  A    between atoms: C12_28  and  O5_29
REMARK   11  A    between atoms: C12_28  and  N6_31
REMARK   12  A    between atoms: N6_31  and  N7_32
REMARK   13  A    between atoms: N7_32  and  C13_34
REMARK   14  A    between atoms: C20_44  and  O7_46
ROOT
HETATM    1  C4  UNL     1      69.565 -15.889   2.219  1.00  0.00     0.707 A
HETATM    2  N3  UNL     1      70.259 -15.533   3.315  1.00  0.00    -0.152 N
ATOM      3  H3  UNL     1      69.900 -15.802   4.231  1.00  0.00     0.187 HD
HETATM    4  C5  UNL     1      71.402 -14.839   3.251  1.00  0.00     0.289 A
HETATM    5  O3  UNL     1      72.059 -14.501   4.275  1.00  0.00    -0.265 OA
HETATM    6  C6  UNL     1      71.951 -14.437   2.015  1.00  0.00     0.137 A
HETATM    7  C11 UNL     1      71.231 -14.808   0.924  1.00  0.00     0.148 A
HETATM    8  N8  UNL     1      70.084 -15.508   1.036  1.00  0.00    -0.182 N
ATOM      9  H8  UNL     1      69.586 -15.761   0.183  1.00  0.00     0.184 HD
ENDROOT
BRANCH   1  10
HETATM   10  N1  UNL     1      68.350 -16.627   2.295  1.00  0.00    -0.057 N
BRANCH  10  11
HETATM   11  C3  UNL     1      68.226 -17.980   2.779  1.00  0.00     0.379 C
HETATM   12  O6  UNL     1      69.108 -18.754   2.065  1.00  0.00    -0.323 OA
HETATM   13  C19 UNL     1      69.985 -19.354   2.977  1.00  0.00     0.242 C
HETATM   14  C20 UNL     1      69.143 -19.360   4.228  1.00  0.00     0.185 C
HETATM   15  C21 UNL     1      68.188 -20.525   4.139  1.00  0.00     0.081 C
HETATM   16  O8  UNL     1      68.511 -18.122   4.131  1.00  0.00    -0.289 OA
BRANCH  11  17
HETATM   17  C2  UNL     1      66.798 -18.346   2.595  1.00  0.00     0.348 C
HETATM   18  O2  UNL     1      66.475 -18.972   1.558  1.00  0.00    -0.257 OA
BRANCH  17  19
HETATM   19  O1  UNL     1      65.803 -18.037   3.502  1.00  0.00    -0.321 OA
HETATM   20  C1  UNL     1      64.437 -18.303   3.217  1.00  0.00     0.213 C
ENDBRANCH  17  19
ENDBRANCH  11  17
BRANCH  14  21
HETATM   21  O7  UNL     1      69.902 -19.469   5.385  1.00  0.00    -0.364 OA
ATOM     22  H7  UNL     1      70.813 -19.238   5.249  1.00  0.00     0.213 HD
ENDBRANCH  14  21
ENDBRANCH  10  11
BRANCH  10  23
HETATM   23  N2  UNL     1      67.150 -16.028   1.868  1.00  0.00    -0.323 N
ATOM     24  H22 UNL     1      66.870 -15.129   2.262  1.00  0.00     0.177 HD
ATOM     25  H21 UNL     1      66.627 -16.552   1.166  1.00  0.00     0.177 HD
ENDBRANCH  10  23
ENDBRANCH   1  10
BRANCH   7  26
HETATM   26  C12 UNL     1      71.719 -14.392  -0.413  1.00  0.00     0.268 C
BRANCH  26  27
HETATM   27  O5  UNL     1      72.956 -14.858  -0.886  1.00  0.00    -0.332 OA
ATOM     28  H5  UNL     1      73.333 -14.490  -1.676  1.00  0.00     0.220 HD
ENDBRANCH  26  27
BRANCH  26  29
HETATM   29  N6  UNL     1      71.050 -13.654  -1.084  1.00  0.00    -0.297 NA
BRANCH  29  30
HETATM   30  N7  UNL     1      70.147 -13.139  -1.843  1.00  0.00    -0.234 N
ATOM     31  H7  UNL     1      70.413 -12.419  -2.514  1.00  0.00     0.202 HD
BRANCH  30  32
HETATM   32  C13 UNL     1      68.767 -13.555  -1.769  1.00  0.00     0.060 A
HETATM   33  C14 UNL     1      68.243 -14.377  -2.743  1.00  0.00     0.032 A
HETATM   34  C15 UNL     1      66.923 -14.768  -2.670  1.00  0.00     0.002 A
HETATM   35  C16 UNL     1      66.135 -14.347  -1.635  1.00  0.00     0.000 A
HETATM   36  C17 UNL     1      66.669 -13.514  -0.647  1.00  0.00     0.002 A
HETATM   37  C18 UNL     1      67.985 -13.126  -0.725  1.00  0.00     0.032 A
ENDBRANCH  30  32
ENDBRANCH  29  30
ENDBRANCH  26  29
ENDBRANCH   7  26
BRANCH   6  38
HETATM   38  N4  UNL     1      73.173 -13.706   2.019  1.00  0.00    -0.318 N
HETATM   39  C7  UNL     1      74.420 -14.423   2.010  1.00  0.00     0.257 C
HETATM   40  O4  UNL     1      74.381 -15.703   1.977  1.00  0.00    -0.270 OA
ATOM     41  H4  UNL     1      73.164 -12.685   2.028  1.00  0.00     0.169 HD
BRANCH  39  42
HETATM   42  C8  UNL     1      75.705 -13.743   2.044  1.00  0.00     0.196 C
HETATM   43  C9  UNL     1      75.659 -12.259   1.908  1.00  0.00     0.056 C
HETATM   44  C10 UNL     1      76.423 -14.091   3.357  1.00  0.00     0.056 C
BRANCH  42  45
HETATM   45  N5  UNL     1      76.555 -14.273   0.972  1.00  0.00    -0.062 N
ATOM     46  H53 UNL     1      76.741 -15.270   1.080  1.00  0.00     0.275 HD
ATOM     47  H52 UNL     1      76.070 -14.315   0.076  1.00  0.00     0.275 HD
ATOM     48  H51 UNL     1      77.412 -13.722   0.924  1.00  0.00     0.275 HD
ENDBRANCH  42  45
ENDBRANCH  39  42
ENDBRANCH   6  38
TORSDOF 14
ENDMDL