MODEL 2
REMARK VINA RESULT: -8.757663076      1.601      1.923
REMARK  12 active torsions:
REMARK  status: ('A' for Active; 'I' for Inactive)
REMARK    1  A    between atoms: C2_2  and  C3_3
REMARK    2  A    between atoms: C2_2  and  C4_8
REMARK    3  A    between atoms: C2_2  and  C5_11
REMARK    4  A    between atoms: C3_3  and  N1_4
REMARK    5  A    between atoms: C4_8  and  O1_9
REMARK    6  A    between atoms: C5_11  and  N2_12
REMARK    7  A    between atoms: C10_23  and  N4_24
REMARK    8  A    between atoms: N4_24  and  N5_26
REMARK    9  A    between atoms: N5_26  and  C11_28
REMARK   10  A    between atoms: C16_33  and  O4_34
REMARK   11  A    between atoms: C18_39  and  S2_40
REMARK   12  A    between atoms: S2_40  and  C19_41
ROOT
HETATM    1  N2  UNL     1      73.719 -13.208   4.566  1.00  0.00    -0.386 N
ATOM      2  H2  UNL     1      74.093 -13.511   3.667  1.00  0.00     0.159 HD
HETATM    3  C6  UNL     1      72.451 -13.143   4.719  1.00  0.00     0.109 C
HETATM    4  C7  UNL     1      71.770 -12.721   5.962  1.00  0.00     0.272 C
HETATM    5  O2  UNL     1      72.326 -12.618   7.103  1.00  0.00    -0.266 OA
HETATM    6  N3  UNL     1      70.409 -12.463   5.634  1.00  0.00    -0.290 N
ATOM      7  H3  UNL     1      69.690 -12.155   6.289  1.00  0.00     0.172 HD
HETATM    8  C8  UNL     1      70.213 -12.704   4.246  1.00  0.00     0.256 C
HETATM    9  O3  UNL     1      69.212 -12.343   3.539  1.00  0.00    -0.270 OA
HETATM   10  C9  UNL     1      71.379 -13.443   3.784  1.00  0.00     0.186 C
HETATM   11  S1  UNL     1      71.809 -13.086   2.042  1.00  0.00    -0.059 SA
HETATM   12  C10 UNL     1      72.355 -14.757   1.677  1.00  0.00     0.161 C
HETATM   13  N6  UNL     1      71.887 -15.491   2.602  1.00  0.00    -0.337 N
ATOM     14  H6  UNL     1      72.069 -16.494   2.607  1.00  0.00     0.168 HD
HETATM   15  C17 UNL     1      71.125 -14.913   3.605  1.00  0.00     0.053 C
HETATM   16  C18 UNL     1      70.230 -15.552   4.376  1.00  0.00     0.081 C
ENDROOT
BRANCH   1  17
HETATM   17  C5  UNL     1      74.642 -12.866   5.625  1.00  0.00     0.132 C
BRANCH  17  18
HETATM   18  C2  UNL     1      76.057 -13.112   5.202  1.00  0.00     0.017 C
HETATM   19  C1  UNL     1      76.393 -12.361   3.932  1.00  0.00     0.021 C
BRANCH  18  20
HETATM   20  C3  UNL     1      76.194 -14.585   4.878  1.00  0.00     0.242 C
BRANCH  20  21
HETATM   21  N1  UNL     1      77.547 -15.052   4.869  1.00  0.00    -0.079 N
ATOM     22  H13 UNL     1      77.575 -16.071   4.903  1.00  0.00     0.274 HD
ATOM     23  H12 UNL     1      77.973 -14.899   3.955  1.00  0.00     0.274 HD
ATOM     24  H11 UNL     1      78.127 -14.653   5.607  1.00  0.00     0.274 HD
ENDBRANCH  20  21
ENDBRANCH  18  20
BRANCH  18  25
HETATM   25  C4  UNL     1      77.048 -12.782   6.304  1.00  0.00     0.176 C
BRANCH  25  26
HETATM   26  O1  UNL     1      76.868 -13.687   7.354  1.00  0.00    -0.400 OA
ATOM     27  H1  UNL     1      77.375 -13.391   8.100  1.00  0.00     0.209 HD
ENDBRANCH  25  26
ENDBRANCH  18  25
ENDBRANCH  17  18
ENDBRANCH   1  17
BRANCH  12  28
HETATM   28  N4  UNL     1      73.150 -15.185   0.579  1.00  0.00    -0.279 N
ATOM     29  H4  UNL     1      72.964 -14.804  -0.349  1.00  0.00     0.189 HD
BRANCH  28  30
HETATM   30  N5  UNL     1      74.185 -16.121   0.737  1.00  0.00    -0.296 N
ATOM     31  H5  UNL     1      73.955 -17.067   1.045  1.00  0.00     0.187 HD
BRANCH  30  32
HETATM   32  C11 UNL     1      75.544 -15.791   0.481  1.00  0.00     0.081 A
HETATM   33  C12 UNL     1      76.274 -15.074   1.404  1.00  0.00     0.034 A
HETATM   34  C13 UNL     1      77.592 -14.752   1.159  1.00  0.00     0.002 A
HETATM   35  C14 UNL     1      78.203 -15.144  -0.017  1.00  0.00     0.003 A
HETATM   36  C15 UNL     1      77.484 -15.862  -0.948  1.00  0.00     0.039 A
HETATM   37  C16 UNL     1      76.173 -16.175  -0.690  1.00  0.00     0.093 A
BRANCH  37  38
HETATM   38  O4  UNL     1      75.481 -16.893  -1.641  1.00  0.00    -0.358 OA
ATOM     39  H4  UNL     1      75.912 -17.157  -2.445  1.00  0.00     0.217 HD
ENDBRANCH  37  38
ENDBRANCH  30  32
ENDBRANCH  28  30
ENDBRANCH  12  28
BRANCH  16  40
HETATM   40  S2  UNL     1      69.888 -17.293   4.210  1.00  0.00    -0.061 SA
BRANCH  40  41
HETATM   41  C19 UNL     1      68.456 -17.556   3.141  1.00  0.00     0.177 A
HETATM   42  N7  UNL     1      68.237 -18.587   2.315  1.00  0.00    -0.261 N
HETATM   43  N8  UNL     1      67.072 -18.412   1.706  1.00  0.00    -0.005 NA
ATOM     44  H7  UNL     1      68.866 -19.379   2.177  1.00  0.00     0.186 HD
HETATM   45  N9  UNL     1      66.560 -17.276   2.148  1.00  0.00    -0.224 N
HETATM   46  N10 UNL     1      67.393 -16.746   3.022  1.00  0.00    -0.266 N
ATOM     47  H9  UNL     1      65.668 -16.876   1.860  1.00  0.00     0.205 HD
ATOM     48  H10 UNL     1      67.252 -15.869   3.523  1.00  0.00     0.190 HD
ENDBRANCH  40  41
ENDBRANCH  16  40
TORSDOF 12
ENDMDL