MODEL 3
REMARK VINA RESULT: -9.356850603      2.539      6.177
REMARK  12 active torsions:
REMARK  status: ('A' for Active; 'I' for Inactive)
REMARK    1  A    between atoms: N1_1  and  C1_4
REMARK    2  A    between atoms: C3_8  and  S1_9
REMARK    3  A    between atoms: S1_9  and  C4_10
REMARK    4  A    between atoms: C4_10  and  C5_11
REMARK    5  A    between atoms: C5_11  and  C8_27
REMARK    6  A    between atoms: N3_12  and  N4_14
REMARK    7  A    between atoms: N4_14  and  C6_16
REMARK    8  A    between atoms: C6_16  and  C7_17
REMARK    9  A    between atoms: C7_17  and  N5_18
REMARK   10  A    between atoms: N6_22  and  N7_24
REMARK       I    between atoms: C8_27  and  N8_29
REMARK   11  A    between atoms: N8_29  and  C9_31
REMARK   12  A    between atoms: C15_40  and  C16_41
ROOT
HETATM    1  C5  UNL     1      75.989 -11.996   6.416  1.00  0.00     0.103 C
HETATM    2  N3  UNL     1      75.986 -11.129   7.364  1.00  0.00    -0.297 N
ATOM      3  H3  UNL     1      75.149 -10.577   7.546  1.00  0.00     0.187 HD
ENDROOT
BRANCH   1   4
HETATM    4  C4  UNL     1      77.215 -12.786   6.171  1.00  0.00     0.145 C
BRANCH   4   5
HETATM    5  S1  UNL     1      78.289 -11.988   4.942  1.00  0.00    -0.102 SA
BRANCH   5   6
HETATM    6  C3  UNL     1      77.914 -12.628   3.327  1.00  0.00     0.120 A
HETATM    7  C2  UNL     1      78.903 -12.593   2.354  1.00  0.00     0.194 A
HETATM    8  N2  UNL     1      80.170 -12.148   2.368  1.00  0.00    -0.169 N
HETATM    9  N13 UNL     1      78.649 -13.069   1.125  1.00  0.00    -0.160 N
HETATM   10  C1  UNL     1      80.698 -12.350   1.150  1.00  0.00     0.693 A
ATOM     11  H2  UNL     1      80.649 -11.730   3.166  1.00  0.00     0.186 HD
HETATM   12  N14 UNL     1      79.748 -12.916   0.403  1.00  0.00    -0.109 N
ATOM     13  H14 UNL     1      79.852 -13.188  -0.574  1.00  0.00     0.208 HD
HETATM   14  N12 UNL     1      77.441 -13.566   0.882  1.00  0.00    -0.261 N
HETATM   15  C15 UNL     1      76.449 -13.623   1.789  1.00  0.00     0.134 A
ATOM     16  H12 UNL     1      77.253 -13.928  -0.052  1.00  0.00     0.191 HD
HETATM   17  N10 UNL     1      76.707 -13.146   3.018  1.00  0.00    -0.332 N
ATOM     18  H10 UNL     1      75.978 -13.174   3.730  1.00  0.00     0.168 HD
BRANCH  10  19
HETATM   19  N1  UNL     1      81.919 -12.040   0.788  1.00  0.00    -0.233 N
ATOM     20  H12 UNL     1      82.604 -11.497   1.313  1.00  0.00     0.174 HD
ATOM     21  H11 UNL     1      82.362 -12.307  -0.091  1.00  0.00     0.174 HD
ENDBRANCH  10  19
BRANCH  15  22
HETATM   22  C16 UNL     1      75.145 -14.186   1.443  1.00  0.00     0.025 A
HETATM   23  C17 UNL     1      74.143 -13.436   0.864  1.00  0.00     0.018 A
HETATM   24  C18 UNL     1      72.915 -13.977   0.540  1.00  0.00     0.018 A
HETATM   25  C19 UNL     1      72.703 -15.311   0.813  1.00  0.00     0.087 A
HETATM   26  N11 UNL     1      73.667 -16.069   1.381  1.00  0.00    -0.374 N
HETATM   27  C20 UNL     1      74.868 -15.509   1.688  1.00  0.00     0.102 A
ATOM     28  H11 UNL     1      73.495 -17.055   1.578  1.00  0.00     0.164 HD
ENDBRANCH  15  22
ENDBRANCH   5   6
ENDBRANCH   4   5
ENDBRANCH   1   4
BRANCH   1  29
HETATM   29  C8  UNL     1      74.766 -12.168   5.606  1.00  0.00     0.270 C
HETATM   30  O1  UNL     1      74.716 -11.487   4.574  1.00  0.00    -0.266 OA
HETATM   31  N8  UNL     1      73.781 -13.068   6.057  1.00  0.00    -0.320 N
ATOM     32  H8  UNL     1      73.974 -13.556   6.932  1.00  0.00     0.169 HD
BRANCH  31  33
HETATM   33  C9  UNL     1      72.562 -13.362   5.428  1.00  0.00     0.059 A
HETATM   34  C10 UNL     1      72.380 -14.218   4.368  1.00  0.00     0.031 A
HETATM   35  C11 UNL     1      71.139 -14.455   3.802  1.00  0.00     0.002 A
HETATM   36  C12 UNL     1      70.028 -13.830   4.293  1.00  0.00     0.002 A
HETATM   37  C13 UNL     1      70.196 -12.971   5.352  1.00  0.00     0.029 A
HETATM   38  C14 UNL     1      71.414 -12.735   5.912  1.00  0.00     0.073 A
HETATM   39  N9  UNL     1      71.504 -11.827   7.013  1.00  0.00    -0.100 NA
ENDBRANCH  31  33
ENDBRANCH   1  29
BRANCH   2  40
HETATM   40  N4  UNL     1      77.114 -10.945   8.137  1.00  0.00    -0.286 N
ATOM     41  H4  UNL     1      77.793 -11.706   8.174  1.00  0.00     0.188 HD
BRANCH  40  42
HETATM   42  C6  UNL     1      77.395  -9.776   8.882  1.00  0.00     0.136 C
HETATM   43  N6  UNL     1      78.605  -9.514   9.194  1.00  0.00    -0.293 N
ATOM     44  H6  UNL     1      79.318 -10.175   8.885  1.00  0.00     0.187 HD
BRANCH  42  45
HETATM   45  C7  UNL     1      76.286  -8.882   9.283  1.00  0.00     0.308 C
BRANCH  45  46
HETATM   46  N5  UNL     1      76.085  -7.835   8.287  1.00  0.00    -0.073 N
ATOM     47  H53 UNL     1      76.856  -7.795   7.620  1.00  0.00     0.274 HD
ATOM     48  H52 UNL     1      75.334  -8.068   7.637  1.00  0.00     0.274 HD
ATOM     49  H51 UNL     1      75.929  -6.935   8.740  1.00  0.00     0.274 HD
ENDBRANCH  45  46
ENDBRANCH  42  45
BRANCH  43  50
HETATM   50  N7  UNL     1      79.033  -8.414   9.915  1.00  0.00    -0.344 N
ATOM     51  H72 UNL     1      78.707  -7.506   9.583  1.00  0.00     0.176 HD
ATOM     52  H71 UNL     1      79.637  -8.438  10.737  1.00  0.00     0.176 HD
ENDBRANCH  43  50
ENDBRANCH  40  42
ENDBRANCH   2  40
TORSDOF 12
ENDMDL