MODEL 4
REMARK VINA RESULT: -8.834021535      1.759      4.045
REMARK  14 active torsions:
REMARK  status: ('A' for Active; 'I' for Inactive)
REMARK    1  A    between atoms: C2_2  and  C3_4
REMARK    2  A    between atoms: C3_4  and  N1_5
REMARK    3  A    between atoms: C3_4  and  C8_21
REMARK    4  A    between atoms: N1_5  and  N2_7
REMARK    5  A    between atoms: C4_10  and  C5_11
REMARK    6  A    between atoms: C5_11  and  N4_12
REMARK    7  A    between atoms: C8_21  and  O4_23
REMARK    8  A    between atoms: O4_23  and  N6_24
REMARK    9  A    between atoms: N6_24  and  C9_26
REMARK   10  A    between atoms: C9_26  and  C10_27
REMARK   11  A    between atoms: C10_27  and  C11_28
REMARK   12  A    between atoms: C14_39  and  O5_40
REMARK   13  A    between atoms: C14_39  and  N11_42
REMARK   14  A    between atoms: N11_42  and  C15_44
ROOT
HETATM    1  N6  UNL     1      77.808 -11.508   3.824  1.00  0.00    -0.257 N
ATOM      2  H6  UNL     1      77.020 -11.670   4.452  1.00  0.00     0.195 HD
ENDROOT
BRANCH   1   3
HETATM    3  O4  UNL     1      78.710 -10.571   4.156  1.00  0.00    -0.193 OA
BRANCH   3   4
HETATM    4  C8  UNL     1      79.383 -10.457   5.358  1.00  0.00     0.337 C
HETATM    5  O3  UNL     1      80.600 -10.261   5.316  1.00  0.00    -0.255 OA
BRANCH   4   6
HETATM    6  C3  UNL     1      78.698 -10.560   6.665  1.00  0.00     0.173 C
BRANCH   6   7
HETATM    7  C2  UNL     1      78.497 -11.846   7.297  1.00  0.00     0.179 C
HETATM    8  C1  UNL     1      79.065 -12.139   8.628  1.00  0.00     0.099 C
HETATM    9  O1  UNL     1      77.831 -12.738   6.722  1.00  0.00    -0.291 OA
ENDBRANCH   6   7
BRANCH   6  10
HETATM   10  N1  UNL     1      78.290  -9.463   7.231  1.00  0.00    -0.266 N
ATOM     11  H1  UNL     1      78.822  -8.617   7.026  1.00  0.00     0.189 HD
BRANCH  10  12
HETATM   12  N2  UNL     1      77.211  -9.323   8.081  1.00  0.00    -0.141 N
HETATM   13  N3  UNL     1      75.961  -9.584   7.704  1.00  0.00    -0.271 N
HETATM   14  C4  UNL     1      74.909  -9.443   8.510  1.00  0.00     0.103 A
ATOM     15  H3  UNL     1      75.801  -9.907   6.749  1.00  0.00     0.189 HD
HETATM   16  C6  UNL     1      75.122  -9.001   9.811  1.00  0.00     0.134 A
HETATM   17  S1  UNL     1      73.842  -8.834  10.783  1.00  0.00    -0.058 SA
HETATM   18  N5  UNL     1      76.375  -8.742  10.187  1.00  0.00    -0.295 N
HETATM   19  C7  UNL     1      77.405  -8.893   9.355  1.00  0.00     0.362 A
ATOM     20  H5  UNL     1      76.550  -8.419  11.138  1.00  0.00     0.171 HD
HETATM   21  O2  UNL     1      78.591  -8.645   9.717  1.00  0.00    -0.243 OA
BRANCH  14  22
HETATM   22  C5  UNL     1      73.561  -9.734   8.043  1.00  0.00     0.115 C
BRANCH  22  23
HETATM   23  N4  UNL     1      73.289 -10.920   7.623  1.00  0.00    -0.406 N
ATOM     24  H42 UNL     1      73.879 -11.702   7.908  1.00  0.00     0.155 HD
ATOM     25  H41 UNL     1      72.485 -11.055   7.011  1.00  0.00     0.155 HD
ENDBRANCH  22  23
ENDBRANCH  14  22
ENDBRANCH  10  12
ENDBRANCH   6  10
ENDBRANCH   4   6
ENDBRANCH   3   4
ENDBRANCH   1   3
BRANCH   1  26
HETATM   26  C9  UNL     1      77.898 -12.251   2.685  1.00  0.00     0.088 C
HETATM   27  C14 UNL     1      77.490 -13.593   2.910  1.00  0.00     0.162 C
BRANCH  26  28
HETATM   28  C10 UNL     1      78.368 -11.575   1.498  1.00  0.00     0.124 C
BRANCH  28  29
HETATM   29  C11 UNL     1      79.732 -11.832   0.997  1.00  0.00     0.074 A
HETATM   30  N7  UNL     1      80.640 -12.659   1.635  1.00  0.00    -0.192 N
HETATM   31  C12 UNL     1      81.817 -12.651   1.003  1.00  0.00     0.677 A
ATOM     32  H7  UNL     1      80.438 -13.202   2.474  1.00  0.00     0.184 HD
HETATM   33  N8  UNL     1      82.890 -13.325   1.349  1.00  0.00    -0.234 N
HETATM   34  N9  UNL     1      81.718 -11.832  -0.052  1.00  0.00    -0.177 N
ATOM     35  H82 UNL     1      82.965 -13.949   2.152  1.00  0.00     0.174 HD
ATOM     36  H81 UNL     1      83.788 -13.319   0.866  1.00  0.00     0.174 HD
HETATM   37  C13 UNL     1      80.452 -11.340  -0.051  1.00  0.00     0.155 A
ATOM     38  H9  UNL     1      82.453 -11.619  -0.726  1.00  0.00     0.185 HD
HETATM   39  N10 UNL     1      79.975 -10.487  -1.084  1.00  0.00    -0.080 NA
ENDBRANCH  28  29
ENDBRANCH  26  28
BRANCH  27  40
HETATM   40  O5  UNL     1      77.100 -13.869   4.120  1.00  0.00    -0.345 OA
ATOM     41  H5  UNL     1      77.732 -14.325   4.662  1.00  0.00     0.219 HD
ENDBRANCH  27  40
BRANCH  27  42
HETATM   42  N11 UNL     1      77.437 -14.689   2.043  1.00  0.00    -0.361 N
ATOM     43  H11 UNL     1      78.250 -15.300   1.969  1.00  0.00     0.162 HD
BRANCH  42  44
HETATM   44  C15 UNL     1      76.250 -14.987   1.236  1.00  0.00     0.021 C
HETATM   45  C16 UNL     1      75.470 -13.738   0.935  1.00  0.00     0.037 C
HETATM   46  C17 UNL     1      76.670 -15.561  -0.112  1.00  0.00     0.037 C
HETATM   47  C18 UNL     1      75.435 -16.025   1.949  1.00  0.00     0.037 C
ENDBRANCH  42  44
ENDBRANCH  27  42
ENDBRANCH   1  26
TORSDOF 14
ENDMDL