MODEL 2
REMARK VINA RESULT: -8.984614048      2.924      9.638
REMARK  10 active torsions:
REMARK  status: ('A' for Active; 'I' for Inactive)
REMARK    1  A    between atoms: C3_6  and  N3_7
REMARK    2  A    between atoms: C4_10  and  N4_11
REMARK    3  A    between atoms: C9_16  and  N5_17
REMARK    4  A    between atoms: N5_17  and  N6_19
REMARK    5  A    between atoms: C10_20  and  N7_21
REMARK    6  A    between atoms: C11_26  and  C12_27
REMARK    7  A    between atoms: C12_27  and  N9_28
REMARK    8  A    between atoms: N9_28  and  N10_29
REMARK    9  A    between atoms: N11_32  and  C15_33
REMARK   10  A    between atoms: C21_45  and  N15_46
ROOT
HETATM    1  N1  UNL     1      69.697 -12.554  -2.247  1.00  0.00    -0.188 NA
HETATM    2  C1  UNL     1      69.780 -13.268  -1.332  1.00  0.00     0.137 C
HETATM    3  C2  UNL     1      69.868 -14.168  -0.213  1.00  0.00     0.191 A
HETATM    4  N2  UNL     1      68.732 -14.612   0.347  1.00  0.00    -0.318 N
ATOM      5  H2  UNL     1      67.830 -14.309  -0.019  1.00  0.00     0.169 HD
HETATM    6  C3  UNL     1      68.785 -15.451   1.384  1.00  0.00     0.132 A
HETATM    7  C4  UNL     1      69.997 -15.889   1.913  1.00  0.00     0.128 A
HETATM    8  C9  UNL     1      71.140 -15.426   1.328  1.00  0.00     0.155 A
HETATM    9  N16 UNL     1      71.049 -14.563   0.261  1.00  0.00    -0.317 N
ATOM     10  H16 UNL     1      71.903 -14.218  -0.176  1.00  0.00     0.169 HD
ENDROOT
BRANCH   6  11
HETATM   11  N3  UNL     1      67.680 -15.890   1.937  1.00  0.00    -0.383 N
ATOM     12  H32 UNL     1      66.861 -16.006   1.340  1.00  0.00     0.157 HD
ATOM     13  H31 UNL     1      67.653 -16.105   2.934  1.00  0.00     0.157 HD
ENDBRANCH   6  11
BRANCH   8  14
HETATM   14  N5  UNL     1      72.396 -15.837   1.814  1.00  0.00    -0.247 N
ATOM     15  H5  UNL     1      72.410 -16.769   2.229  1.00  0.00     0.190 HD
BRANCH  14  16
HETATM   16  N6  UNL     1      73.600 -15.190   1.820  1.00  0.00     0.091 N
HETATM   17  C10 UNL     1      74.543 -15.358   0.892  1.00  0.00     0.713 A
HETATM   18  N8  UNL     1      75.755 -14.726   1.030  1.00  0.00    -0.177 N
HETATM   19  C11 UNL     1      76.046 -13.940   2.061  1.00  0.00     0.129 A
ATOM     20  H8  UNL     1      76.463 -14.868   0.311  1.00  0.00     0.185 HD
HETATM   21  N14 UNL     1      75.094 -13.758   3.014  1.00  0.00    -0.177 N
HETATM   22  C21 UNL     1      73.913 -14.372   2.878  1.00  0.00     0.713 A
ATOM     23  H14 UNL     1      75.278 -13.161   3.821  1.00  0.00     0.185 HD
BRANCH  17  24
HETATM   24  N7  UNL     1      74.326 -16.082  -0.137  1.00  0.00    -0.232 N
ATOM     25  H72 UNL     1      73.583 -16.781  -0.112  1.00  0.00     0.174 HD
ATOM     26  H71 UNL     1      74.896 -15.980  -0.977  1.00  0.00     0.174 HD
ENDBRANCH  17  24
BRANCH  19  27
HETATM   27  C12 UNL     1      77.379 -13.312   2.197  1.00  0.00     0.206 C
BRANCH  27  28
HETATM   28  N9  UNL     1      77.388 -12.206   3.101  1.00  0.00    -0.158 NA
BRANCH  28  29
HETATM   29  N10 UNL     1      78.435 -12.289   3.988  1.00  0.00    -0.231 NA
HETATM   30  C13 UNL     1      77.995 -13.136   5.090  1.00  0.00     0.130 C
HETATM   31  C14 UNL     1      77.103 -12.294   5.997  1.00  0.00     0.157 C
HETATM   32  N11 UNL     1      77.940 -11.238   6.509  1.00  0.00    -0.215 N
HETATM   33  C19 UNL     1      79.256 -11.100   5.929  1.00  0.00     0.157 C
HETATM   34  C20 UNL     1      79.016 -11.056   4.409  1.00  0.00     0.130 C
BRANCH  32  35
HETATM   35  C15 UNL     1      77.507 -10.378   7.511  1.00  0.00     0.679 A
HETATM   36  N12 UNL     1      78.291  -9.738   8.384  1.00  0.00    -0.202 N
HETATM   37  C16 UNL     1      77.855  -8.905   9.342  1.00  0.00     0.107 A
ATOM     38  H12 UNL     1      79.297  -9.894   8.317  1.00  0.00     0.183 HD
HETATM   39  C17 UNL     1      76.499  -8.688   9.439  1.00  0.00     0.035 A
HETATM   40  C18 UNL     1      75.668  -9.334   8.553  1.00  0.00     0.107 A
HETATM   41  N13 UNL     1      76.168 -10.152   7.623  1.00  0.00    -0.202 N
ATOM     42  H13 UNL     1      75.530 -10.620   6.979  1.00  0.00     0.183 HD
ENDBRANCH  32  35
ENDBRANCH  28  29
ENDBRANCH  27  28
ENDBRANCH  19  27
BRANCH  22  43
HETATM   43  N15 UNL     1      73.028 -14.171   3.809  1.00  0.00    -0.232 N
ATOM     44 2H15 UNL     1      72.297 -14.875   3.918  1.00  0.00     0.174 HD
ATOM     45 1H15 UNL     1      73.094 -13.333   4.386  1.00  0.00     0.174 HD
ENDBRANCH  22  43
ENDBRANCH  14  16
ENDBRANCH   8  14
BRANCH   7  46
HETATM   46  N4  UNL     1      69.927 -16.823   2.998  1.00  0.00    -0.327 N
HETATM   47  C5  UNL     1      69.833 -18.158   2.712  1.00  0.00     0.097 A
HETATM   48  C6  UNL     1      69.757 -18.816   3.912  1.00  0.00     0.019 A
HETATM   49  C7  UNL     1      69.802 -17.879   4.922  1.00  0.00     0.019 A
HETATM   50  C8  UNL     1      69.909 -16.652   4.315  1.00  0.00     0.097 A
ENDBRANCH   7  46
TORSDOF 10
ENDMDL