MODEL 3
REMARK VINA RESULT: -6.170734988      1.345      2.295
REMARK  7 active torsions:
REMARK  status: ('A' for Active; 'I' for Inactive)
REMARK    1  A    between atoms: C3_3  and  C4_4
REMARK    2  A    between atoms: N1_6  and  C6_7
REMARK    3  A    between atoms: C6_7  and  C7_8
REMARK    4  A    between atoms: N2_13  and  C10_14
REMARK    5  A    between atoms: C10_14  and  C11_15
REMARK       I    between atoms: C11_15  and  N3_17
REMARK    6  A    between atoms: C16_22  and  C17_23
REMARK    7  A    between atoms: C17_23  and  O4_24
ROOT
HETATM    1  C1  UNL     1       7.530  67.388  12.995  1.00  0.00     0.112 C
HETATM    2  C2  UNL     1       8.693  68.055  12.405  1.00  0.00    -0.109 C
HETATM    3  C3  UNL     1       9.662  68.596  11.936  1.00  0.00    -0.071 C
ENDROOT
BRANCH   3   4
HETATM    4  C4  UNL     1      10.811  69.266  11.384  1.00  0.00     0.300 C
HETATM    5  C5  UNL     1      11.709  68.400  10.555  1.00  0.00     0.285 C
HETATM    6  N1  UNL     1      12.745  67.821  11.376  1.00  0.00    -0.051 N
HETATM    7  C8  UNL     1      13.728  68.917  11.532  1.00  0.00     0.266 C
HETATM    8  C20 UNL     1      12.300  67.576  12.733  1.00  0.00     0.266 C
HETATM    9  C9  UNL     1      12.925  70.140  11.760  1.00  0.00     0.272 C
HETATM   10  N2  UNL     1      11.642  69.867  12.451  1.00  0.00    -0.022 N
HETATM   11  C19 UNL     1      11.926  68.888  13.428  1.00  0.00     0.272 C
BRANCH   6  12
HETATM   12  C6  UNL     1      13.425  66.712  10.811  1.00  0.00     0.350 C
BRANCH  12  13
HETATM   13  C7  UNL     1      13.721  66.765   9.387  1.00  0.00     0.199 C
HETATM   14  O1  UNL     1      14.608  67.498   8.893  1.00  0.00    -0.647 OA
HETATM   15  O2  UNL     1      12.996  65.970   8.510  1.00  0.00    -0.647 OA
ENDBRANCH  12  13
ENDBRANCH   6  12
BRANCH  10  16
HETATM   16  C10 UNL     1      11.154  71.130  12.837  1.00  0.00     0.278 C
BRANCH  16  17
HETATM   17  C11 UNL     1      12.039  72.135  13.394  1.00  0.00     0.268 C
HETATM   18  O3  UNL     1      12.686  72.017  14.455  1.00  0.00    -0.267 OA
HETATM   19  N3  UNL     1      12.224  73.374  12.725  1.00  0.00    -0.329 N
HETATM   20  C12 UNL     1      11.488  73.516  11.473  1.00  0.00     0.129 C
HETATM   21  C16 UNL     1      13.041  74.460  13.158  1.00  0.00     0.111 C
HETATM   22  C13 UNL     1      11.664  74.784  10.746  1.00  0.00     0.045 C
HETATM   23  C14 UNL     1      12.804  75.657  11.157  1.00  0.00     0.086 C
HETATM   24  C15 UNL     1      13.857  74.895  11.942  1.00  0.00     0.066 C
HETATM   25  N4  UNL     1      12.298  76.518  12.242  1.00  0.00    -0.377 N
HETATM   26  C18 UNL     1      12.176  75.686  13.377  1.00  0.00     0.104 C
ATOM     27  H4  UNL     1      12.080  77.514  12.185  1.00  0.00     0.160 HD
HETATM   28  S1  UNL     1      11.248  76.032  14.671  1.00  0.00    -0.063 SA
BRANCH  21  29
HETATM   29  C17 UNL     1      13.904  74.230  14.343  1.00  0.00     0.202 C
BRANCH  29  30
HETATM   30  O4  UNL     1      15.129  73.706  13.829  1.00  0.00    -0.398 OA
ATOM     31  H4  UNL     1      15.034  72.762  13.859  1.00  0.00     0.209 HD
ENDBRANCH  29  30
ENDBRANCH  21  29
ENDBRANCH  16  17
ENDBRANCH  10  16
ENDBRANCH   3   4
TORSDOF 7
ENDMDL