MODEL 2
REMARK VINA RESULT: -7.077228150      4.367      6.978
REMARK  11 active torsions:
REMARK  status: ('A' for Active; 'I' for Inactive)
REMARK    1  A    between atoms: N2_7  and  C5_8
REMARK    2  A    between atoms: C5_8  and  C6_9
REMARK    3  A    between atoms: C7_10  and  C8_11
REMARK    4  A    between atoms: C9_12  and  C10_13
REMARK    5  A    between atoms: C10_13  and  C13_16
REMARK    6  A    between atoms: C13_16  and  O1_17
REMARK    7  A    between atoms: C14_19  and  C15_20
REMARK    8  A    between atoms: C16_21  and  C17_22
REMARK    9  A    between atoms: N3_23  and  O2_24
REMARK   10  A    between atoms: C19_27  and  O3_28
REMARK   11  A    between atoms: C24_34  and  N5_35
ROOT
HETATM    1  C1  UNL     1      12.860  66.396   7.766  1.00  0.00     0.018 C
HETATM    2  C2  UNL     1      12.652  67.004   8.787  1.00  0.00    -0.074 C
HETATM    3  C3  UNL     1      12.414  67.729   9.991  1.00  0.00     0.062 A
HETATM    4  C4  UNL     1      11.395  68.651  10.034  1.00  0.00     0.130 A
HETATM    5  N1  UNL     1      11.142  69.361  11.173  1.00  0.00    -0.306 N
ATOM      6  H1  UNL     1      10.383  70.041  11.193  1.00  0.00     0.186 HD
HETATM    7  N2  UNL     1      11.883  69.167  12.250  1.00  0.00    -0.271 N
HETATM    8  C14 UNL     1      12.908  68.277  12.295  1.00  0.00     0.133 A
HETATM    9  C24 UNL     1      13.168  67.547  11.126  1.00  0.00     0.083 A
ENDROOT
BRANCH   9  10
HETATM   10  N5  UNL     1      14.136  66.691  11.127  1.00  0.00    -0.396 N
ATOM     11  H52 UNL     1      14.769  66.661  10.327  1.00  0.00     0.156 HD
ATOM     12  H51 UNL     1      14.255  66.058  11.918  1.00  0.00     0.156 HD
ENDBRANCH   9  10
BRANCH   8  13
HETATM   13  C15 UNL     1      13.702  68.082  13.479  1.00  0.00    -0.036 C
HETATM   14  C16 UNL     1      14.386  67.908  14.466  1.00  0.00    -0.021 C
BRANCH  14  15
HETATM   15  C17 UNL     1      15.216  67.684  15.630  1.00  0.00     0.190 A
HETATM   16  N3  UNL     1      15.631  66.442  15.937  1.00  0.00    -0.208 N
HETATM   17  C18 UNL     1      16.400  66.171  17.000  1.00  0.00     0.164 A
HETATM   18  C19 UNL     1      16.776  67.207  17.804  1.00  0.00     0.108 A
HETATM   19  C21 UNL     1      16.342  68.475  17.476  1.00  0.00     0.044 A
HETATM   20  C22 UNL     1      16.720  69.628  18.311  1.00  0.00     0.071 C
HETATM   21  N4  UNL     1      15.567  68.717  16.397  1.00  0.00    -0.330 N
HETATM   22  C23 UNL     1      15.116  70.056  16.061  1.00  0.00     0.158 C
BRANCH  16  23
HETATM   23  O2  UNL     1      15.272  65.353  15.145  1.00  0.00    -0.281 OA
ATOM     24  H2  UNL     1      15.858  64.614  15.039  1.00  0.00     0.245 HD
ENDBRANCH  16  23
BRANCH  18  25
HETATM   25  O3  UNL     1      17.582  67.027  18.944  1.00  0.00    -0.352 OA
HETATM   26  C20 UNL     1      17.516  65.786  19.599  1.00  0.00     0.210 C
ENDBRANCH  18  25
ENDBRANCH  14  15
ENDBRANCH   8  13
BRANCH   7  27
HETATM   27  C5  UNL     1      11.639  69.913  13.489  1.00  0.00     0.244 C
BRANCH  27  28
HETATM   28  C6  UNL     1      12.072  71.295  13.206  1.00  0.00    -0.071 C
HETATM   29  C7  UNL     1      12.435  72.423  12.957  1.00  0.00    -0.013 C
BRANCH  29  30
HETATM   30  C8  UNL     1      12.869  73.732  12.644  1.00  0.00    -0.014 C
HETATM   31  C9  UNL     1      13.243  74.839  12.360  1.00  0.00    -0.081 C
BRANCH  31  32
HETATM   32  C10 UNL     1      13.708  76.179  11.992  1.00  0.00     0.038 C
HETATM   33  C11 UNL     1      14.198  76.111  10.553  1.00  0.00     0.031 C
HETATM   34  C12 UNL     1      14.833  76.634  12.873  1.00  0.00     0.031 C
BRANCH  32  35
HETATM   35  C13 UNL     1      12.515  77.093  12.022  1.00  0.00     0.185 C
BRANCH  35  36
HETATM   36  O1  UNL     1      13.008  78.393  12.240  1.00  0.00    -0.399 OA
ATOM     37  H1  UNL     1      12.286  78.989  12.079  1.00  0.00     0.209 HD
ENDBRANCH  35  36
ENDBRANCH  32  35
ENDBRANCH  31  32
ENDBRANCH  29  30
ENDBRANCH  27  28
ENDBRANCH   7  27
TORSDOF 11
ENDMDL