MODEL 4
REMARK VINA RESULT: -6.802901281      5.152      9.113
REMARK  8 active torsions:
REMARK  status: ('A' for Active; 'I' for Inactive)
REMARK    1  A    between atoms: C2_2  and  N1_3
REMARK    2  A    between atoms: N1_3  and  C3_4
REMARK    3  A    between atoms: C3_4  and  C4_5
REMARK    4  A    between atoms: C5_6  and  C6_7
REMARK    5  A    between atoms: C11_12  and  N2_13
REMARK    6  A    between atoms: N2_13  and  C12_15
REMARK    7  A    between atoms: C12_15  and  C13_16
REMARK    8  A    between atoms: C13_16  and  O1_17
ROOT
HETATM    1  C3  UNL     1      13.085  69.692  11.679  1.00  0.00     0.353 C
ENDROOT
BRANCH   1   2
HETATM    2  N1  UNL     1      13.001  68.504  12.454  1.00  0.00     0.061 N
HETATM    3  C14 UNL     1      11.729  68.138  12.938  1.00  0.00     0.257 C
HETATM    4  C15 UNL     1      10.808  69.262  13.305  1.00  0.00     0.273 C
HETATM    5  C19 UNL     1      10.964  67.330  11.996  1.00  0.00     0.135 C
HETATM    6  N4  UNL     1       9.540  69.004  12.646  1.00  0.00    -0.071 N
HETATM    7  C16 UNL     1       8.841  70.229  12.323  1.00  0.00     0.272 C
HETATM    8  C17 UNL     1       8.705  68.210  13.519  1.00  0.00     0.272 C
HETATM    9  C18 UNL     1       9.875  68.257  11.466  1.00  0.00     0.259 C
HETATM   10  N5  UNL     1      11.742  66.722  10.999  1.00  0.00    -0.183 NA
HETATM   11  C20 UNL     1      11.426  67.090   9.644  1.00  0.00     0.131 C
HETATM   12  S1  UNL     1      13.358  67.168  11.373  1.00  0.00     0.389 S
HETATM   13  O2  UNL     1      14.056  66.065  12.096  1.00  0.00    -0.181 OA
HETATM   14  O3  UNL     1      14.068  67.621  10.156  1.00  0.00    -0.181 OA
BRANCH   2  15
HETATM   15  C2  UNL     1      14.051  68.455  13.463  1.00  0.00     0.256 C
HETATM   16  C1  UNL     1      13.604  67.923  14.779  1.00  0.00     0.036 C
ENDBRANCH   2  15
ENDBRANCH   1   2
BRANCH   1  17
HETATM   17  C4  UNL     1      13.733  70.808  12.411  1.00  0.00    -0.070 C
HETATM   18  C5  UNL     1      14.240  71.726  13.007  1.00  0.00    -0.047 C
BRANCH  18  19
HETATM   19  C6  UNL     1      14.832  72.840  13.709  1.00  0.00     0.088 A
HETATM   20  C7  UNL     1      14.444  74.135  13.453  1.00  0.00     0.046 A
HETATM   21  C8  UNL     1      15.003  75.213  14.119  1.00  0.00    -0.056 A
HETATM   22  C9  UNL     1      14.582  76.621  13.842  1.00  0.00     0.048 C
HETATM   23  C10 UNL     1      15.969  74.949  15.056  1.00  0.00     0.055 A
HETATM   24  C11 UNL     1      16.384  73.628  15.336  1.00  0.00     0.106 A
HETATM   25  N3  UNL     1      15.792  72.648  14.646  1.00  0.00    -0.335 N
ATOM     26  H3  UNL     1      16.083  71.689  14.839  1.00  0.00     0.168 HD
BRANCH  24  27
HETATM   27  N2  UNL     1      17.262  73.511  16.199  1.00  0.00    -0.354 N
ATOM     28  H2  UNL     1      17.729  72.617  16.049  1.00  0.00     0.166 HD
BRANCH  27  29
HETATM   29  C12 UNL     1      17.854  74.114  17.282  1.00  0.00     0.088 C
BRANCH  29  30
HETATM   30  C13 UNL     1      19.029  73.431  17.947  1.00  0.00     0.208 C
BRANCH  30  31
HETATM   31  O1  UNL     1      20.195  74.149  17.595  1.00  0.00    -0.396 OA
ATOM     32  H1  UNL     1      20.909  73.525  17.537  1.00  0.00     0.209 HD
ENDBRANCH  30  31
ENDBRANCH  29  30
ENDBRANCH  27  29
ENDBRANCH  24  27
ENDBRANCH  18  19
ENDBRANCH   1  17
TORSDOF 8
ENDMDL