MODEL 3
REMARK VINA RESULT: -6.302239242      1.383      1.669
REMARK  8 active torsions:
REMARK  status: ('A' for Active; 'I' for Inactive)
REMARK    1  A    between atoms: C3_3  and  C4_4
REMARK    2  A    between atoms: C4_4  and  N1_6
REMARK       I    between atoms: N1_6  and  C6_8
REMARK       I    between atoms: C6_8  and  N2_10
REMARK    3  A    between atoms: C9_14  and  C10_15
REMARK    4  A    between atoms: C10_15  and  O2_16
REMARK    5  A    between atoms: C10_15  and  C11_18
REMARK    6  A    between atoms: C11_18  and  C12_19
REMARK    7  A    between atoms: C12_19  and  N3_20
REMARK    8  A    between atoms: N4_24  and  S1_25
ROOT
HETATM    1  C1  UNL     1      15.248  81.893   6.987  1.00  0.00     0.112 C
HETATM    2  C2  UNL     1      14.445  81.273   8.045  1.00  0.00    -0.109 C
HETATM    3  C3  UNL     1      13.763  80.770   8.920  1.00  0.00    -0.082 C
ENDROOT
BRANCH   3   4
HETATM    4  C4  UNL     1      12.923  80.180   9.966  1.00  0.00     0.162 C
HETATM    5  C5  UNL     1      12.612  81.220  11.018  1.00  0.00     0.046 C
BRANCH   4   6
HETATM    6  N1  UNL     1      13.602  79.035  10.515  1.00  0.00    -0.328 N
HETATM    7  C6  UNL     1      13.560  77.747   9.906  1.00  0.00     0.322 C
HETATM    8  O1  UNL     1      12.933  77.513   8.852  1.00  0.00    -0.247 OA
HETATM    9  N2  UNL     1      14.255  76.663  10.506  1.00  0.00    -0.294 N
HETATM   10  C7  UNL     1      13.878  76.274  11.667  1.00  0.00     0.125 A
ATOM     11  H2  UNL     1      15.030  76.207  10.026  1.00  0.00     0.172 HD
HETATM   12  C8  UNL     1      14.440  75.229  12.410  1.00  0.00     0.080 A
HETATM   13  N6  UNL     1      12.891  76.753  12.431  1.00  0.00    -0.285 N
HETATM   14  C9  UNL     1      13.755  75.125  13.602  1.00  0.00     0.070 A
HETATM   15  N5  UNL     1      12.807  76.079  13.581  1.00  0.00    -0.300 N
ATOM     16  H5  UNL     1      12.132  76.258  14.325  1.00  0.00     0.186 HD
ATOM     17  H6  UNL     1      12.282  77.528  12.169  1.00  0.00     0.188 HD
ATOM     18  H1  UNL     1      14.134  79.151  11.377  1.00  0.00     0.165 HD
BRANCH  14  19
HETATM   19  C10 UNL     1      14.014  74.153  14.689  1.00  0.00     0.250 C
BRANCH  19  20
HETATM   20  O2  UNL     1      15.353  74.103  15.029  1.00  0.00    -0.377 OA
ATOM     21  H2  UNL     1      15.526  73.449  15.696  1.00  0.00     0.211 HD
ENDBRANCH  19  20
BRANCH  19  22
HETATM   22  C11 UNL     1      13.624  72.791  14.300  1.00  0.00    -0.038 C
BRANCH  22  23
HETATM   23  C12 UNL     1      13.308  71.667  13.959  1.00  0.00     0.119 C
BRANCH  23  24
HETATM   24  N3  UNL     1      12.964  70.360  13.559  1.00  0.00    -0.000 N
HETATM   25  C13 UNL     1      12.445  69.726  14.784  1.00  0.00     0.290 C
HETATM   26  C14 UNL     1      11.894  70.433  12.634  1.00  0.00     0.299 C
HETATM   27  C15 UNL     1      12.205  70.015  11.239  1.00  0.00     0.105 C
HETATM   28  N4  UNL     1      13.053  68.912  11.083  1.00  0.00    -0.287 N
HETATM   29  C17 UNL     1      14.018  68.667  12.085  1.00  0.00     0.169 C
HETATM   30  C18 UNL     1      14.135  69.676  13.159  1.00  0.00     0.275 C
BRANCH  28  31
HETATM   31  S1  UNL     1      12.449  67.570  10.266  1.00  0.00     0.228 S
HETATM   32  C16 UNL     1      13.669  66.586   9.463  1.00  0.00     0.186 C
HETATM   33  O3  UNL     1      11.441  68.005   9.242  1.00  0.00    -0.206 OA
HETATM   34  O4  UNL     1      11.693  66.692  11.253  1.00  0.00    -0.206 OA
ENDBRANCH  28  31
ENDBRANCH  23  24
ENDBRANCH  22  23
ENDBRANCH  19  22
ENDBRANCH  14  19
ENDBRANCH   4   6
ENDBRANCH   3   4
TORSDOF 8
ENDMDL