MODEL 5
REMARK VINA RESULT: -6.382084986      1.876      3.906
REMARK  6 active torsions:
REMARK  status: ('A' for Active; 'I' for Inactive)
REMARK       I    between atoms: N1_2  and  C2_4
REMARK    1  A    between atoms: C2_4  and  C3_6
REMARK    2  A    between atoms: C11_18  and  N4_19
REMARK    3  A    between atoms: N4_19  and  C12_21
REMARK    4  A    between atoms: C12_21  and  C13_23
REMARK    5  A    between atoms: C14_24  and  C15_25
REMARK    6  A    between atoms: C15_25  and  N5_26
ROOT
HETATM    1  C3  UNL     1      11.692  68.322  11.248  1.00  0.00     0.041 C
HETATM    2  C4  UNL     1      10.146  68.400  11.061  1.00  0.00     0.025 C
HETATM    3  C5  UNL     1      11.983  67.193  12.121  1.00  0.00     0.048 C
HETATM    4  C6  UNL     1      13.315  67.013  12.769  1.00  0.00     0.255 C
HETATM    5  N2  UNL     1      13.506  67.863  13.942  1.00  0.00    -0.004 N
HETATM    6  C7  UNL     1      14.252  67.264  14.940  1.00  0.00     0.290 C
HETATM    7  C8  UNL     1      12.313  68.330  14.407  1.00  0.00     0.139 C
HETATM    8  C9  UNL     1      11.442  68.870  14.554  1.00  0.00     0.043 C
HETATM    9  N3  UNL     1      10.466  69.815  14.380  1.00  0.00    -0.282 N
ATOM     10  H3  UNL     1       9.613  69.914  14.932  1.00  0.00     0.179 HD
HETATM   11  C10 UNL     1      10.897  70.699  13.194  1.00  0.00     0.257 C
HETATM   12  O2  UNL     1      10.065  71.463  12.922  1.00  0.00    -0.270 OA
HETATM   13  C11 UNL     1      12.234  70.583  12.475  1.00  0.00     0.116 C
HETATM   14  C19 UNL     1      13.398  70.332  13.379  1.00  0.00     0.070 C
HETATM   15  C20 UNL     1      14.184  69.114  13.473  1.00  0.00     0.256 C
HETATM   16  C21 UNL     1      12.285  69.643  11.366  1.00  0.00     0.060 C
ENDROOT
BRANCH  13  17
HETATM   17  N4  UNL     1      12.427  71.936  11.941  1.00  0.00    -0.356 N
ATOM     18  H4  UNL     1      12.191  72.057  10.956  1.00  0.00     0.162 HD
BRANCH  17  19
HETATM   19  C12 UNL     1      12.884  73.070  12.586  1.00  0.00     0.152 C
HETATM   20  S1  UNL     1      12.965  73.386  14.180  1.00  0.00    -0.051 SA
BRANCH  19  21
HETATM   21  C13 UNL     1      13.382  74.179  11.762  1.00  0.00    -0.035 C
HETATM   22  C14 UNL     1      13.784  75.108  11.096  1.00  0.00    -0.071 C
BRANCH  22  23
HETATM   23  C15 UNL     1      14.280  76.234  10.304  1.00  0.00     0.329 C
BRANCH  23  24
HETATM   24  N5  UNL     1      13.284  77.264  10.338  1.00  0.00    -0.069 N
HETATM   25  C16 UNL     1      13.828  78.409   9.590  1.00  0.00     0.272 C
HETATM   26  C17 UNL     1      12.064  76.885   9.695  1.00  0.00     0.272 C
HETATM   27  C18 UNL     1      13.052  77.752  11.687  1.00  0.00     0.272 C
ENDBRANCH  23  24
ENDBRANCH  22  23
ENDBRANCH  19  21
ENDBRANCH  17  19
ENDBRANCH  13  17
BRANCH   1  28
HETATM   28  C2  UNL     1      12.103  67.877   9.841  1.00  0.00     0.225 C
HETATM   29  N1  UNL     1      11.162  67.667   8.820  1.00  0.00    -0.365 N
HETATM   30  C1  UNL     1      11.522  67.246   7.481  1.00  0.00     0.149 C
ATOM     31  H1  UNL     1      10.175  67.819   9.032  1.00  0.00     0.161 HD
HETATM   32  O1  UNL     1      13.298  67.698   9.596  1.00  0.00    -0.273 OA
ENDBRANCH   1  28
TORSDOF 6
ENDMDL