MODEL 3
REMARK VINA RESULT: -7.271175868      5.042      8.156
REMARK  4 active torsions:
REMARK  status: ('A' for Active; 'I' for Inactive)
REMARK       I    between atoms: C2_2  and  N1_4
REMARK       I    between atoms: N2_7  and  C5_8
REMARK    1  A    between atoms: C5_8  and  C6_10
REMARK       I    between atoms: C6_10  and  N3_12
REMARK    2  A    between atoms: N3_12  and  C7_14
REMARK    3  A    between atoms: C7_14  and  C8_15
REMARK    4  A    between atoms: C8_15  and  N4_16
REMARK       I    between atoms: N4_16  and  C9_18
REMARK       I    between atoms: C9_18  and  N6_22
ROOT
HETATM    1  C8  UNL     1      11.406  71.517  15.203  1.00  0.00     0.157 C
ENDROOT
BRANCH   1   2
HETATM    2  C7  UNL     1      10.848  70.937  13.937  1.00  0.00     0.143 C
BRANCH   2   3
HETATM    3  N3  UNL     1      11.634  69.807  13.522  1.00  0.00    -0.351 N
HETATM    4  C6  UNL     1      12.609  69.953  12.503  1.00  0.00     0.309 C
HETATM    5  O3  UNL     1      12.794  71.064  11.970  1.00  0.00    -0.262 OA
ATOM      6  H3  UNL     1      11.489  68.898  13.962  1.00  0.00     0.162 HD
BRANCH   4   7
HETATM    7  C5  UNL     1      13.367  68.763  12.122  1.00  0.00     0.311 C
HETATM    8  N2  UNL     1      12.802  67.785  11.279  1.00  0.00    -0.341 N
HETATM    9  C4  UNL     1      11.447  67.871  10.727  1.00  0.00     0.146 C
HETATM   10  C19 UNL     1      13.623  66.607  10.938  1.00  0.00     0.146 C
HETATM   11  C3  UNL     1      11.217  66.722   9.753  1.00  0.00     0.145 C
HETATM   12  N1  UNL     1      12.371  66.706   8.881  1.00  0.00    -0.349 N
HETATM   13  C2  UNL     1      12.206  67.027   7.510  1.00  0.00     0.215 C
HETATM   14  C20 UNL     1      13.651  66.362   9.449  1.00  0.00     0.145 C
HETATM   15  C1  UNL     1      13.389  67.012   6.611  1.00  0.00     0.117 C
HETATM   16  O1  UNL     1      11.098  67.329   7.006  1.00  0.00    -0.274 OA
HETATM   17  O2  UNL     1      14.533  68.614  12.551  1.00  0.00    -0.262 OA
ENDBRANCH   4   7
ENDBRANCH   2   3
ENDBRANCH   1   2
BRANCH   1  18
HETATM   18  N4  UNL     1      12.758  72.041  14.979  1.00  0.00    -0.225 N
HETATM   19  C9  UNL     1      12.969  73.415  15.245  1.00  0.00     0.669 C
HETATM   20  N5  UNL     1      13.035  73.894  16.441  1.00  0.00    -0.235 N
HETATM   21  N6  UNL     1      13.110  74.278  14.120  1.00  0.00    -0.215 N
ATOM     22  H52 UNL     1      12.934  73.277  17.247  1.00  0.00     0.174 HD
ATOM     23  H51 UNL     1      13.186  74.885  16.632  1.00  0.00     0.174 HD
HETATM   24  C10 UNL     1      14.372  74.431  13.436  1.00  0.00     0.169 C
HETATM   25  C18 UNL     1      11.986  75.050  13.602  1.00  0.00     0.169 C
HETATM   26  C11 UNL     1      14.074  74.578  11.963  1.00  0.00     0.257 C
HETATM   27  N7  UNL     1      13.317  75.783  11.671  1.00  0.00    -0.064 N
HETATM   28  C12 UNL     1      14.284  76.831  11.408  1.00  0.00     0.237 C
HETATM   29  C16 UNL     1      12.505  75.491  10.507  1.00  0.00     0.237 C
HETATM   30  C17 UNL     1      12.453  76.182  12.742  1.00  0.00     0.257 C
HETATM   31  C13 UNL     1      14.648  76.767   9.929  1.00  0.00     0.028 C
HETATM   32  C14 UNL     1      13.481  77.385   9.178  1.00  0.00     0.003 C
HETATM   33  C15 UNL     1      12.225  76.720   9.679  1.00  0.00     0.028 C
ATOM     34  H4  UNL     1      13.513  71.441  14.647  1.00  0.00     0.177 HD
ENDBRANCH   1  18
TORSDOF 4
ENDMDL