MODEL 2
REMARK VINA RESULT: -5.823420419      2.175      3.794
REMARK  10 active torsions:
REMARK  status: ('A' for Active; 'I' for Inactive)
REMARK       I    between atoms: C2_2  and  N1_4
REMARK    1  A    between atoms: N1_4  and  C4_6
REMARK    2  A    between atoms: C10_12  and  N2_13
REMARK    3  A    between atoms: N2_13  and  C12_15
REMARK    4  A    between atoms: C12_15  and  O2_16
REMARK    5  A    between atoms: C12_15  and  C13_18
REMARK       I    between atoms: C13_18  and  N3_20
REMARK    6  A    between atoms: C15_25  and  C16_26
REMARK    7  A    between atoms: C17_27  and  C18_28
REMARK    8  A    between atoms: C18_28  and  C19_29
REMARK    9  A    between atoms: C19_29  and  N6_30
REMARK   10  A    between atoms: N6_30  and  N7_31
ROOT
HETATM    1  C4  UNL     1      13.235  72.820  14.326  1.00  0.00     0.218 C
HETATM    2  C5  UNL     1      11.939  73.568  14.675  1.00  0.00     0.065 C
HETATM    3  C6  UNL     1      11.884  74.615  13.585  1.00  0.00     0.037 C
HETATM    4  C7  UNL     1      12.659  73.936  12.485  1.00  0.00     0.189 C
HETATM    5  C8  UNL     1      11.836  72.978  11.747  1.00  0.00     0.035 C
HETATM    6  C9  UNL     1      12.356  71.614  11.509  1.00  0.00     0.029 C
HETATM    7  C10 UNL     1      13.208  70.984  12.581  1.00  0.00     0.106 C
HETATM    8  C15 UNL     1      12.846  71.388  13.954  1.00  0.00     0.145 C
HETATM    9  N8  UNL     1      13.777  73.447  13.198  1.00  0.00    -0.043 N
ATOM     10  H81 UNL     1      14.391  72.848  12.646  1.00  0.00     0.280 HD
ATOM     11  H82 UNL     1      14.475  74.159  13.414  1.00  0.00     0.280 HD
ENDROOT
BRANCH   7  12
HETATM   12  N2  UNL     1      12.957  69.537  12.440  1.00  0.00    -0.356 N
HETATM   13  C11 UNL     1      11.602  69.025  12.662  1.00  0.00     0.152 C
BRANCH  12  14
HETATM   14  C12 UNL     1      13.942  68.611  12.106  1.00  0.00     0.208 C
BRANCH  14  15
HETATM   15  O2  UNL     1      15.162  69.061  12.305  1.00  0.00    -0.342 OA
ATOM     16  H2  UNL     1      15.723  68.966  11.544  1.00  0.00     0.219 HD
ENDBRANCH  14  15
BRANCH  14  17
HETATM   17  C13 UNL     1      13.896  67.288  11.599  1.00  0.00     0.298 C
HETATM   18  O3  UNL     1      13.517  66.300  12.252  1.00  0.00    -0.263 OA
HETATM   19  N3  UNL     1      14.309  67.028  10.240  1.00  0.00    -0.296 N
HETATM   20  C14 UNL     1      13.456  67.158   9.282  1.00  0.00     0.203 C
ATOM     21  H3  UNL     1      15.268  66.744  10.039  1.00  0.00     0.171 HD
HETATM   22  N4  UNL     1      13.829  66.910   7.929  1.00  0.00    -0.066 NA
HETATM   23  N5  UNL     1      12.126  67.552   9.576  1.00  0.00    -0.066 NA
ENDBRANCH  14  17
ENDBRANCH  12  14
ENDBRANCH   7  12
BRANCH   8  24
HETATM   24  C16 UNL     1      13.457  70.491  14.928  1.00  0.00    -0.095 C
HETATM   25  C17 UNL     1      13.962  69.707  15.730  1.00  0.00    -0.100 C
BRANCH  25  26
HETATM   26  C18 UNL     1      14.538  68.762  16.684  1.00  0.00     0.155 C
BRANCH  26  27
HETATM   27  C19 UNL     1      15.578  67.943  16.005  1.00  0.00     0.193 C
BRANCH  27  28
HETATM   28  N6  UNL     1      15.208  66.976  15.309  1.00  0.00    -0.349 NA
BRANCH  28  29
HETATM   29  N7  UNL     1      14.793  65.921  14.821  1.00  0.00    -0.281 N
ATOM     30  H72 UNL     1      14.500  65.623  15.751  1.00  0.00     0.191 HD
ATOM     31  H71 UNL     1      14.512  65.121  14.254  1.00  0.00     0.191 HD
ENDBRANCH  28  29
ENDBRANCH  27  28
ENDBRANCH  26  27
ENDBRANCH  25  26
ENDBRANCH   8  24
BRANCH   1  32
HETATM   32  N1  UNL     1      14.059  72.825  15.507  1.00  0.00    -0.323 N
HETATM   33  C2  UNL     1      15.452  72.674  15.596  1.00  0.00     0.217 C
HETATM   34  C1  UNL     1      16.327  72.625  14.427  1.00  0.00     0.117 C
HETATM   35  O1  UNL     1      15.998  72.578  16.748  1.00  0.00    -0.274 OA
HETATM   36  C3  UNL     1      13.367  72.917  16.807  1.00  0.00     0.155 C
ENDBRANCH   1  32
TORSDOF 10
ENDMDL