MODEL 2
REMARK VINA RESULT: -6.641423142      4.707      8.621
REMARK  5 active torsions:
REMARK  status: ('A' for Active; 'I' for Inactive)
REMARK    1  A    between atoms: C2_2  and  N1_3
REMARK    2  A    between atoms: N1_3  and  C3_5
REMARK    3  A    between atoms: C3_5  and  N2_7
REMARK       I    between atoms: N3_10  and  C6_11
REMARK       I    between atoms: C6_11  and  N4_13
REMARK    4  A    between atoms: N4_13  and  C7_15
REMARK    5  A    between atoms: C7_15  and  C8_16
REMARK       I    between atoms: C8_16  and  N5_18
REMARK       I    between atoms: C9_20  and  N6_21
REMARK       I    between atoms: C9_20  and  N7_24
ROOT
HETATM    1  C7  UNL     1      13.635  69.717  11.879  1.00  0.00     0.227 C
ENDROOT
BRANCH   1   2
HETATM    2  N4  UNL     1      13.776  68.715  12.888  1.00  0.00    -0.334 N
HETATM    3  C6  UNL     1      14.569  68.891  14.048  1.00  0.00     0.318 C
HETATM    4  N3  UNL     1      14.716  67.914  15.060  1.00  0.00    -0.331 N
HETATM    5  O1  UNL     1      15.190  69.989  14.207  1.00  0.00    -0.247 OA
HETATM    6  C5  UNL     1      15.556  68.179  16.235  1.00  0.00     0.147 C
HETATM    7  C17 UNL     1      14.069  66.652  15.029  1.00  0.00     0.147 C
HETATM    8  C4  UNL     1      15.099  67.310  17.389  1.00  0.00     0.145 C
HETATM    9  N2  UNL     1      15.253  65.871  16.985  1.00  0.00    -0.355 N
HETATM   10  C18 UNL     1      15.041  65.586  15.602  1.00  0.00     0.145 C
ATOM     11  H4  UNL     1      13.283  67.831  12.766  1.00  0.00     0.164 HD
BRANCH   9  12
HETATM   12  C3  UNL     1      15.561  64.935  17.965  1.00  0.00     0.169 C
HETATM   13  S1  UNL     1      16.590  65.570  19.181  1.00  0.00    -0.041 SA
BRANCH  12  14
HETATM   14  N1  UNL     1      15.190  63.621  18.122  1.00  0.00    -0.367 N
ATOM     15  H1  UNL     1      15.935  62.950  17.932  1.00  0.00     0.161 HD
BRANCH  14  16
HETATM   16  C2  UNL     1      13.960  63.031  18.501  1.00  0.00     0.117 C
HETATM   17  C1  UNL     1      13.690  61.678  17.859  1.00  0.00     0.026 C
ENDBRANCH  14  16
ENDBRANCH  12  14
ENDBRANCH   9  12
ENDBRANCH   1   2
BRANCH   1  18
HETATM   18  C8  UNL     1      12.274  69.843  11.324  1.00  0.00     0.253 C
HETATM   19  O2  UNL     1      11.927  69.138  10.346  1.00  0.00    -0.271 OA
HETATM   20  N5  UNL     1      11.359  70.753  11.883  1.00  0.00    -0.159 N
HETATM   21  C9  UNL     1      10.387  70.487  12.671  1.00  0.00     0.678 C
ATOM     22  H5  UNL     1      11.485  71.735  11.633  1.00  0.00     0.187 HD
HETATM   23  N6  UNL     1       9.564  71.576  13.130  1.00  0.00    -0.230 N
HETATM   24  N7  UNL     1      10.053  69.189  13.130  1.00  0.00    -0.215 N
HETATM   25  C10 UNL     1       9.335  72.665  12.234  1.00  0.00     0.165 C
ATOM     26  H6  UNL     1       9.158  71.571  14.066  1.00  0.00     0.177 HD
HETATM   27  C11 UNL     1       9.016  68.399  12.499  1.00  0.00     0.169 C
HETATM   28  C16 UNL     1      10.733  68.568  14.273  1.00  0.00     0.169 C
HETATM   29  C12 UNL     1       7.960  68.032  13.515  1.00  0.00     0.257 C
HETATM   30  N8  UNL     1       8.504  67.675  14.803  1.00  0.00    -0.072 N
HETATM   31  C13 UNL     1       7.837  66.458  15.234  1.00  0.00     0.272 C
HETATM   32  C14 UNL     1       8.195  68.700  15.785  1.00  0.00     0.272 C
HETATM   33  C15 UNL     1       9.924  67.389  14.749  1.00  0.00     0.257 C
ENDBRANCH   1  18
TORSDOF 5
ENDMDL