MODEL 5
REMARK VINA RESULT: -6.441073111      1.623      8.804
REMARK  8 active torsions:
REMARK  status: ('A' for Active; 'I' for Inactive)
REMARK    1  A    between atoms: C3_3  and  N1_5
REMARK    2  A    between atoms: N2_8  and  C7_9
REMARK    3  A    between atoms: C7_9  and  O1_10
REMARK    4  A    between atoms: C7_9  and  N3_12
REMARK    5  A    between atoms: C10_15  and  C11_16
REMARK    6  A    between atoms: C11_16  and  N4_17
REMARK    7  A    between atoms: C11_16  and  N5_21
REMARK       I    between atoms: N5_21  and  C12_23
REMARK       I    between atoms: C12_23  and  N6_25
REMARK       I    between atoms: C13_27  and  N8_29
REMARK    8  A    between atoms: N8_29  and  C15_31
ROOT
HETATM    1  C1  UNL     1      13.704  62.559  17.917  1.00  0.00     0.014 C
HETATM    2  C2  UNL     1      14.439  63.511  17.866  1.00  0.00    -0.082 C
HETATM    3  C3  UNL     1      15.354  64.677  17.780  1.00  0.00     0.296 C
HETATM    4  C4  UNL     1      15.457  65.288  19.160  1.00  0.00     0.056 C
ENDROOT
BRANCH   3   5
HETATM    5  N1  UNL     1      14.739  65.660  16.909  1.00  0.00     0.107 N
HETATM    6  C5  UNL     1      15.738  66.161  16.010  1.00  0.00     0.294 C
HETATM    7  C6  UNL     1      15.727  67.702  16.045  1.00  0.00     0.156 C
HETATM    8  N2  UNL     1      14.390  68.083  15.793  1.00  0.00    -0.344 N
HETATM    9  C19 UNL     1      13.436  67.746  16.877  1.00  0.00     0.156 C
HETATM   10  C20 UNL     1      14.059  66.637  17.697  1.00  0.00     0.294 C
BRANCH   8  11
HETATM   11  C7  UNL     1      13.893  68.707  14.656  1.00  0.00     0.217 C
BRANCH  11  12
HETATM   12  O1  UNL     1      13.679  70.006  14.715  1.00  0.00    -0.333 OA
ATOM     13  H1  UNL     1      13.181  70.404  14.010  1.00  0.00     0.220 HD
ENDBRANCH  11  12
BRANCH  11  14
HETATM   14  N3  UNL     1      13.566  68.161  13.403  1.00  0.00    -0.347 N
HETATM   15  C8  UNL     1      12.753  67.041  13.030  1.00  0.00     0.127 C
HETATM   16  C9  UNL     1      12.631  67.052  11.518  1.00  0.00     0.030 C
HETATM   17  C10 UNL     1      13.015  68.490  11.172  1.00  0.00     0.055 C
HETATM   18  C18 UNL     1      14.100  68.730  12.158  1.00  0.00     0.134 C
BRANCH  17  19
HETATM   19  C11 UNL     1      11.798  69.338  11.325  1.00  0.00     0.291 C
BRANCH  19  20
HETATM   20  N4  UNL     1      10.825  68.859  10.325  1.00  0.00    -0.058 N
ATOM     21  H43 UNL     1      10.795  69.434   9.483  1.00  0.00     0.276 HD
ATOM     22  H42 UNL     1      11.106  67.989   9.874  1.00  0.00     0.276 HD
ATOM     23  H41 UNL     1       9.926  68.795  10.803  1.00  0.00     0.276 HD
ENDBRANCH  19  20
BRANCH  19  24
HETATM   24  N5  UNL     1      12.064  70.740  11.146  1.00  0.00    -0.314 N
HETATM   25  C12 UNL     1      11.786  71.641  12.196  1.00  0.00     0.324 C
HETATM   26  O2  UNL     1      11.308  71.236  13.281  1.00  0.00    -0.247 OA
HETATM   27  N6  UNL     1      12.047  73.016  12.028  1.00  0.00    -0.283 N
HETATM   28  C13 UNL     1      12.996  73.595  12.678  1.00  0.00     0.194 C
ATOM     29  H6  UNL     1      11.476  73.561  11.382  1.00  0.00     0.173 HD
HETATM   30  N7  UNL     1      13.777  72.806  13.573  1.00  0.00    -0.063 NA
HETATM   31  N8  UNL     1      13.270  74.980  12.516  1.00  0.00    -0.356 N
HETATM   32  C14 UNL     1      14.493  75.505  13.065  1.00  0.00     0.152 C
ATOM     33  H5  UNL     1      12.452  71.081  10.266  1.00  0.00     0.166 HD
BRANCH  31  34
HETATM   34  C15 UNL     1      12.312  75.789  11.815  1.00  0.00     0.078 C
HETATM   35  C16 UNL     1      12.789  76.194  10.440  1.00  0.00     0.032 C
HETATM   36  C17 UNL     1      12.007  77.023  12.646  1.00  0.00     0.032 C
ENDBRANCH  31  34
ENDBRANCH  19  24
ENDBRANCH  17  19
ENDBRANCH  11  14
ENDBRANCH   8  11
ENDBRANCH   3   5
TORSDOF 8
ENDMDL