MODEL 5
REMARK VINA RESULT: -6.514171411      2.167      3.742
REMARK  3 active torsions:
REMARK  status: ('A' for Active; 'I' for Inactive)
REMARK    1  A    between atoms: C2_2  and  N1_3
REMARK       I    between atoms: N1_3  and  C3_5
REMARK       I    between atoms: C3_5  and  N2_7
REMARK       I    between atoms: N3_14  and  C10_15
REMARK       I    between atoms: C10_15  and  N4_17
REMARK    2  A    between atoms: N4_17  and  C11_19
REMARK    3  A    between atoms: C11_19  and  C13_21
REMARK       I    between atoms: C13_21  and  N5_23
ROOT
HETATM    1  N1  UNL     1      11.918  67.224   9.335  1.00  0.00    -0.343 N
ATOM      2  H1  UNL     1      10.942  67.352   9.605  1.00  0.00     0.164 HD
HETATM    3  C3  UNL     1      12.925  67.611  10.248  1.00  0.00     0.318 C
HETATM    4  O1  UNL     1      14.125  67.427   9.854  1.00  0.00    -0.247 OA
HETATM    5  N2  UNL     1      12.712  68.171  11.524  1.00  0.00    -0.333 N
HETATM    6  C4  UNL     1      11.381  68.399  12.023  1.00  0.00     0.127 C
HETATM    7  C5  UNL     1      11.310  67.820  13.427  1.00  0.00     0.021 C
HETATM    8  C6  UNL     1      12.386  68.349  14.322  1.00  0.00     0.014 C
HETATM    9  C7  UNL     1      13.768  68.152  13.751  1.00  0.00    -0.006 C
HETATM   10  C8  UNL     1      14.065  66.652  13.873  1.00  0.00     0.033 C
HETATM   11  C9  UNL     1      14.355  66.550  15.347  1.00  0.00     0.128 C
HETATM   12  N3  UNL     1      14.887  67.837  15.749  1.00  0.00    -0.333 N
HETATM   13  C10 UNL     1      15.387  68.109  17.048  1.00  0.00     0.319 C
HETATM   14  O2  UNL     1      15.829  69.243  17.303  1.00  0.00    -0.247 OA
HETATM   15  N4  UNL     1      15.392  67.111  18.056  1.00  0.00    -0.330 N
ATOM     16  H4  UNL     1      15.026  66.187  17.828  1.00  0.00     0.165 HD
HETATM   17  C19 UNL     1      14.815  68.754  14.623  1.00  0.00     0.138 C
HETATM   18  C20 UNL     1      13.879  68.514  12.317  1.00  0.00     0.138 C
ENDROOT
BRANCH  15  19
HETATM   19  C11 UNL     1      15.897  67.348  19.403  1.00  0.00     0.174 C
HETATM   20  C12 UNL     1      14.895  68.118  20.232  1.00  0.00     0.042 C
BRANCH  19  21
HETATM   21  C13 UNL     1      16.285  66.073  20.031  1.00  0.00     0.249 C
HETATM   22  O3  UNL     1      17.451  66.032  20.553  1.00  0.00    -0.271 OA
HETATM   23  N5  UNL     1      15.501  64.903  20.110  1.00  0.00    -0.280 N
HETATM   24  C14 UNL     1      15.940  63.639  20.737  1.00  0.00     0.163 C
HETATM   25  C18 UNL     1      14.185  64.618  19.653  1.00  0.00     0.282 C
HETATM   26  C15 UNL     1      14.930  62.612  20.282  1.00  0.00     0.267 C
HETATM   27  N6  UNL     1      14.164  63.231  19.231  1.00  0.00    -0.013 N
HETATM   28  C16 UNL     1      14.703  63.059  17.920  1.00  0.00     0.283 C
HETATM   29  C17 UNL     1      12.792  62.803  19.359  1.00  0.00     0.283 C
HETATM   30  N7  UNL     1      13.222  65.443  19.635  1.00  0.00    -0.365 N
ATOM     31  H72 UNL     1      13.236  66.418  19.931  1.00  0.00     0.159 HD
ATOM     32  H71 UNL     1      12.277  65.239  19.307  1.00  0.00     0.159 HD
ENDBRANCH  19  21
ENDBRANCH  15  19
BRANCH   1  33
HETATM   33  C2  UNL     1      12.199  66.659   8.048  1.00  0.00     0.120 C
HETATM   34  C1  UNL     1      11.440  67.389   6.984  1.00  0.00     0.026 C
ENDBRANCH   1  33
TORSDOF 3
ENDMDL