MODEL 1
REMARK VINA RESULT: -8.793617588      0.000      0.000
REMARK  5 active torsions:
REMARK  status: ('A' for Active; 'I' for Inactive)
REMARK    1  A    between atoms: C2_2  and  N1_3
REMARK    2  A    between atoms: N2_8  and  C6_9
REMARK    3  A    between atoms: C6_9  and  C7_10
REMARK       I    between atoms: C7_10  and  N3_12
REMARK    4  A    between atoms: N3_12  and  C8_14
REMARK    5  A    between atoms: C19_26  and  O3_27
ROOT
HETATM    1  C8  UNL     1      18.442 -12.866  19.908  1.00  0.00     0.039 C
HETATM    2  C9  UNL     1      17.857 -11.523  20.312  1.00  0.00     0.039 C
HETATM    3  C10 UNL     1      19.967 -12.738  19.780  1.00  0.00     0.124 C
HETATM    4  C11 UNL     1      20.628 -13.016  20.984  1.00  0.00    -0.102 C
HETATM    5  C12 UNL     1      21.119 -13.249  21.977  1.00  0.00    -0.079 C
HETATM    6  C13 UNL     1      21.671 -13.545  23.240  1.00  0.00     0.330 C
HETATM    7  N4  UNL     1      20.729 -14.194  24.148  1.00  0.00    -0.055 N
HETATM    8  C14 UNL     1      20.410 -13.326  25.220  1.00  0.00     0.238 C
HETATM    9  C15 UNL     1      21.714 -13.149  25.969  1.00  0.00     0.030 C
HETATM   10  C16 UNL     1      22.534 -14.366  25.660  1.00  0.00     0.030 C
HETATM   11  C17 UNL     1      21.557 -15.198  24.859  1.00  0.00     0.238 C
HETATM   12  C18 UNL     1      19.690 -14.879  23.491  1.00  0.00     0.270 C
HETATM   13  C19 UNL     1      18.327 -14.373  23.417  1.00  0.00     0.144 C
HETATM   14  C20 UNL     1      17.917 -13.450  22.314  1.00  0.00     0.036 C
HETATM   15  C21 UNL     1      18.142 -13.939  20.932  1.00  0.00     0.034 C
ENDROOT
BRANCH   1  16
HETATM   16  N3  UNL     1      17.899 -13.257  18.664  1.00  0.00    -0.350 N
HETATM   17  C7  UNL     1      16.544 -13.531  18.342  1.00  0.00     0.244 C
HETATM   18  O2  UNL     1      15.719 -13.409  19.280  1.00  0.00    -0.272 OA
ATOM     19  H3  UNL     1      18.567 -13.355  17.899  1.00  0.00     0.163 HD
BRANCH  17  20
HETATM   20  C6  UNL     1      16.089 -13.933  17.019  1.00  0.00     0.342 C
BRANCH  20  21
HETATM   21  N2  UNL     1      15.997 -12.896  16.023  1.00  0.00    -0.035 N
HETATM   22  C5  UNL     1      15.158 -11.782  16.413  1.00  0.00     0.405 C
HETATM   23  O1  UNL     1      15.718 -10.536  16.115  1.00  0.00    -0.362 OA
HETATM   24  C4  UNL     1      15.414 -10.137  14.815  1.00  0.00     0.198 C
HETATM   25  C3  UNL     1      16.586 -10.410  13.953  1.00  0.00     0.263 C
HETATM   26  N1  UNL     1      16.821 -11.777  13.598  1.00  0.00    -0.062 N
HETATM   27  C23 UNL     1      17.835 -12.398  14.442  1.00  0.00     0.265 C
HETATM   28  C25 UNL     1      15.689 -12.635  13.584  1.00  0.00     0.265 C
HETATM   29  C22 UNL     1      17.354 -12.399  15.860  1.00  0.00     0.268 C
HETATM   30  C24 UNL     1      15.479 -13.472  14.811  1.00  0.00     0.268 C
BRANCH  26  31
HETATM   31  C2  UNL     1      17.421 -11.734  12.255  1.00  0.00     0.233 C
HETATM   32  C1  UNL     1      16.631 -10.893  11.300  1.00  0.00     0.035 C
ENDBRANCH  26  31
ENDBRANCH  20  21
ENDBRANCH  17  20
ENDBRANCH   1  16
BRANCH  13  33
HETATM   33  O3  UNL     1      17.782 -13.854  24.588  1.00  0.00    -0.394 OA
ATOM     34  H3  UNL     1      17.008 -13.311  24.500  1.00  0.00     0.210 HD
ENDBRANCH  13  33
TORSDOF 5
ENDMDL