MODEL 4
REMARK VINA RESULT: -7.521460576      3.380      6.966
REMARK  9 active torsions:
REMARK  status: ('A' for Active; 'I' for Inactive)
REMARK    1  A    between atoms: C2_2  and  C3_3
REMARK    2  A    between atoms: C4_4  and  N1_5
REMARK    3  A    between atoms: N2_9  and  C8_10
REMARK    4  A    between atoms: C8_10  and  O1_11
REMARK    5  A    between atoms: C8_10  and  C9_13
REMARK    6  A    between atoms: C9_13  and  N3_14
REMARK    7  A    between atoms: C9_13  and  C17_29
REMARK       I    between atoms: N3_14  and  C10_16
REMARK    8  A    between atoms: C10_16  and  C11_18
REMARK    9  A    between atoms: C15_25  and  C16_26
ROOT
HETATM    1  C9  UNL     1      15.466 -12.861  18.473  1.00  0.00     0.162 C
ENDROOT
BRANCH   1   2
HETATM    2  C8  UNL     1      16.734 -12.940  19.190  1.00  0.00     0.137 C
BRANCH   2   3
HETATM    3  N2  UNL     1      17.063 -13.171  20.524  1.00  0.00    -0.360 N
HETATM    4  C7  UNL     1      17.519 -12.141  21.425  1.00  0.00     0.156 C
HETATM    5  C6  UNL     1      18.277 -12.743  22.592  1.00  0.00     0.309 C
HETATM    6  N1  UNL     1      19.400 -13.542  22.252  1.00  0.00     0.152 N
HETATM    7  C5  UNL     1      20.138 -12.921  21.180  1.00  0.00     0.328 C
HETATM    8  N5  UNL     1      19.146 -14.888  22.012  1.00  0.00     0.093 N
HETATM    9  C21 UNL     1      18.292 -15.168  20.910  1.00  0.00     0.292 C
HETATM   10  C22 UNL     1      20.454 -15.481  21.655  1.00  0.00     0.310 C
HETATM   11  C23 UNL     1      18.723 -15.583  23.190  1.00  0.00     0.310 C
HETATM   12  C20 UNL     1      16.923 -14.585  20.986  1.00  0.00     0.155 C
BRANCH   6  13
HETATM   13  C4  UNL     1      20.272 -13.521  23.383  1.00  0.00     0.149 C
HETATM   14  C3  UNL     1      20.995 -13.485  24.349  1.00  0.00    -0.074 C
BRANCH  14  15
HETATM   15  C2  UNL     1      21.868 -13.413  25.545  1.00  0.00     0.091 C
HETATM   16  C1  UNL     1      21.117 -12.720  26.686  1.00  0.00     0.018 C
ENDBRANCH  14  15
ENDBRANCH   6  13
ENDBRANCH   2   3
BRANCH   2  17
HETATM   17  O1  UNL     1      17.779 -12.752  18.425  1.00  0.00    -0.348 OA
ATOM     18  H1  UNL     1      18.048 -13.535  17.959  1.00  0.00     0.219 HD
ENDBRANCH   2  17
ENDBRANCH   1   2
BRANCH   1  19
HETATM   19  N3  UNL     1      14.550 -11.914  19.200  1.00  0.00    -0.348 N
HETATM   20  C10 UNL     1      13.615 -12.394  20.138  1.00  0.00     0.223 C
HETATM   21  O2  UNL     1      13.551 -13.648  20.374  1.00  0.00    -0.273 OA
ATOM     22  H3  UNL     1      14.606 -10.913  19.011  1.00  0.00     0.163 HD
BRANCH  20  23
HETATM   23  C11 UNL     1      12.687 -11.510  20.878  1.00  0.00     0.095 C
HETATM   24  C12 UNL     1      11.872 -12.404  21.789  1.00  0.00     0.042 C
HETATM   25  C13 UNL     1      11.103 -11.648  22.841  1.00  0.00     0.233 C
HETATM   26  N4  UNL     1      11.266 -10.239  22.621  1.00  0.00    -0.074 N
HETATM   27  C14 UNL     1      12.670  -9.904  22.784  1.00  0.00     0.248 C
ATOM     28  H42 UNL     1      10.895  -9.939  21.719  1.00  0.00     0.277 HD
ATOM     29  H41 UNL     1      10.658  -9.678  23.217  1.00  0.00     0.277 HD
HETATM   30  C15 UNL     1      13.497 -10.506  21.659  1.00  0.00     0.125 C
BRANCH  30  31
HETATM   31  C16 UNL     1      13.888  -9.404  20.751  1.00  0.00     0.179 C
HETATM   32  O3  UNL     1      14.883  -8.664  20.893  1.00  0.00    -0.648 OA
HETATM   33  O4  UNL     1      13.049  -9.188  19.638  1.00  0.00    -0.648 OA
ENDBRANCH  30  31
ENDBRANCH  20  23
ENDBRANCH   1  19
BRANCH   1  34
HETATM   34  C17 UNL     1      15.497 -12.378  17.057  1.00  0.00     0.008 C
HETATM   35  C18 UNL     1      15.532 -13.477  16.022  1.00  0.00     0.012 C
HETATM   36  C19 UNL     1      14.643 -11.229  16.670  1.00  0.00     0.012 C
ENDBRANCH   1  34
TORSDOF 9
ENDMDL