MODEL 4
REMARK VINA RESULT: -7.519077327      2.121      3.247
REMARK  7 active torsions:
REMARK  status: ('A' for Active; 'I' for Inactive)
REMARK    1  A    between atoms: C2_2  and  N1_3
REMARK    2  A    between atoms: C2_2  and  C16_25
REMARK       I    between atoms: N1_3  and  C3_5
REMARK    3  A    between atoms: C3_5  and  C4_7
REMARK    4  A    between atoms: C9_15  and  N3_16
REMARK    5  A    between atoms: N3_16  and  C10_17
REMARK    6  A    between atoms: C10_17  and  C11_18
REMARK    7  A    between atoms: C11_18  and  O2_19
REMARK       I    between atoms: C16_25  and  N4_27
ROOT
HETATM    1  C4  UNL     1      20.593 -15.951  22.853  1.00  0.00     0.308 C
HETATM    2  N2  UNL     1      19.668 -17.062  23.234  1.00  0.00    -0.059 N
ATOM      3  H21 UNL     1      20.135 -17.854  23.676  1.00  0.00     0.278 HD
ATOM      4  H22 UNL     1      19.291 -17.576  22.438  1.00  0.00     0.278 HD
HETATM    5  C5  UNL     1      18.692 -16.461  24.036  1.00  0.00     0.244 C
HETATM    6  C6  UNL     1      19.265 -15.130  24.608  1.00  0.00     0.008 C
HETATM    7  C7  UNL     1      18.409 -14.070  24.070  1.00  0.00     0.019 C
HETATM    8  C8  UNL     1      18.937 -15.311  26.085  1.00  0.00     0.019 C
HETATM    9  C9  UNL     1      20.675 -15.280  24.196  1.00  0.00     0.239 C
ENDROOT
BRANCH   1  10
HETATM   10  C3  UNL     1      19.948 -15.317  21.711  1.00  0.00     0.251 C
HETATM   11  N1  UNL     1      20.020 -14.050  21.200  1.00  0.00    -0.346 N
ATOM     12  H1  UNL     1      20.683 -13.454  21.695  1.00  0.00     0.163 HD
HETATM   13  O1  UNL     1      19.154 -16.103  21.050  1.00  0.00    -0.271 OA
BRANCH  11  14
HETATM   14  C2  UNL     1      19.356 -13.375  20.106  1.00  0.00     0.172 C
HETATM   15  C1  UNL     1      20.390 -12.710  19.171  1.00  0.00     0.042 C
BRANCH  14  16
HETATM   16  C16 UNL     1      18.346 -12.430  20.544  1.00  0.00     0.242 C
HETATM   17  O3  UNL     1      18.669 -11.209  20.588  1.00  0.00    -0.271 OA
HETATM   18  N4  UNL     1      17.043 -12.753  20.926  1.00  0.00    -0.347 N
HETATM   19  C17 UNL     1      16.066 -11.676  21.264  1.00  0.00     0.154 C
HETATM   20  C24 UNL     1      16.440 -14.054  21.106  1.00  0.00     0.154 C
HETATM   21  C18 UNL     1      14.944 -11.785  20.271  1.00  0.00     0.257 C
HETATM   22  N5  UNL     1      14.448 -13.077  19.994  1.00  0.00    -0.064 N
HETATM   23  C19 UNL     1      13.191 -13.415  20.644  1.00  0.00     0.237 C
HETATM   24  C22 UNL     1      14.016 -13.079  18.575  1.00  0.00     0.237 C
HETATM   25  C23 UNL     1      15.334 -14.183  20.108  1.00  0.00     0.257 C
HETATM   26  C20 UNL     1      12.531 -14.436  19.743  1.00  0.00     0.029 C
HETATM   27  C21 UNL     1      13.268 -14.385  18.425  1.00  0.00     0.029 C
ENDBRANCH  14  16
ENDBRANCH  11  14
ENDBRANCH   1  10
BRANCH   9  28
HETATM   28  N3  UNL     1      21.751 -14.493  24.565  1.00  0.00    -0.058 N
HETATM   29  C12 UNL     1      22.868 -15.507  24.649  1.00  0.00     0.238 C
HETATM   30  C13 UNL     1      24.137 -14.802  24.800  1.00  0.00     0.029 C
HETATM   31  C14 UNL     1      23.859 -13.476  24.170  1.00  0.00     0.029 C
HETATM   32  C15 UNL     1      22.470 -13.699  23.610  1.00  0.00     0.238 C
BRANCH  28  33
HETATM   33  C10 UNL     1      21.759 -13.894  25.850  1.00  0.00     0.264 C
BRANCH  33  34
HETATM   34  C11 UNL     1      21.145 -12.602  26.155  1.00  0.00     0.192 C
BRANCH  34  35
HETATM   35  O2  UNL     1      21.141 -12.101  27.425  1.00  0.00    -0.399 OA
ATOM     36  H2  UNL     1      21.585 -12.550  28.134  1.00  0.00     0.209 HD
ENDBRANCH  34  35
ENDBRANCH  33  34
ENDBRANCH  28  33
ENDBRANCH   9  28
TORSDOF 7
ENDMDL