MODEL 3
REMARK VINA RESULT: -8.007556780      1.638      1.879
REMARK  5 active torsions:
REMARK  status: ('A' for Active; 'I' for Inactive)
REMARK    1  A    between atoms: C2_2  and  C4_4
REMARK    2  A    between atoms: C4_4  and  N1_5
REMARK    3  A    between atoms: C4_4  and  C18_24
REMARK       I    between atoms: N1_5  and  C5_7
REMARK       I    between atoms: C5_7  and  N2_9
REMARK    4  A    between atoms: N4_15  and  C10_16
REMARK    5  A    between atoms: C10_16  and  C11_17
REMARK       I    between atoms: C18_24  and  N5_26
REMARK       I    between atoms: N6_29  and  C21_30
ROOT
HETATM    1  N1  UNL     1      15.892 -14.327  20.734  1.00  0.00    -0.326 N
ATOM      2  H1  UNL     1      15.755 -14.928  21.547  1.00  0.00     0.165 HD
HETATM    3  C5  UNL     1      17.196 -13.980  20.384  1.00  0.00     0.319 C
HETATM    4  O1  UNL     1      17.393 -13.247  19.391  1.00  0.00    -0.247 OA
HETATM    5  N2  UNL     1      18.293 -14.441  21.130  1.00  0.00    -0.331 N
HETATM    6  C6  UNL     1      18.242 -15.279  22.298  1.00  0.00     0.155 C
HETATM    7  C7  UNL     1      19.312 -14.960  23.319  1.00  0.00     0.257 C
HETATM    8  N3  UNL     1      20.643 -14.899  22.765  1.00  0.00    -0.061 N
HETATM    9  C8  UNL     1      21.376 -16.065  23.218  1.00  0.00     0.268 C
HETATM   10  C9  UNL     1      21.912 -15.889  24.624  1.00  0.00     0.300 C
HETATM   11  N4  UNL     1      22.823 -14.795  24.680  1.00  0.00     0.092 N
HETATM   12  C14 UNL     1      22.668 -13.819  23.648  1.00  0.00     0.300 C
HETATM   13  C15 UNL     1      21.234 -13.654  23.204  1.00  0.00     0.268 C
HETATM   14  C16 UNL     1      20.627 -14.993  21.306  1.00  0.00     0.257 C
HETATM   15  C17 UNL     1      19.638 -14.048  20.695  1.00  0.00     0.155 C
ENDROOT
BRANCH   1  16
HETATM   16  C4  UNL     1      14.705 -13.876  19.999  1.00  0.00     0.207 C
BRANCH  16  17
HETATM   17  C2  UNL     1      14.331 -15.052  19.133  1.00  0.00    -0.061 C
HETATM   18  C1  UNL     1      13.634 -14.863  18.060  1.00  0.00     0.016 C
HETATM   19  C3  UNL     1      14.751 -16.398  19.568  1.00  0.00     0.045 C
ENDBRANCH  16  17
BRANCH  16  20
HETATM   20  C18 UNL     1      13.606 -13.549  20.893  1.00  0.00     0.248 C
HETATM   21  O2  UNL     1      12.856 -14.459  21.320  1.00  0.00    -0.271 OA
HETATM   22  N5  UNL     1      13.363 -12.222  21.300  1.00  0.00    -0.332 N
HETATM   23  C19 UNL     1      14.104 -11.022  20.995  1.00  0.00     0.147 C
HETATM   24  C22 UNL     1      12.233 -11.852  22.154  1.00  0.00     0.254 C
HETATM   25  C20 UNL     1      13.266  -9.859  21.494  1.00  0.00     0.147 C
HETATM   26  N6  UNL     1      12.374 -10.458  22.456  1.00  0.00    -0.338 N
HETATM   27  C21 UNL     1      11.743  -9.796  23.518  1.00  0.00     0.185 C
HETATM   28  N7  UNL     1      10.684 -10.273  24.072  1.00  0.00    -0.374 N
HETATM   29  N8  UNL     1      12.247  -8.565  24.023  1.00  0.00    -0.064 NA
ATOM     30  H72 UNL     1      10.322 -11.156  23.710  1.00  0.00     0.158 HD
ATOM     31  H71 UNL     1      10.224  -9.792  24.845  1.00  0.00     0.158 HD
ENDBRANCH  16  20
ENDBRANCH   1  16
BRANCH  11  32
HETATM   32  C10 UNL     1      24.196 -15.179  24.784  1.00  0.00     0.277 C
BRANCH  32  33
HETATM   33  C11 UNL     1      24.473 -16.593  25.199  1.00  0.00     0.014 A
HETATM   34  C12 UNL     1      25.668 -17.239  24.476  1.00  0.00     0.007 A
HETATM   35  C13 UNL     1      25.662 -17.012  25.962  1.00  0.00     0.007 A
ENDBRANCH  32  33
ENDBRANCH  11  32
TORSDOF 5
ENDMDL