MODEL 1
REMARK VINA RESULT: -8.255768689      0.000      0.000
REMARK  5 active torsions:
REMARK  status: ('A' for Active; 'I' for Inactive)
REMARK    1  A    between atoms: N1_2  and  C2_3
REMARK    2  A    between atoms: C2_3  and  C3_4
REMARK       I    between atoms: N3_9  and  C6_10
REMARK    3  A    between atoms: C6_10  and  C7_12
REMARK    4  A    between atoms: N4_14  and  C10_16
REMARK    5  A    between atoms: C10_16  and  C11_17
REMARK       I    between atoms: N5_27  and  C21_28
ROOT
HETATM    1  C7  UNL     1      17.069 -13.130  18.942  1.00  0.00     0.205 C
HETATM    2  C8  UNL     1      17.840 -12.945  20.225  1.00  0.00     0.272 C
HETATM    3  N4  UNL     1      17.743 -14.128  21.041  1.00  0.00    -0.064 N
HETATM    4  C9  UNL     1      16.835 -13.925  22.151  1.00  0.00     0.273 C
HETATM    5  C19 UNL     1      17.428 -15.311  20.270  1.00  0.00     0.257 C
HETATM    6  C20 UNL     1      16.112 -15.291  19.575  1.00  0.00     0.154 C
HETATM    7  N5  UNL     1      15.861 -13.897  19.169  1.00  0.00    -0.339 N
HETATM    8  C21 UNL     1      14.553 -13.372  19.039  1.00  0.00     0.184 C
HETATM    9  N6  UNL     1      13.593 -14.114  18.619  1.00  0.00    -0.374 N
ATOM     10  H61 UNL     1      12.651 -13.734  18.525  1.00  0.00     0.158 HD
ATOM     11  H62 UNL     1      13.781 -15.087  18.379  1.00  0.00     0.158 HD
HETATM   12  N7  UNL     1      14.294 -12.025  19.371  1.00  0.00    -0.064 NA
ENDROOT
BRANCH   1  13
HETATM   13  C6  UNL     1      16.842 -11.911  18.175  1.00  0.00     0.244 C
HETATM   14  N3  UNL     1      16.651 -11.951  16.777  1.00  0.00    -0.347 N
HETATM   15  C5  UNL     1      16.383 -10.697  16.057  1.00  0.00     0.154 C
HETATM   16  C22 UNL     1      16.727 -13.122  15.943  1.00  0.00     0.154 C
HETATM   17  C4  UNL     1      15.600 -11.009  14.825  1.00  0.00     0.257 C
HETATM   18  N1  UNL     1      16.319 -11.864  13.881  1.00  0.00    -0.060 N
HETATM   19  C1  UNL     1      17.060 -10.974  13.013  1.00  0.00     0.273 C
HETATM   20  C23 UNL     1      17.275 -12.706  14.574  1.00  0.00     0.257 C
HETATM   21  O2  UNL     1      16.819 -10.773  18.775  1.00  0.00    -0.271 OA
BRANCH  18  22
HETATM   22  C2  UNL     1      15.334 -12.582  13.135  1.00  0.00     0.336 C
BRANCH  22  23
HETATM   23  C3  UNL     1      14.699 -11.877  12.028  1.00  0.00     0.257 C
HETATM   24  N2  UNL     1      13.677 -10.913  12.131  1.00  0.00    -0.061 NA
HETATM   25  O1  UNL     1      15.098 -12.149  10.855  1.00  0.00    -0.275 OA
ENDBRANCH  22  23
ENDBRANCH  18  22
ENDBRANCH   1  13
BRANCH   3  26
HETATM   26  C10 UNL     1      19.054 -14.440  21.656  1.00  0.00     0.265 C
BRANCH  26  27
HETATM   27  C11 UNL     1      19.173 -13.863  23.019  1.00  0.00     0.003 C
HETATM   28  C12 UNL     1      20.303 -13.633  23.659  1.00  0.00    -0.082 C
HETATM   29  C13 UNL     1      21.528 -13.991  22.926  1.00  0.00     0.034 C
HETATM   30  C18 UNL     1      20.111 -13.051  25.008  1.00  0.00     0.034 C
HETATM   31  C14 UNL     1      22.800 -13.516  23.592  1.00  0.00     0.004 C
HETATM   32  C15 UNL     1      23.128 -14.265  24.836  1.00  0.00     0.000 C
HETATM   33  C16 UNL     1      21.999 -14.354  25.813  1.00  0.00     0.000 C
HETATM   34  C17 UNL     1      21.335 -12.983  25.850  1.00  0.00     0.004 C
ENDBRANCH  26  27
ENDBRANCH   3  26
TORSDOF 5
ENDMDL