MODEL 1
REMARK VINA RESULT: -8.737645006      0.000      0.000
REMARK  8 active torsions:
REMARK  status: ('A' for Active; 'I' for Inactive)
REMARK    1  A    between atoms: C2_2  and  C3_3
REMARK    2  A    between atoms: C2_2  and  N7_34
REMARK       I    between atoms: C3_3  and  N1_5
REMARK    3  A    between atoms: N1_5  and  C4_7
REMARK    4  A    between atoms: C4_7  and  C6_9
REMARK       I    between atoms: C6_9  and  N2_11
REMARK    5  A    between atoms: N2_11  and  C7_13
REMARK    6  A    between atoms: C9_15  and  C10_16
REMARK    7  A    between atoms: C16_27  and  N6_28
REMARK    8  A    between atoms: N6_28  and  C17_30
ROOT
HETATM    1  C7  UNL     1      13.798 -13.095  19.218  1.00  0.00     0.082 A
HETATM    2  C8  UNL     1      13.230 -12.670  20.418  1.00  0.00     0.065 A
HETATM    3  C9  UNL     1      13.011 -11.343  20.703  1.00  0.00     0.062 A
HETATM    4  N4  UNL     1      13.387 -10.479  19.736  1.00  0.00    -0.298 N
ATOM      5  H4  UNL     1      13.247  -9.481  19.896  1.00  0.00     0.187 HD
HETATM    6  N5  UNL     1      13.933 -10.867  18.580  1.00  0.00    -0.283 N
ATOM      7  H5  UNL     1      14.193 -10.157  17.896  1.00  0.00     0.188 HD
HETATM    8  C16 UNL     1      14.151 -12.155  18.288  1.00  0.00     0.143 A
ENDROOT
BRANCH   1   9
HETATM    9  N2  UNL     1      13.990 -14.328  18.974  1.00  0.00    -0.322 N
HETATM   10  C6  UNL     1      14.176 -15.331  19.965  1.00  0.00     0.244 C
HETATM   11  O2  UNL     1      13.260 -15.658  20.766  1.00  0.00    -0.271 OA
ATOM     12  H2  UNL     1      14.012 -14.619  17.997  1.00  0.00     0.169 HD
BRANCH  10  13
HETATM   13  C4  UNL     1      15.520 -15.974  20.003  1.00  0.00     0.173 C
HETATM   14  C5  UNL     1      15.876 -16.312  18.563  1.00  0.00     0.042 C
BRANCH  13  15
HETATM   15  N1  UNL     1      16.526 -15.056  20.511  1.00  0.00    -0.343 N
HETATM   16  C3  UNL     1      17.053 -15.277  21.801  1.00  0.00     0.268 C
HETATM   17  O1  UNL     1      16.615 -16.269  22.442  1.00  0.00    -0.266 OA
ATOM     18  H1  UNL     1      16.843 -14.269  19.946  1.00  0.00     0.163 HD
BRANCH  16  19
HETATM   19  C2  UNL     1      18.062 -14.366  22.322  1.00  0.00     0.097 C
HETATM   20  C1  UNL     1      18.259 -14.208  23.599  1.00  0.00     0.049 C
BRANCH  19  21
HETATM   21  N7  UNL     1      18.833 -13.603  21.409  1.00  0.00    -0.329 N
HETATM   22  C21 UNL     1      18.568 -12.267  21.324  1.00  0.00     0.097 A
HETATM   23  C22 UNL     1      19.282 -11.437  20.493  1.00  0.00     0.018 A
HETATM   24  C23 UNL     1      20.290 -11.960  19.723  1.00  0.00     0.003 A
HETATM   25  C24 UNL     1      20.579 -13.303  19.789  1.00  0.00     0.018 A
HETATM   26  C25 UNL     1      19.815 -14.082  20.652  1.00  0.00     0.097 A
ENDBRANCH  19  21
ENDBRANCH  16  19
ENDBRANCH  13  15
ENDBRANCH  10  13
ENDBRANCH   1   9
BRANCH   8  27
HETATM   27  N6  UNL     1      14.665 -12.555  17.205  1.00  0.00    -0.365 N
ATOM     28  H6  UNL     1      14.017 -13.024  16.572  1.00  0.00     0.162 HD
BRANCH  27  29
HETATM   29  C17 UNL     1      16.003 -12.457  16.727  1.00  0.00     0.021 C
HETATM   30  C18 UNL     1      17.023 -12.639  17.831  1.00  0.00     0.037 C
HETATM   31  C19 UNL     1      16.169 -13.596  15.701  1.00  0.00     0.037 C
HETATM   32  C20 UNL     1      16.305 -11.178  16.012  1.00  0.00     0.037 C
ENDBRANCH  27  29
ENDBRANCH   8  27
BRANCH   3  33
HETATM   33  C10 UNL     1      12.408 -10.891  21.980  1.00  0.00     0.008 A
HETATM   34  C11 UNL     1      11.604 -11.736  22.708  1.00  0.00     0.016 A
HETATM   35  C12 UNL     1      11.050 -11.305  23.893  1.00  0.00     0.018 A
HETATM   36  C13 UNL     1      11.320 -10.028  24.314  1.00  0.00     0.090 A
HETATM   37  N3  UNL     1      12.105  -9.208  23.597  1.00  0.00    -0.370 N
HETATM   38  C14 UNL     1      12.377  -7.854  24.068  1.00  0.00     0.154 C
HETATM   39  C15 UNL     1      12.653  -9.632  22.429  1.00  0.00     0.103 A
ENDBRANCH   3  33
TORSDOF 8
ENDMDL