MODEL 2
REMARK VINA RESULT: -8.293003595      2.198      8.784
REMARK  8 active torsions:
REMARK  status: ('A' for Active; 'I' for Inactive)
REMARK       I    between atoms: C2_2  and  N1_4
REMARK    1  A    between atoms: N1_4  and  C3_6
REMARK    2  A    between atoms: C7_11  and  N3_12
REMARK    3  A    between atoms: N3_12  and  C10_15
REMARK    4  A    between atoms: C10_15  and  C11_16
REMARK    5  A    between atoms: C12_17  and  C13_18
REMARK    6  A    between atoms: C13_18  and  N4_19
REMARK    7  A    between atoms: C15_21  and  O2_22
REMARK    8  A    between atoms: C16_24  and  O3_25
ROOT
HETATM    1  N3  UNL     1      19.200 -12.472  19.271  1.00  0.00    -0.059 N
HETATM    2  C8  UNL     1      19.500 -11.755  18.047  1.00  0.00     0.273 C
HETATM    3  C9  UNL     1      19.284 -11.555  20.395  1.00  0.00     0.273 C
ENDROOT
BRANCH   1   4
HETATM    4  C7  UNL     1      17.874 -13.030  19.268  1.00  0.00     0.218 C
HETATM    5  C6  UNL     1      17.613 -13.757  20.558  1.00  0.00     0.063 C
HETATM    6  C5  UNL     1      16.566 -12.879  21.217  1.00  0.00     0.239 C
HETATM    7  N2  UNL     1      15.824 -12.376  20.093  1.00  0.00    -0.063 N
HETATM    8  C4  UNL     1      15.076 -11.191  20.463  1.00  0.00     0.263 C
HETATM    9  C22 UNL     1      16.786 -12.026  19.074  1.00  0.00     0.271 C
HETATM   10  C23 UNL     1      14.866 -13.340  19.603  1.00  0.00     0.243 C
HETATM   11  C3  UNL     1      13.634 -11.625  20.632  1.00  0.00     0.115 C
HETATM   12  C24 UNL     1      13.688 -13.123  20.525  1.00  0.00     0.032 C
HETATM   13  C25 UNL     1      12.419 -13.735  20.011  1.00  0.00     0.014 C
BRANCH  11  14
HETATM   14  N1  UNL     1      13.212 -11.228  21.945  1.00  0.00    -0.355 N
HETATM   15  C2  UNL     1      12.264 -10.202  22.139  1.00  0.00     0.213 C
HETATM   16  C1  UNL     1      11.823  -9.787  23.488  1.00  0.00     0.117 C
HETATM   17  O1  UNL     1      11.777  -9.622  21.146  1.00  0.00    -0.274 OA
ATOM     18  H1  UNL     1      13.606 -11.701  22.758  1.00  0.00     0.162 HD
ENDBRANCH  11  14
ENDBRANCH   1   4
BRANCH   1  19
HETATM   19  C10 UNL     1      20.192 -13.520  19.407  1.00  0.00     0.330 C
BRANCH  19  20
HETATM   20  C11 UNL     1      20.714 -13.502  20.796  1.00  0.00    -0.077 C
HETATM   21  C12 UNL     1      21.151 -13.503  21.919  1.00  0.00    -0.077 C
BRANCH  21  22
HETATM   22  C13 UNL     1      21.703 -13.519  23.279  1.00  0.00     0.332 C
BRANCH  22  23
HETATM   23  N4  UNL     1      20.768 -14.180  24.133  1.00  0.00    -0.045 N
HETATM   24  C14 UNL     1      20.036 -15.264  23.508  1.00  0.00     0.273 C
HETATM   25  C15 UNL     1      18.786 -15.634  24.253  1.00  0.00     0.173 C
HETATM   26  C16 UNL     1      18.862 -15.338  25.728  1.00  0.00     0.156 C
HETATM   27  C17 UNL     1      19.884 -14.262  25.987  1.00  0.00     0.079 C
HETATM   28  C18 UNL     1      19.799 -13.308  24.786  1.00  0.00     0.249 C
HETATM   29  C19 UNL     1      21.231 -14.558  25.441  1.00  0.00     0.131 C
HETATM   30  C20 UNL     1      21.751 -15.952  25.592  1.00  0.00     0.047 C
HETATM   31  C21 UNL     1      22.255 -13.569  25.989  1.00  0.00     0.047 C
BRANCH  25  32
HETATM   32  O2  UNL     1      18.457 -16.994  24.056  1.00  0.00    -0.391 OA
ATOM     33  H2  UNL     1      17.687 -17.237  24.557  1.00  0.00     0.210 HD
ENDBRANCH  25  32
BRANCH  26  34
HETATM   34  O3  UNL     1      19.016 -16.454  26.515  1.00  0.00    -0.392 OA
ATOM     35  H3  UNL     1      18.926 -16.286  27.446  1.00  0.00     0.210 HD
ENDBRANCH  26  34
ENDBRANCH  22  23
ENDBRANCH  21  22
ENDBRANCH  19  20
ENDBRANCH   1  19
TORSDOF 8
ENDMDL