MODEL 4
REMARK VINA RESULT: -7.282836568      3.464      6.228
REMARK  11 active torsions:
REMARK  status: ('A' for Active; 'I' for Inactive)
REMARK    1  A    between atoms: C3_3  and  C4_4
REMARK    2  A    between atoms: C5_5  and  C6_6
REMARK    3  A    between atoms: C7_7  and  C8_8
REMARK    4  A    between atoms: C9_9  and  C10_10
REMARK    5  A    between atoms: C11_11  and  C12_12
REMARK    6  A    between atoms: C13_13  and  C14_14
REMARK       I    between atoms: N1_15  and  C15_17
REMARK    7  A    between atoms: C15_17  and  C16_19
REMARK    8  A    between atoms: C16_19  and  N2_22
REMARK       I    between atoms: N2_22  and  C19_24
REMARK    9  A    between atoms: C19_24  and  C20_26
REMARK   10  A    between atoms: C20_26  and  N3_27
REMARK   11  A    between atoms: C20_26  and  C21_31
REMARK       I    between atoms: N4_35  and  C25_36
ROOT
HETATM    1  C1  UNL     1      21.031 -11.645  17.111  1.00  0.00     0.013 C
HETATM    2  C2  UNL     1      20.261 -11.956  17.998  1.00  0.00    -0.105 C
HETATM    3  C3  UNL     1      19.331 -12.318  19.095  1.00  0.00     0.187 C
ENDROOT
BRANCH   3   4
HETATM    4  C4  UNL     1      20.128 -12.720  20.255  1.00  0.00    -0.081 C
HETATM    5  C5  UNL     1      20.766 -13.040  21.227  1.00  0.00    -0.014 C
BRANCH   5   6
HETATM    6  C6  UNL     1      21.512 -13.432  22.354  1.00  0.00    -0.010 C
HETATM    7  C7  UNL     1      22.146 -13.791  23.311  1.00  0.00    -0.065 C
BRANCH   7   8
HETATM    8  C8  UNL     1      22.887 -14.236  24.452  1.00  0.00     0.065 C
HETATM    9  C9  UNL     1      22.582 -13.800  25.642  1.00  0.00     0.009 C
BRANCH   9  10
HETATM   10  C10 UNL     1      21.475 -12.850  25.798  1.00  0.00     0.009 C
HETATM   11  C11 UNL     1      20.220 -13.258  25.848  1.00  0.00     0.065 C
BRANCH  11  12
HETATM   12  C12 UNL     1      20.012 -14.680  25.739  1.00  0.00    -0.072 C
HETATM   13  C13 UNL     1      19.824 -15.859  25.613  1.00  0.00    -0.057 C
BRANCH  13  14
HETATM   14  C14 UNL     1      19.583 -17.249  25.428  1.00  0.00     0.156 C
HETATM   15  N1  UNL     1      18.804 -17.820  24.619  1.00  0.00    -0.327 N
HETATM   16  C15 UNL     1      17.992 -17.123  23.707  1.00  0.00     0.256 C
ATOM     17  H1  UNL     1      18.759 -18.839  24.626  1.00  0.00     0.168 HD
HETATM   18  O1  UNL     1      17.041 -16.390  24.007  1.00  0.00    -0.270 OA
BRANCH  16  19
HETATM   19  C16 UNL     1      18.304 -17.289  22.241  1.00  0.00     0.256 C
HETATM   20  C17 UNL     1      19.734 -17.107  22.027  1.00  0.00    -0.082 C
HETATM   21  C18 UNL     1      20.918 -16.950  21.873  1.00  0.00     0.015 C
BRANCH  19  22
HETATM   22  N2  UNL     1      17.619 -16.180  21.552  1.00  0.00    -0.336 N
HETATM   23  C19 UNL     1      16.562 -16.472  20.631  1.00  0.00     0.250 C
HETATM   24  O2  UNL     1      16.280 -17.698  20.462  1.00  0.00    -0.271 OA
ATOM     25  H2  UNL     1      17.895 -15.214  21.729  1.00  0.00     0.164 HD
BRANCH  23  26
HETATM   26  C20 UNL     1      15.819 -15.427  19.904  1.00  0.00     0.280 C
BRANCH  26  27
HETATM   27  N3  UNL     1      16.699 -14.628  19.065  1.00  0.00    -0.066 N
ATOM     28  H33 UNL     1      16.517 -13.630  19.179  1.00  0.00     0.275 HD
ATOM     29  H32 UNL     1      17.661 -14.653  19.404  1.00  0.00     0.275 HD
ATOM     30  H31 UNL     1      16.643 -14.907  18.086  1.00  0.00     0.275 HD
ENDBRANCH  26  27
BRANCH  26  31
HETATM   31  C21 UNL     1      15.176 -14.505  20.954  1.00  0.00     0.043 C
HETATM   32  C22 UNL     1      13.771 -14.273  20.454  1.00  0.00     0.010 C
HETATM   33  C23 UNL     1      12.966 -13.497  21.457  1.00  0.00     0.020 C
HETATM   34  C24 UNL     1      13.744 -12.307  21.991  1.00  0.00     0.127 C
HETATM   35  N4  UNL     1      14.981 -12.119  21.251  1.00  0.00    -0.336 N
HETATM   36  C25 UNL     1      15.331 -10.844  20.740  1.00  0.00     0.330 C
HETATM   37  C26 UNL     1      15.905 -13.203  21.022  1.00  0.00     0.134 C
HETATM   38  N5  UNL     1      14.468  -9.748  20.980  1.00  0.00    -0.040 NA
HETATM   39  O3  UNL     1      16.397 -10.686  20.083  1.00  0.00    -0.251 OA
ENDBRANCH  26  31
ENDBRANCH  23  26
ENDBRANCH  19  22
ENDBRANCH  16  19
ENDBRANCH  13  14
ENDBRANCH  11  12
ENDBRANCH   9  10
ENDBRANCH   7   8
ENDBRANCH   5   6
ENDBRANCH   3   4
TORSDOF 11
ENDMDL