MODEL 1
REMARK VINA RESULT: -8.787755498      0.000      0.000
REMARK  7 active torsions:
REMARK  status: ('A' for Active; 'I' for Inactive)
REMARK    1  A    between atoms: C2_2  and  N1_3
REMARK    2  A    between atoms: C2_2  and  N3_30
REMARK       I    between atoms: N1_3  and  C3_4
REMARK    3  A    between atoms: C3_4  and  C4_6
REMARK    4  A    between atoms: C6_8  and  C7_9
REMARK       I    between atoms: C7_9  and  N2_11
REMARK    5  A    between atoms: N2_11  and  C8_13
REMARK    6  A    between atoms: C19_24  and  S1_26
REMARK    7  A    between atoms: N3_30  and  N4_32
ROOT
HETATM    1  C4  UNL     1      16.589 -12.882  19.859  1.00  0.00     0.145 C
HETATM    2  C5  UNL     1      18.049 -13.043  19.660  1.00  0.00    -0.057 C
HETATM    3  C6  UNL     1      19.165 -13.313  20.257  1.00  0.00     0.078 C
HETATM    4  C18 UNL     1      17.788 -12.709  18.191  1.00  0.00     0.061 C
HETATM    5  C19 UNL     1      16.422 -13.245  18.408  1.00  0.00     0.080 C
HETATM    6  C20 UNL     1      16.407 -14.750  18.196  1.00  0.00     0.033 C
ENDROOT
BRANCH   1   7
HETATM    7  C3  UNL     1      16.181 -11.508  20.247  1.00  0.00     0.303 C
HETATM    8  N1  UNL     1      15.016 -11.216  20.790  1.00  0.00    -0.355 NA
HETATM    9  O1  UNL     1      17.044 -10.589  20.022  1.00  0.00    -0.256 OA
BRANCH   8  10
HETATM   10  C2  UNL     1      13.968 -10.952  21.274  1.00  0.00     0.171 C
HETATM   11  C1  UNL     1      13.127 -11.913  22.074  1.00  0.00     0.108 C
BRANCH  10  12
HETATM   12  N3  UNL     1      13.397  -9.633  21.129  1.00  0.00    -0.264 N
ATOM     13  H3  UNL     1      13.481  -8.947  21.879  1.00  0.00     0.191 HD
BRANCH  12  14
HETATM   14  N4  UNL     1      12.738  -9.316  19.965  1.00  0.00    -0.247 N
HETATM   15  N5  UNL     1      13.056  -9.874  18.876  1.00  0.00    -0.331 N
ATOM     16  H52 UNL     1      13.809 -10.562  18.879  1.00  0.00     0.178 HD
ATOM     17  H51 UNL     1      12.567  -9.638  18.012  1.00  0.00     0.178 HD
ATOM     18  H4  UNL     1      11.987  -8.625  19.980  1.00  0.00     0.207 HD
ENDBRANCH  12  14
ENDBRANCH  10  12
ENDBRANCH   8  10
ENDBRANCH   1   7
BRANCH   3  19
HETATM   19  C7  UNL     1      19.410 -13.613  21.634  1.00  0.00     0.242 C
HETATM   20  O2  UNL     1      18.365 -13.844  22.350  1.00  0.00    -0.269 OA
HETATM   21  N2  UNL     1      20.690 -13.663  22.193  1.00  0.00    -0.348 N
ATOM     22  H2  UNL     1      21.476 -13.478  21.568  1.00  0.00     0.163 HD
BRANCH  21  23
HETATM   23  C8  UNL     1      21.006 -13.956  23.585  1.00  0.00     0.034 C
HETATM   24  C9  UNL     1      22.441 -13.607  23.904  1.00  0.00     0.035 C
HETATM   25  C10 UNL     1      22.710 -13.950  25.356  1.00  0.00    -0.012 C
HETATM   26  C11 UNL     1      22.537 -15.420  25.572  1.00  0.00     0.009 C
HETATM   27  C15 UNL     1      21.808 -13.129  26.254  1.00  0.00     0.009 C
HETATM   28  C12 UNL     1      21.136 -15.816  25.225  1.00  0.00    -0.012 C
HETATM   29  C13 UNL     1      20.198 -15.033  26.150  1.00  0.00     0.009 C
HETATM   30  C17 UNL     1      20.772 -15.435  23.830  1.00  0.00     0.035 C
HETATM   31  C14 UNL     1      20.373 -13.563  25.953  1.00  0.00    -0.012 C
HETATM   32  C16 UNL     1      20.121 -13.157  24.494  1.00  0.00     0.035 C
ENDBRANCH  21  23
ENDBRANCH   3  19
BRANCH   5  33
HETATM   33  S1  UNL     1      15.189 -12.478  17.464  1.00  0.00     0.150 S
HETATM   34  C21 UNL     1      15.229 -13.271  15.841  1.00  0.00     0.162 C
HETATM   35  O3  UNL     1      13.797 -12.721  18.013  1.00  0.00    -0.227 OA
HETATM   36  O4  UNL     1      15.382 -11.016  17.207  1.00  0.00    -0.227 OA
ENDBRANCH   5  33
TORSDOF 7
ENDMDL