MODEL 2
REMARK VINA RESULT: -7.377327466      1.044      1.200
REMARK  7 active torsions:
REMARK  status: ('A' for Active; 'I' for Inactive)
REMARK    1  A    between atoms: C2_2  and  N1_3
REMARK    2  A    between atoms: C3_5  and  N2_6
REMARK    3  A    between atoms: C3_5  and  C9_16
REMARK    4  A    between atoms: N2_6  and  C4_8
REMARK    5  A    between atoms: C4_8  and  C5_9
REMARK    6  A    between atoms: C5_9  and  C6_10
REMARK    7  A    between atoms: C6_10  and  N3_11
REMARK       I    between atoms: N3_11  and  C7_13
REMARK       I    between atoms: C9_16  and  N4_18
REMARK       I    between atoms: C10_20  and  N5_21
REMARK       I    between atoms: C10_20  and  N8_36
REMARK       I    between atoms: N5_21  and  C11_23
REMARK       I    between atoms: C11_23  and  N6_25
ROOT
HETATM    1  C9  UNL     1      14.500 -12.783  20.986  1.00  0.00     0.303 C
HETATM    2  O2  UNL     1      13.623 -13.654  21.353  1.00  0.00    -0.263 OA
HETATM    3  N4  UNL     1      15.731 -12.861  21.631  1.00  0.00    -0.153 N
ATOM      4  H4  UNL     1      16.063 -11.986  22.037  1.00  0.00     0.187 HD
HETATM    5  C10 UNL     1      16.510 -13.861  21.793  1.00  0.00     0.686 C
HETATM    6  N5  UNL     1      17.724 -13.660  22.501  1.00  0.00    -0.141 N
ATOM      7  H5  UNL     1      17.910 -12.721  22.853  1.00  0.00     0.189 HD
HETATM    8  C11 UNL     1      18.698 -14.651  22.758  1.00  0.00     0.341 C
HETATM    9  O3  UNL     1      18.473 -15.790  22.327  1.00  0.00    -0.246 OA
HETATM   10  N6  UNL     1      19.864 -14.349  23.470  1.00  0.00    -0.299 N
HETATM   11  C12 UNL     1      20.146 -13.095  24.163  1.00  0.00     0.134 C
HETATM   12  C13 UNL     1      20.227 -13.510  25.643  1.00  0.00     0.025 C
HETATM   13  C14 UNL     1      21.380 -14.408  25.920  1.00  0.00     0.044 C
HETATM   14  C15 UNL     1      21.619 -15.345  24.821  1.00  0.00    -0.015 A
HETATM   15  C16 UNL     1      22.607 -16.323  24.913  1.00  0.00     0.099 A
HETATM   16  N7  UNL     1      22.864 -17.199  23.917  1.00  0.00    -0.370 N
HETATM   17  C17 UNL     1      23.924 -18.199  24.097  1.00  0.00     0.154 C
HETATM   18  C18 UNL     1      22.179 -17.184  22.761  1.00  0.00     0.092 A
HETATM   19  C19 UNL     1      21.172 -16.226  22.605  1.00  0.00     0.047 A
HETATM   20  C20 UNL     1      20.907 -15.335  23.614  1.00  0.00     0.047 A
HETATM   21  N8  UNL     1      16.146 -15.123  21.272  1.00  0.00    -0.226 N
HETATM   22  C21 UNL     1      15.349 -16.110  21.995  1.00  0.00     0.168 C
HETATM   23  C22 UNL     1      16.553 -15.541  19.920  1.00  0.00     0.168 C
ENDROOT
BRANCH   1  24
HETATM   24  C3  UNL     1      14.080 -11.859  19.968  1.00  0.00     0.167 C
HETATM   25  N1  UNL     1      13.752 -10.671  20.159  1.00  0.00    -0.372 N
ATOM     26  H1  UNL     1      13.486 -10.170  19.311  1.00  0.00     0.161 HD
BRANCH  25  27
HETATM   27  C2  UNL     1      13.682  -9.895  21.333  1.00  0.00     0.117 C
HETATM   28  C1  UNL     1      12.258  -9.853  21.900  1.00  0.00     0.026 C
ENDBRANCH  25  27
BRANCH  24  29
HETATM   29  N2  UNL     1      14.027 -12.319  18.597  1.00  0.00    -0.372 N
ATOM     30  H2  UNL     1      13.324 -12.997  18.301  1.00  0.00     0.161 HD
BRANCH  29  31
HETATM   31  C4  UNL     1      14.990 -11.795  17.656  1.00  0.00     0.123 C
BRANCH  31  32
HETATM   32  C5  UNL     1      16.263 -12.615  17.734  1.00  0.00     0.039 C
BRANCH  32  33
HETATM   33  C6  UNL     1      17.319 -11.877  18.520  1.00  0.00     0.124 C
BRANCH  33  34
HETATM   34  N3  UNL     1      18.518 -12.637  18.650  1.00  0.00    -0.361 N
HETATM   35  C7  UNL     1      19.421 -12.497  19.718  1.00  0.00     0.213 C
HETATM   36  C8  UNL     1      20.655 -13.335  19.785  1.00  0.00     0.117 C
HETATM   37  O1  UNL     1      19.244 -11.687  20.640  1.00  0.00    -0.274 OA
ATOM     38  H3  UNL     1      18.733 -13.322  17.926  1.00  0.00     0.162 HD
ENDBRANCH  33  34
ENDBRANCH  32  33
ENDBRANCH  31  32
ENDBRANCH  29  31
ENDBRANCH  24  29
ENDBRANCH   1  24
TORSDOF 7
ENDMDL