MODEL 5
REMARK VINA RESULT: -8.360611822      3.808      7.137
REMARK  4 active torsions:
REMARK  status: ('A' for Active; 'I' for Inactive)
REMARK    1  A    between atoms: N1_2  and  C2_3
REMARK    2  A    between atoms: C2_3  and  C3_4
REMARK    3  A    between atoms: C3_4  and  N2_5
REMARK    4  A    between atoms: C3_4  and  C11_21
REMARK       I    between atoms: N2_5  and  C4_7
REMARK       I    between atoms: C4_7  and  N3_9
REMARK       I    between atoms: N4_13  and  C8_14
REMARK       I    between atoms: C11_21  and  N7_23
ROOT
HETATM    1  C3  UNL     1      17.577 -14.861  22.323  1.00  0.00     0.204 C
ENDROOT
BRANCH   1   2
HETATM    2  C2  UNL     1      18.491 -15.078  21.168  1.00  0.00     0.271 C
BRANCH   2   3
HETATM    3  N1  UNL     1      19.889 -14.876  21.415  1.00  0.00    -0.069 N
HETATM    4  C1  UNL     1      20.629 -16.108  21.625  1.00  0.00     0.272 C
HETATM    5  C20 UNL     1      20.435 -14.246  20.231  1.00  0.00     0.237 C
HETATM    6  C21 UNL     1      21.023 -12.946  20.647  1.00  0.00     0.029 C
HETATM    7  C22 UNL     1      21.347 -13.159  22.113  1.00  0.00     0.029 C
HETATM    8  C23 UNL     1      20.180 -14.029  22.550  1.00  0.00     0.237 C
ENDBRANCH   2   3
ENDBRANCH   1   2
BRANCH   1   9
HETATM    9  N2  UNL     1      16.307 -14.316  21.825  1.00  0.00    -0.328 N
HETATM   10  C4  UNL     1      16.101 -12.939  21.567  1.00  0.00     0.319 C
HETATM   11  O1  UNL     1      17.022 -12.113  21.760  1.00  0.00    -0.247 OA
HETATM   12  N3  UNL     1      14.858 -12.445  21.084  1.00  0.00    -0.333 N
HETATM   13  C5  UNL     1      13.887 -13.519  20.907  1.00  0.00     0.129 C
HETATM   14  C10 UNL     1      14.777 -11.022  20.866  1.00  0.00     0.147 C
HETATM   15  C6  UNL     1      12.627 -12.847  20.427  1.00  0.00     0.040 C
HETATM   16  C7  UNL     1      11.972 -12.221  21.625  1.00  0.00     0.127 C
HETATM   17  N4  UNL     1      12.620 -11.024  22.073  1.00  0.00    -0.354 N
HETATM   18  C8  UNL     1      11.884 -10.393  23.106  1.00  0.00     0.184 C
HETATM   19  C9  UNL     1      13.817 -10.311  21.744  1.00  0.00     0.145 C
HETATM   20  N5  UNL     1      11.828  -9.103  23.237  1.00  0.00    -0.374 N
HETATM   21  N6  UNL     1      11.147 -11.108  24.080  1.00  0.00    -0.064 NA
ATOM     22  H52 UNL     1      12.359  -8.588  22.535  1.00  0.00     0.158 HD
ATOM     23  H51 UNL     1      11.298  -8.649  23.981  1.00  0.00     0.158 HD
ATOM     24  H2  UNL     1      15.535 -14.961  21.656  1.00  0.00     0.165 HD
ENDBRANCH   1   9
BRANCH   1  25
HETATM   25  C11 UNL     1      17.214 -16.163  22.983  1.00  0.00     0.244 C
HETATM   26  O2  UNL     1      16.300 -16.879  22.443  1.00  0.00    -0.271 OA
HETATM   27  N7  UNL     1      17.795 -16.663  24.154  1.00  0.00    -0.347 N
HETATM   28  C12 UNL     1      18.814 -15.951  24.878  1.00  0.00     0.154 C
HETATM   29  C19 UNL     1      17.382 -17.938  24.686  1.00  0.00     0.154 C
HETATM   30  C13 UNL     1      18.631 -16.360  26.349  1.00  0.00     0.257 C
HETATM   31  N8  UNL     1      18.979 -17.762  26.510  1.00  0.00    -0.064 N
HETATM   32  C14 UNL     1      18.449 -18.292  27.750  1.00  0.00     0.237 C
HETATM   33  C17 UNL     1      20.431 -17.837  26.722  1.00  0.00     0.237 C
HETATM   34  C18 UNL     1      18.566 -18.555  25.396  1.00  0.00     0.257 C
HETATM   35  C15 UNL     1      19.304 -19.500  28.057  1.00  0.00     0.029 C
HETATM   36  C16 UNL     1      20.640 -19.122  27.495  1.00  0.00     0.029 C
ENDBRANCH   1  25
TORSDOF 4
ENDMDL