MODEL 4
REMARK VINA RESULT: -7.203122292      2.923      6.596
REMARK  7 active torsions:
REMARK  status: ('A' for Active; 'I' for Inactive)
REMARK       I    between atoms: C2_2  and  N1_4
REMARK    1  A    between atoms: C3_6  and  C4_7
REMARK    2  A    between atoms: C6_11  and  C7_12
REMARK    3  A    between atoms: C6_11  and  N4_18
REMARK    4  A    between atoms: C8_13  and  N3_14
REMARK    5  A    between atoms: C17_26  and  N6_27
REMARK    6  A    between atoms: N6_27  and  N7_28
REMARK    7  A    between atoms: C18_31  and  O2_33
ROOT
HETATM    1  C4  UNL     1      19.921 -14.521  22.472  1.00  0.00     0.124 C
HETATM    2  N2  UNL     1      20.329 -15.919  22.266  1.00  0.00    -0.354 N
ATOM      3  H2  UNL     1      20.804 -16.290  21.443  1.00  0.00     0.162 HD
HETATM    4  C5  UNL     1      19.949 -16.652  23.405  1.00  0.00     0.134 C
HETATM    5  C6  UNL     1      20.502 -17.680  24.030  1.00  0.00     0.179 C
HETATM    6  N5  UNL     1      18.743 -16.000  23.879  1.00  0.00    -0.356 N
ATOM      7  H5  UNL     1      18.126 -16.334  24.619  1.00  0.00     0.162 HD
HETATM    8  C15 UNL     1      18.577 -14.787  23.107  1.00  0.00     0.120 C
HETATM    9  C16 UNL     1      18.153 -13.698  24.045  1.00  0.00     0.050 C
HETATM   10  C17 UNL     1      17.607 -15.053  22.036  1.00  0.00     0.155 C
HETATM   11  C18 UNL     1      17.385 -14.033  20.994  1.00  0.00     0.138 C
HETATM   12  C19 UNL     1      16.471 -12.924  21.470  1.00  0.00     0.059 C
HETATM   13  C20 UNL     1      18.695 -13.524  20.551  1.00  0.00    -0.008 A
HETATM   14  C21 UNL     1      18.734 -12.772  19.366  1.00  0.00     0.011 A
HETATM   15  C22 UNL     1      19.901 -12.249  18.857  1.00  0.00     0.001 A
HETATM   16  C23 UNL     1      21.071 -12.482  19.549  1.00  0.00     0.001 A
HETATM   17  C24 UNL     1      21.051 -13.219  20.713  1.00  0.00     0.011 A
HETATM   18  C25 UNL     1      19.846 -13.752  21.227  1.00  0.00    -0.012 A
ENDROOT
BRANCH   5  19
HETATM   19  C7  UNL     1      19.754 -18.168  25.216  1.00  0.00     0.066 C
HETATM   20  C8  UNL     1      18.714 -18.885  25.285  1.00  0.00     0.203 C
BRANCH  20  21
HETATM   21  N3  UNL     1      18.195 -19.210  26.597  1.00  0.00    -0.059 N
HETATM   22  C9  UNL     1      18.793 -20.397  27.137  1.00  0.00     0.277 C
HETATM   23  C10 UNL     1      18.470 -18.118  27.521  1.00  0.00     0.277 C
HETATM   24  C11 UNL     1      16.758 -19.373  26.536  1.00  0.00     0.277 C
ENDBRANCH  20  21
ENDBRANCH   5  19
BRANCH   5  25
HETATM   25  N4  UNL     1      21.710 -18.325  23.719  1.00  0.00    -0.045 N
HETATM   26  C12 UNL     1      22.858 -17.409  23.850  1.00  0.00     0.278 C
HETATM   27  C13 UNL     1      22.078 -19.448  24.579  1.00  0.00     0.278 C
HETATM   28  C14 UNL     1      21.748 -18.799  22.323  1.00  0.00     0.278 C
ENDBRANCH   5  25
BRANCH   1  29
HETATM   29  C3  UNL     1      20.845 -13.836  23.408  1.00  0.00     0.103 C
HETATM   30  N1  UNL     1      22.081 -14.193  23.438  1.00  0.00    -0.338 N
HETATM   31  C2  UNL     1      23.067 -13.643  24.264  1.00  0.00     0.217 C
ATOM     32  H1  UNL     1      22.367 -14.941  22.806  1.00  0.00     0.167 HD
HETATM   33  C1  UNL     1      24.500 -13.922  24.025  1.00  0.00     0.117 C
HETATM   34  O1  UNL     1      22.740 -12.902  25.220  1.00  0.00    -0.274 OA
ENDBRANCH   1  29
BRANCH  10  35
HETATM   35  N6  UNL     1      16.976 -16.118  21.996  1.00  0.00    -0.336 NA
BRANCH  35  36
HETATM   36  N7  UNL     1      16.327 -17.180  21.859  1.00  0.00    -0.280 N
ATOM     37  H72 UNL     1      15.725 -16.504  21.389  1.00  0.00     0.191 HD
ATOM     38  H71 UNL     1      15.857 -18.083  21.787  1.00  0.00     0.191 HD
ENDBRANCH  35  36
ENDBRANCH  10  35
BRANCH  11  39
HETATM   39  O2  UNL     1      16.742 -14.603  19.866  1.00  0.00    -0.378 OA
ATOM     40  H2  UNL     1      15.943 -14.131  19.663  1.00  0.00     0.211 HD
ENDBRANCH  11  39
TORSDOF 7
ENDMDL