MODEL 3
REMARK VINA RESULT: -9.495498399      0.870      1.195
REMARK  6 active torsions:
REMARK  status: ('A' for Active; 'I' for Inactive)
REMARK    1  A    between atoms: C2_2  and  N1_3
REMARK    2  A    between atoms: C2_2  and  C12_16
REMARK       I    between atoms: N1_3  and  C3_4
REMARK    3  A    between atoms: C3_4  and  C4_6
REMARK       I    between atoms: C4_6  and  N2_8
REMARK    4  A    between atoms: C12_16  and  O3_17
REMARK    5  A    between atoms: C12_16  and  C13_19
REMARK    6  A    between atoms: C13_19  and  N3_20
REMARK       I    between atoms: N5_27  and  C19_28
ROOT
HETATM    1  C12 UNL     1      17.993 -13.512  19.751  1.00  0.00     0.179 C
ENDROOT
BRANCH   1   2
HETATM    2  C2  UNL     1      18.358 -13.935  21.098  1.00  0.00     0.193 C
HETATM    3  C1  UNL     1      17.097 -14.678  21.735  1.00  0.00     0.050 C
BRANCH   2   4
HETATM    4  N1  UNL     1      19.470 -14.705  21.302  1.00  0.00    -0.399 NA
HETATM    5  C3  UNL     1      20.513 -15.416  21.479  1.00  0.00     0.379 C
HETATM    6  O1  UNL     1      21.520 -15.909  21.354  1.00  0.00    -0.246 OA
BRANCH   5   7
HETATM    7  C4  UNL     1      20.218 -16.206  22.996  1.00  0.00     0.327 C
HETATM    8  O2  UNL     1      19.753 -17.236  22.886  1.00  0.00    -0.261 OA
HETATM    9  N2  UNL     1      20.668 -15.219  23.995  1.00  0.00    -0.330 N
HETATM   10  C5  UNL     1      20.977 -13.857  23.706  1.00  0.00     0.084 C
HETATM   11  C9  UNL     1      20.787 -15.441  25.389  1.00  0.00     0.029 C
HETATM   12  C6  UNL     1      22.295 -13.463  23.140  1.00  0.00     0.032 C
HETATM   13  C7  UNL     1      20.635 -13.146  25.077  1.00  0.00     0.027 C
HETATM   14  C8  UNL     1      20.186 -14.230  26.008  1.00  0.00     0.032 C
HETATM   15  C10 UNL     1      20.241 -16.744  25.875  1.00  0.00     0.038 C
HETATM   16  C11 UNL     1      22.292 -15.395  25.715  1.00  0.00     0.038 C
ENDBRANCH   5   7
ENDBRANCH   2   4
ENDBRANCH   1   2
BRANCH   1  17
HETATM   17  O3  UNL     1      19.121 -12.908  19.213  1.00  0.00    -0.391 OA
ATOM     18  H3  UNL     1      19.382 -13.442  18.473  1.00  0.00     0.210 HD
ENDBRANCH   1  17
BRANCH   1  19
HETATM   19  C13 UNL     1      16.831 -13.606  18.867  1.00  0.00     0.271 C
BRANCH  19  20
HETATM   20  N3  UNL     1      16.151 -12.328  18.710  1.00  0.00    -0.065 N
HETATM   21  C14 UNL     1      16.729 -11.652  17.541  1.00  0.00     0.272 C
HETATM   22  C15 UNL     1      16.208 -11.441  19.803  1.00  0.00     0.265 C
HETATM   23  C16 UNL     1      15.405 -11.996  20.976  1.00  0.00     0.265 C
HETATM   24  N4  UNL     1      14.037 -12.140  20.575  1.00  0.00    -0.061 N
HETATM   25  C17 UNL     1      13.288 -12.719  21.722  1.00  0.00     0.257 C
HETATM   26  C21 UNL     1      13.416 -10.879  20.207  1.00  0.00     0.257 C
HETATM   27  C22 UNL     1      13.874 -13.012  19.441  1.00  0.00     0.265 C
HETATM   28  C18 UNL     1      12.009 -12.076  21.934  1.00  0.00     0.153 C
HETATM   29  N5  UNL     1      12.261 -10.683  22.259  1.00  0.00    -0.353 N
HETATM   30  C19 UNL     1      11.683 -10.040  23.395  1.00  0.00     0.184 C
HETATM   31  C20 UNL     1      13.142  -9.916  21.321  1.00  0.00     0.153 C
HETATM   32  N6  UNL     1      10.573 -10.465  23.991  1.00  0.00    -0.374 N
HETATM   33  N7  UNL     1      12.212  -8.817  23.879  1.00  0.00    -0.064 NA
ATOM     34  H62 UNL     1      10.193 -11.345  23.642  1.00  0.00     0.158 HD
ATOM     35  H61 UNL     1      10.160 -10.005  24.802  1.00  0.00     0.158 HD
HETATM   36  C23 UNL     1      14.798 -12.717  18.327  1.00  0.00     0.265 C
ENDBRANCH  19  20
ENDBRANCH   1  19
TORSDOF 6
ENDMDL