MODEL 1
REMARK VINA RESULT: -8.982477547      0.000      0.000
REMARK  7 active torsions:
REMARK  status: ('A' for Active; 'I' for Inactive)
REMARK    1  A    between atoms: C3_3  and  N1_4
REMARK    2  A    between atoms: N2_7  and  C6_8
REMARK    3  A    between atoms: C6_8  and  C7_9
REMARK       I    between atoms: C7_9  and  N3_11
REMARK    4  A    between atoms: C11_15  and  O2_17
REMARK    5  A    between atoms: C13_19  and  C14_20
REMARK    6  A    between atoms: C14_20  and  C15_21
REMARK    7  A    between atoms: C15_21  and  O3_22
ROOT
HETATM    1  C1  UNL     1      24.182 -13.292  24.077  1.00  0.00     0.013 C
HETATM    2  C2  UNL     1      23.333 -14.002  24.580  1.00  0.00    -0.089 C
HETATM    3  C3  UNL     1      22.295 -14.863  25.164  1.00  0.00     0.330 C
ENDROOT
BRANCH   3   4
HETATM    4  N1  UNL     1      21.096 -14.679  24.395  1.00  0.00    -0.052 N
HETATM    5  C4  UNL     1      20.513 -13.349  24.624  1.00  0.00     0.266 C
HETATM    6  C5  UNL     1      19.073 -13.462  24.208  1.00  0.00     0.266 C
HETATM    7  N2  UNL     1      18.948 -14.430  23.096  1.00  0.00    -0.054 N
HETATM    8  C23 UNL     1      20.093 -14.183  22.258  1.00  0.00     0.266 C
HETATM    9  C25 UNL     1      19.091 -15.748  23.660  1.00  0.00     0.266 C
HETATM   10  C24 UNL     1      21.310 -14.785  22.971  1.00  0.00     0.266 C
HETATM   11  C26 UNL     1      20.063 -15.614  24.843  1.00  0.00     0.266 C
BRANCH   7  12
HETATM   12  C6  UNL     1      17.685 -14.165  22.485  1.00  0.00     0.340 C
BRANCH  12  13
HETATM   13  C7  UNL     1      17.626 -14.344  21.034  1.00  0.00     0.247 C
HETATM   14  O1  UNL     1      17.901 -15.486  20.570  1.00  0.00    -0.271 OA
HETATM   15  N3  UNL     1      17.270 -13.272  20.138  1.00  0.00    -0.326 N
HETATM   16  C8  UNL     1      17.276 -13.685  18.749  1.00  0.00     0.165 C
HETATM   17  C21 UNL     1      16.979 -12.004  20.764  1.00  0.00     0.182 C
HETATM   18  C9  UNL     1      16.779 -12.660  17.830  1.00  0.00    -0.032 C
HETATM   19  C10 UNL     1      17.606 -12.202  16.903  1.00  0.00     0.019 C
HETATM   20  C11 UNL     1      15.360 -12.070  17.852  1.00  0.00     0.120 C
HETATM   21  C12 UNL     1      14.508 -13.132  17.214  1.00  0.00     0.058 C
HETATM   22  C13 UNL     1      15.054 -11.885  19.283  1.00  0.00     0.044 C
HETATM   23  N4  UNL     1      16.135 -11.144  19.966  1.00  0.00    -0.370 N
ATOM     24  H4  UNL     1      16.270 -10.136  19.884  1.00  0.00     0.161 HD
HETATM   25  C22 UNL     1      18.289 -11.280  21.012  1.00  0.00     0.056 C
BRANCH  20  26
HETATM   26  O2  UNL     1      15.449 -10.975  17.052  1.00  0.00    -0.379 OA
ATOM     27  H2  UNL     1      14.545 -10.723  16.909  1.00  0.00     0.211 HD
ENDBRANCH  20  26
BRANCH  22  28
HETATM   28  C14 UNL     1      13.732 -11.504  19.770  1.00  0.00     0.038 C
BRANCH  28  29
HETATM   29  C15 UNL     1      13.422 -11.148  21.150  1.00  0.00     0.077 C
HETATM   30  C16 UNL     1      11.960 -11.767  21.390  1.00  0.00     0.042 C
HETATM   31  C17 UNL     1      11.706 -11.595  22.848  1.00  0.00     0.003 C
HETATM   32  C18 UNL     1      11.567 -10.131  23.215  1.00  0.00     0.000 C
HETATM   33  C19 UNL     1      12.824  -9.415  22.851  1.00  0.00     0.003 C
HETATM   34  C20 UNL     1      13.182  -9.712  21.392  1.00  0.00     0.042 C
BRANCH  29  35
HETATM   35  O3  UNL     1      14.112 -11.849  22.128  1.00  0.00    -0.386 OA
ATOM     36  H3  UNL     1      14.805 -11.373  22.570  1.00  0.00     0.211 HD
ENDBRANCH  29  35
ENDBRANCH  28  29
ENDBRANCH  22  28
ENDBRANCH  12  13
ENDBRANCH   7  12
ENDBRANCH   3   4
TORSDOF 7
ENDMDL