MODEL 3
REMARK VINA RESULT: -8.804331929      3.677      7.434
REMARK  7 active torsions:
REMARK  status: ('A' for Active; 'I' for Inactive)
REMARK    1  A    between atoms: C2_2  and  N1_3
REMARK    2  A    between atoms: C5_7  and  C6_8
REMARK    3  A    between atoms: C9_13  and  C10_14
REMARK    4  A    between atoms: C16_20  and  C17_21
REMARK    5  A    between atoms: C17_21  and  C18_22
REMARK    6  A    between atoms: N4_31  and  S1_33
REMARK    7  A    between atoms: S1_33  and  N5_34
ROOT
HETATM    1  N1  UNL     1      13.826 -15.173  19.112  1.00  0.00    -0.289 N
HETATM    2  C3  UNL     1      12.736 -14.333  19.534  1.00  0.00     0.263 A
HETATM    3  O1  UNL     1      11.541 -14.467  19.140  1.00  0.00    -0.267 OA
HETATM    4  C4  UNL     1      13.188 -13.297  20.487  1.00  0.00     0.043 A
HETATM    5  C5  UNL     1      12.309 -12.226  20.821  1.00  0.00     0.048 C
HETATM    6  C14 UNL     1      14.454 -13.482  20.634  1.00  0.00    -0.019 A
HETATM    7  C15 UNL     1      15.443 -12.726  21.455  1.00  0.00     0.052 C
HETATM    8  C16 UNL     1      14.935 -14.663  19.783  1.00  0.00     0.050 A
ENDROOT
BRANCH   8   9
HETATM    9  C17 UNL     1      16.203 -14.904  19.692  1.00  0.00     0.046 C
BRANCH   9  10
HETATM   10  C18 UNL     1      17.428 -14.197  19.629  1.00  0.00     0.017 A
HETATM   11  C19 UNL     1      18.407 -14.380  20.610  1.00  0.00    -0.046 A
HETATM   12  C20 UNL     1      18.189 -15.419  21.665  1.00  0.00     0.049 C
HETATM   13  C21 UNL     1      19.548 -13.612  20.595  1.00  0.00     0.032 A
HETATM   14  C22 UNL     1      19.769 -12.649  19.630  1.00  0.00     0.007 A
HETATM   15  C23 UNL     1      21.000 -11.817  19.613  1.00  0.00     0.068 C
HETATM   16  N3  UNL     1      18.822 -12.480  18.690  1.00  0.00    -0.345 N
HETATM   17  C24 UNL     1      17.699 -13.208  18.671  1.00  0.00     0.127 A
ATOM     18  H3  UNL     1      18.964 -11.773  17.968  1.00  0.00     0.167 HD
HETATM   19  N4  UNL     1      16.803 -13.049  17.780  1.00  0.00    -0.252 N
ATOM     20  H4  UNL     1      15.986 -13.656  17.855  1.00  0.00     0.182 HD
BRANCH  19  21
HETATM   21  S1  UNL     1      16.798 -11.954  16.482  1.00  0.00     0.318 S
HETATM   22  O2  UNL     1      18.075 -11.872  15.724  1.00  0.00    -0.183 OA
HETATM   23  O3  UNL     1      16.578 -10.564  17.073  1.00  0.00    -0.183 OA
BRANCH  21  24
HETATM   24  N5  UNL     1      15.484 -12.202  15.386  1.00  0.00    -0.311 N
ATOM     25  H52 UNL     1      15.130 -13.130  15.156  1.00  0.00     0.170 HD
ATOM     26  H51 UNL     1      15.111 -11.333  15.004  1.00  0.00     0.170 HD
ENDBRANCH  21  24
ENDBRANCH  19  21
ENDBRANCH   9  10
ENDBRANCH   8   9
BRANCH   1  27
HETATM   27  C2  UNL     1      13.604 -16.257  18.253  1.00  0.00     0.090 C
HETATM   28  C1  UNL     1      13.840 -16.576  17.063  1.00  0.00     0.030 C
ENDBRANCH   1  27
BRANCH   5  29
HETATM   29  C6  UNL     1      12.090 -11.376  21.755  1.00  0.00     0.043 A
HETATM   30  N2  UNL     1      11.550 -11.777  22.972  1.00  0.00    -0.359 N
HETATM   31  C7  UNL     1      11.598 -10.827  23.875  1.00  0.00     0.013 A
ATOM     32  H2  UNL     1      11.160 -12.704  23.143  1.00  0.00     0.166 HD
HETATM   33  C8  UNL     1      11.067 -11.026  25.291  1.00  0.00     0.068 C
HETATM   34  C9  UNL     1      12.162  -9.737  23.359  1.00  0.00    -0.025 A
HETATM   35  C12 UNL     1      12.482 -10.078  22.026  1.00  0.00    -0.011 A
HETATM   36  C13 UNL     1      13.266  -9.265  21.349  1.00  0.00     0.026 C
BRANCH  34  37
HETATM   37  C10 UNL     1      12.386  -8.457  24.066  1.00  0.00     0.037 C
HETATM   38  C11 UNL     1      11.044  -7.798  24.408  1.00  0.00     0.010 C
ENDBRANCH  34  37
ENDBRANCH   5  29
TORSDOF 7
ENDMDL