MODEL 4
REMARK VINA RESULT: -7.573283296      1.356      1.849
REMARK  8 active torsions:
REMARK  status: ('A' for Active; 'I' for Inactive)
REMARK    1  A    between atoms: N1_2  and  N2_3
REMARK    2  A    between atoms: N2_3  and  C2_5
REMARK    3  A    between atoms: C2_5  and  O1_6
REMARK    4  A    between atoms: C2_5  and  N3_8
REMARK    5  A    between atoms: N4_11  and  C5_12
REMARK    6  A    between atoms: N4_11  and  C7_16
REMARK    7  A    between atoms: C5_12  and  C6_13
REMARK    8  A    between atoms: C7_16  and  C8_17
ROOT
HETATM    1  N3  UNL     1      18.452 -13.836  21.032  1.00  0.00    -0.334 N
HETATM    2  C3  UNL     1      18.014 -14.259  22.392  1.00  0.00     0.155 C
HETATM    3  C4  UNL     1      19.177 -14.927  23.041  1.00  0.00     0.258 C
HETATM    4  N4  UNL     1      20.249 -13.992  23.355  1.00  0.00    -0.049 N
HETATM    5  C11 UNL     1      20.426 -13.051  22.309  1.00  0.00     0.269 C
HETATM    6  C12 UNL     1      19.752 -13.291  20.979  1.00  0.00     0.060 C
HETATM    7  C13 UNL     1      20.696 -13.786  19.906  1.00  0.00     0.033 C
HETATM    8  C14 UNL     1      20.990 -12.365  19.505  1.00  0.00     0.005 C
HETATM    9  C15 UNL     1      19.757 -11.930  20.251  1.00  0.00     0.033 C
ENDROOT
BRANCH   1  10
HETATM   10  C2  UNL     1      17.561 -14.014  19.995  1.00  0.00     0.240 C
BRANCH  10  11
HETATM   11  N2  UNL     1      17.133 -13.192  18.944  1.00  0.00    -0.180 N
ATOM     12  H2  UNL     1      17.690 -13.128  18.093  1.00  0.00     0.197 HD
BRANCH  11  13
HETATM   13  N1  UNL     1      15.930 -12.446  19.057  1.00  0.00     0.014 N
HETATM   14  C1  UNL     1      15.730 -11.822  17.750  1.00  0.00     0.302 C
HETATM   15  C16 UNL     1      14.849 -13.322  19.364  1.00  0.00     0.292 C
HETATM   16  C17 UNL     1      13.586 -12.618  19.734  1.00  0.00     0.267 C
HETATM   17  N7  UNL     1      13.737 -11.751  20.885  1.00  0.00    -0.064 N
HETATM   18  C18 UNL     1      13.007 -12.359  21.983  1.00  0.00     0.237 C
HETATM   19  C21 UNL     1      13.151 -10.471  20.629  1.00  0.00     0.237 C
HETATM   20  C22 UNL     1      15.119 -11.714  21.253  1.00  0.00     0.267 C
HETATM   21  C19 UNL     1      11.668 -11.649  22.027  1.00  0.00     0.029 C
HETATM   22  C20 UNL     1      12.090 -10.237  21.682  1.00  0.00     0.029 C
HETATM   23  C23 UNL     1      16.065 -11.490  20.112  1.00  0.00     0.292 C
ENDBRANCH  11  13
ENDBRANCH  10  11
BRANCH  10  24
HETATM   24  O1  UNL     1      16.996 -15.200  19.987  1.00  0.00    -0.331 OA
ATOM     25  H1  UNL     1      17.398 -15.810  20.595  1.00  0.00     0.221 HD
ENDBRANCH  10  24
ENDBRANCH   1  10
BRANCH   4  26
HETATM   26  C5  UNL     1      19.839 -13.280  24.544  1.00  0.00     0.350 C
BRANCH  26  27
HETATM   27  C6  UNL     1      20.078 -13.928  25.823  1.00  0.00     0.199 C
HETATM   28  O2  UNL     1      20.922 -13.351  26.610  1.00  0.00    -0.647 OA
HETATM   29  O3  UNL     1      19.540 -15.076  26.330  1.00  0.00    -0.647 OA
ENDBRANCH  26  27
ENDBRANCH   4  26
BRANCH   4  30
HETATM   30  C7  UNL     1      21.428 -14.777  23.506  1.00  0.00     0.296 C
BRANCH  30  31
HETATM   31  C8  UNL     1      21.402 -16.165  23.079  1.00  0.00     0.051 A
HETATM   32  C9  UNL     1      21.069 -17.334  23.709  1.00  0.00     0.115 A
HETATM   33  N5  UNL     1      21.224 -18.364  22.845  1.00  0.00    -0.360 N
HETATM   34  C10 UNL     1      21.646 -17.855  21.700  1.00  0.00     0.180 A
ATOM     35  H5  UNL     1      21.049 -19.350  23.041  1.00  0.00     0.166 HD
HETATM   36  N6  UNL     1      21.759 -16.547  21.815  1.00  0.00    -0.353 N
ATOM     37  H6  UNL     1      22.067 -15.916  21.075  1.00  0.00     0.166 HD
ENDBRANCH  30  31
ENDBRANCH   4  30
TORSDOF 8
ENDMDL