MODEL 3
REMARK VINA RESULT: -7.674589514      3.004      7.608
REMARK  6 active torsions:
REMARK  status: ('A' for Active; 'I' for Inactive)
REMARK       I    between atoms: C2_4  and  N2_5
REMARK       I    between atoms: C2_4  and  N9_31
REMARK    1  A    between atoms: C3_7  and  N3_8
REMARK    2  A    between atoms: C3_7  and  C11_24
REMARK       I    between atoms: N3_8  and  C4_10
REMARK       I    between atoms: N5_12  and  C5_14
REMARK    3  A    between atoms: C5_14  and  C6_16
REMARK    4  A    between atoms: N6_18  and  C8_20
REMARK    5  A    between atoms: C8_20  and  C9_21
REMARK    6  A    between atoms: N9_31  and  C17_33
ROOT
HETATM    1  C9  UNL     1      20.404 -13.906  26.317  1.00  0.00     0.143 C
HETATM    2  C10 UNL     1      19.295 -14.773  25.938  1.00  0.00     0.060 C
HETATM    3  N7  UNL     1      18.412 -15.473  25.636  1.00  0.00    -0.197 NA
ENDROOT
BRANCH   1   4
HETATM    4  C8  UNL     1      20.731 -12.908  25.228  1.00  0.00     0.134 C
BRANCH   4   5
HETATM    5  N6  UNL     1      19.916 -13.106  24.053  1.00  0.00    -0.388 N
HETATM    6  C6  UNL     1      20.493 -13.440  22.934  1.00  0.00     0.070 C
HETATM    7  C7  UNL     1      21.968 -13.611  22.867  1.00  0.00     0.074 C
ATOM      8  H6  UNL     1      18.904 -12.986  24.098  1.00  0.00     0.159 HD
BRANCH   6   9
HETATM    9  C5  UNL     1      19.727 -13.654  21.713  1.00  0.00     0.269 C
HETATM   10  N5  UNL     1      18.968 -12.636  21.124  1.00  0.00    -0.296 N
HETATM   11  C4  UNL     1      17.724 -12.682  20.863  1.00  0.00     0.196 C
ATOM     12  H5  UNL     1      19.458 -11.775  20.882  1.00  0.00     0.171 HD
HETATM   13  N3  UNL     1      17.115 -11.545  20.258  1.00  0.00    -0.319 N
HETATM   14  N4  UNL     1      16.995 -13.849  21.175  1.00  0.00    -0.063 NA
ATOM     15  H3  UNL     1      17.724 -10.825  19.868  1.00  0.00     0.169 HD
HETATM   16  O1  UNL     1      19.769 -14.816  21.186  1.00  0.00    -0.266 OA
BRANCH  13  17
HETATM   17  C3  UNL     1      15.719 -11.353  20.165  1.00  0.00     0.105 C
HETATM   18  N2  UNL     1      15.118 -11.472  19.060  1.00  0.00    -0.180 N
HETATM   19  C2  UNL     1      15.664 -11.793  17.797  1.00  0.00     0.675 C
ATOM     20  H2  UNL     1      14.111 -11.315  19.083  1.00  0.00     0.185 HD
HETATM   21  N1  UNL     1      16.721 -11.239  17.381  1.00  0.00    -0.231 N
HETATM   22  N9  UNL     1      14.996 -12.747  16.996  1.00  0.00    -0.220 N
HETATM   23  C1  UNL     1      17.415 -11.427  16.153  1.00  0.00     0.165 C
ATOM     24  H1  UNL     1      17.137 -10.559  18.017  1.00  0.00     0.177 HD
ATOM     25  H9  UNL     1      14.084 -12.520  16.599  1.00  0.00     0.178 HD
BRANCH  22  26
HETATM   26  C17 UNL     1      15.583 -14.036  16.733  1.00  0.00     0.127 C
HETATM   27  C18 UNL     1      16.199 -14.589  17.971  1.00  0.00     0.055 C
HETATM   28  C19 UNL     1      15.511 -15.916  18.169  1.00  0.00     0.238 C
HETATM   29  N10 UNL     1      15.068 -16.266  16.853  1.00  0.00    -0.073 N
HETATM   30  C20 UNL     1      14.023 -17.276  16.865  1.00  0.00     0.272 C
HETATM   31  C21 UNL     1      16.170 -16.793  16.084  1.00  0.00     0.272 C
HETATM   32  C22 UNL     1      14.547 -15.042  16.266  1.00  0.00     0.262 C
ENDBRANCH  22  26
BRANCH  17  33
HETATM   33  C11 UNL     1      14.906 -11.002  21.357  1.00  0.00     0.082 C
HETATM   34  C12 UNL     1      13.957  -9.865  21.115  1.00  0.00     0.042 C
HETATM   35  C13 UNL     1      12.641 -10.542  20.766  1.00  0.00     0.237 C
HETATM   36  N8  UNL     1      12.631 -11.677  21.636  1.00  0.00    -0.074 N
HETATM   37  C14 UNL     1      11.816 -12.707  20.975  1.00  0.00     0.272 C
HETATM   38  C15 UNL     1      12.003 -11.427  22.916  1.00  0.00     0.272 C
HETATM   39  C16 UNL     1      13.996 -12.127  21.774  1.00  0.00     0.248 C
ENDBRANCH  17  33
ENDBRANCH  13  17
ENDBRANCH   6   9
ENDBRANCH   4   5
ENDBRANCH   1   4
TORSDOF 6
ENDMDL