MODEL 1
REMARK VINA RESULT: -7.665046349      0.000      0.000
REMARK  6 active torsions:
REMARK  status: ('A' for Active; 'I' for Inactive)
REMARK    1  A    between atoms: C2_2  and  C3_3
REMARK    2  A    between atoms: C11_13  and  N3_14
REMARK       I    between atoms: N3_14  and  C12_16
REMARK    3  A    between atoms: C12_16  and  C13_18
REMARK    4  A    between atoms: C14_19  and  C15_20
REMARK    5  A    between atoms: C15_20  and  O2_21
REMARK    6  A    between atoms: N4_23  and  C16_25
ROOT
HETATM    1  C13 UNL     1      15.110 -13.312  20.770  1.00  0.00     0.058 C
HETATM    2  C14 UNL     1      14.101 -14.132  20.712  1.00  0.00     0.042 C
HETATM    3  C19 UNL     1      12.981 -13.439  19.932  1.00  0.00     0.151 C
HETATM    4  C20 UNL     1      12.420 -14.371  18.870  1.00  0.00     0.051 C
HETATM    5  C21 UNL     1      11.837 -13.144  20.897  1.00  0.00     0.051 C
HETATM    6  N5  UNL     1      13.547 -12.283  19.406  1.00  0.00    -0.050 N
ATOM      7  H51 UNL     1      12.929 -11.477  19.501  1.00  0.00     0.279 HD
ATOM      8  H52 UNL     1      13.599 -12.313  18.388  1.00  0.00     0.279 HD
HETATM    9  C22 UNL     1      14.814 -12.050  19.994  1.00  0.00     0.152 C
HETATM   10  C23 UNL     1      15.883 -11.977  18.892  1.00  0.00     0.052 C
HETATM   11  C24 UNL     1      14.843 -10.821  20.853  1.00  0.00     0.052 C
ENDROOT
BRANCH   1  12
HETATM   12  C12 UNL     1      16.413 -13.510  21.446  1.00  0.00     0.251 C
HETATM   13  N3  UNL     1      17.454 -14.238  20.824  1.00  0.00    -0.352 N
ATOM     14  H3  UNL     1      17.318 -14.633  19.893  1.00  0.00     0.163 HD
HETATM   15  O1  UNL     1      16.693 -13.078  22.564  1.00  0.00    -0.268 OA
BRANCH  13  16
HETATM   16  C11 UNL     1      18.733 -14.423  21.525  1.00  0.00     0.090 C
HETATM   17  C10 UNL     1      19.135 -15.851  21.691  1.00  0.00     0.022 C
HETATM   18  C9  UNL     1      19.273 -16.318  23.131  1.00  0.00     0.065 C
HETATM   19  C26 UNL     1      20.551 -15.437  21.324  1.00  0.00     0.030 C
HETATM   20  C7  UNL     1      20.412 -15.479  23.640  1.00  0.00     0.021 A
HETATM   21  C6  UNL     1      21.143 -14.979  22.596  1.00  0.00    -0.015 A
HETATM   22  N2  UNL     1      20.782 -15.177  24.896  1.00  0.00    -0.344 N
HETATM   23  C5  UNL     1      22.215 -14.193  22.884  1.00  0.00     0.101 A
HETATM   24  N1  UNL     1      22.579 -13.893  24.160  1.00  0.00    -0.350 N
HETATM   25  C3  UNL     1      21.842 -14.399  25.174  1.00  0.00     0.084 A
HETATM   26  C4  UNL     1      23.731 -13.048  24.407  1.00  0.00     0.156 C
HETATM   27  C8  UNL     1      19.999 -15.718  25.982  1.00  0.00     0.157 C
HETATM   28  C25 UNL     1      19.935 -14.261  20.598  1.00  0.00     0.035 C
BRANCH  25  29
HETATM   29  C2  UNL     1      22.204 -14.090  26.577  1.00  0.00     0.072 C
HETATM   30  C1  UNL     1      21.449 -12.932  27.155  1.00  0.00     0.013 C
ENDBRANCH  25  29
ENDBRANCH  13  16
ENDBRANCH   1  12
BRANCH   2  31
HETATM   31  C15 UNL     1      13.866 -15.468  21.246  1.00  0.00     0.145 C
HETATM   32  N4  UNL     1      14.054 -16.763  20.920  1.00  0.00    -0.367 N
ATOM     33  H4  UNL     1      14.498 -17.008  20.035  1.00  0.00     0.162 HD
BRANCH  31  34
HETATM   34  O2  UNL     1      13.271 -15.348  22.447  1.00  0.00    -0.346 OA
ATOM     35  H2  UNL     1      13.528 -16.089  22.984  1.00  0.00     0.219 HD
ENDBRANCH  31  34
BRANCH  32  36
HETATM   36  C16 UNL     1      13.607 -17.850  21.869  1.00  0.00     0.075 C
HETATM   37  C17 UNL     1      12.553 -18.700  21.253  1.00  0.00     0.032 C
HETATM   38  C18 UNL     1      14.799 -18.717  22.188  1.00  0.00     0.032 C
ENDBRANCH  32  36
ENDBRANCH   2  31
TORSDOF 6
ENDMDL