MODEL 1
REMARK VINA RESULT: -9.623338032      0.000      0.000
REMARK  5 active torsions:
REMARK  status: ('A' for Active; 'I' for Inactive)
REMARK    1  A    between atoms: C2_2  and  C4_4
REMARK       I    between atoms: N2_12  and  C9_13
REMARK    2  A    between atoms: C9_13  and  C10_15
REMARK    3  A    between atoms: N3_17  and  N4_19
REMARK    4  A    between atoms: N4_19  and  C12_21
REMARK    5  A    between atoms: C20_29  and  C21_30
REMARK       I    between atoms: C21_30  and  N5_32
ROOT
HETATM    1  C10 UNL     1      14.191 -12.896  20.271  1.00  0.00     0.138 C
HETATM    2  C11 UNL     1      15.422 -12.868  19.430  1.00  0.00     0.017 C
HETATM    3  N3  UNL     1      16.653 -13.050  19.666  1.00  0.00    -0.312 N
ATOM      4  H3  UNL     1      16.938 -13.266  20.621  1.00  0.00     0.186 HD
HETATM    5  C18 UNL     1      14.890 -12.504  18.054  1.00  0.00     0.056 C
HETATM    6  C19 UNL     1      14.045 -11.312  18.418  1.00  0.00     0.021 C
HETATM    7  C20 UNL     1      13.444 -11.667  19.749  1.00  0.00     0.097 C
ENDROOT
BRANCH   1   8
HETATM    8  C9  UNL     1      13.360 -14.087  19.975  1.00  0.00     0.235 C
HETATM    9  N2  UNL     1      13.764 -15.401  20.266  1.00  0.00    -0.314 N
HETATM   10  C4  UNL     1      13.069 -16.640  20.022  1.00  0.00     0.018 C
HETATM   11  C8  UNL     1      15.061 -15.585  20.974  1.00  0.00     0.234 C
HETATM   12  C5  UNL     1      13.952 -17.634  19.393  1.00  0.00     0.127 C
HETATM   13  C6  UNL     1      13.443 -18.399  18.204  1.00  0.00     0.038 C
HETATM   14  N1  UNL     1      15.266 -17.103  19.045  1.00  0.00    -0.350 N
HETATM   15  C7  UNL     1      15.921 -16.347  20.043  1.00  0.00     0.236 C
ATOM     16  H1  UNL     1      15.689 -17.268  18.132  1.00  0.00     0.163 HD
HETATM   17  O1  UNL     1      17.193 -16.324  20.134  1.00  0.00    -0.272 OA
HETATM   18  O2  UNL     1      12.241 -13.788  19.427  1.00  0.00    -0.272 OA
BRANCH  10  19
HETATM   19  C2  UNL     1      11.670 -16.578  19.592  1.00  0.00     0.025 C
HETATM   20  C1  UNL     1      11.349 -16.498  18.150  1.00  0.00     0.016 C
HETATM   21  C3  UNL     1      10.879 -17.714  20.278  1.00  0.00     0.016 C
ENDBRANCH  10  19
ENDBRANCH   1   8
BRANCH   7  22
HETATM   22  C21 UNL     1      13.557 -10.551  20.727  1.00  0.00     0.225 C
HETATM   23  O3  UNL     1      14.395  -9.643  20.509  1.00  0.00    -0.273 OA
HETATM   24  N5  UNL     1      12.758 -10.476  21.890  1.00  0.00    -0.352 N
HETATM   25  C22 UNL     1      11.763 -11.477  22.229  1.00  0.00     0.126 C
HETATM   26  C25 UNL     1      12.811  -9.435  22.874  1.00  0.00     0.126 C
HETATM   27  C23 UNL     1      11.553 -11.237  23.711  1.00  0.00     0.021 C
HETATM   28  C24 UNL     1      11.676  -9.747  23.799  1.00  0.00     0.021 C
ENDBRANCH   7  22
BRANCH   3  29
HETATM   29  N4  UNL     1      17.627 -12.968  18.689  1.00  0.00    -0.332 N
ATOM     30  H4  UNL     1      17.510 -13.475  17.812  1.00  0.00     0.180 HD
BRANCH  29  31
HETATM   31  C12 UNL     1      18.807 -12.170  18.907  1.00  0.00     0.099 C
HETATM   32  C13 UNL     1      19.978 -12.811  18.189  1.00  0.00     0.026 C
HETATM   33  C14 UNL     1      21.205 -11.998  18.451  1.00  0.00     0.002 C
HETATM   34  C15 UNL     1      21.480 -11.953  19.937  1.00  0.00     0.000 C
HETATM   35  C16 UNL     1      20.388 -12.689  20.709  1.00  0.00     0.002 C
HETATM   36  C17 UNL     1      19.091 -11.999  20.382  1.00  0.00     0.026 C
ENDBRANCH  29  31
ENDBRANCH   3  29
TORSDOF 5
ENDMDL