MODEL 4
REMARK VINA RESULT: -8.068148439      1.904      2.319
REMARK  7 active torsions:
REMARK  status: ('A' for Active; 'I' for Inactive)
REMARK    1  A    between atoms: C2_2  and  C3_3
REMARK    2  A    between atoms: C3_3  and  N1_4
REMARK    3  A    between atoms: N1_4  and  C4_6
REMARK    4  A    between atoms: C4_6  and  N2_8
REMARK    5  A    between atoms: C11_15  and  N3_16
REMARK       I    between atoms: N3_16  and  C12_18
REMARK    6  A    between atoms: C12_18  and  C13_20
REMARK    7  A    between atoms: C13_20  and  N4_21
ROOT
HETATM    1  N2  UNL     1      18.740 -15.121  23.002  1.00  0.00    -0.358 N
HETATM    2  C5  UNL     1      18.193 -13.756  22.874  1.00  0.00     0.126 C
HETATM    3  C6  UNL     1      19.213 -12.960  22.054  1.00  0.00     0.031 C
HETATM    4  C7  UNL     1      19.424 -13.630  20.727  1.00  0.00    -0.017 C
HETATM    5  C8  UNL     1      20.909 -13.873  20.543  1.00  0.00     0.012 C
HETATM    6  C9  UNL     1      21.068 -13.943  19.061  1.00  0.00     0.003 C
HETATM    7  C10 UNL     1      20.121 -12.917  18.532  1.00  0.00     0.026 C
HETATM    8  C11 UNL     1      19.143 -12.622  19.635  1.00  0.00     0.093 C
HETATM    9  C21 UNL     1      18.635 -14.885  20.581  1.00  0.00     0.031 C
HETATM   10  C22 UNL     1      18.942 -15.806  21.769  1.00  0.00     0.126 C
ENDROOT
BRANCH   8  11
HETATM   11  N3  UNL     1      17.796 -12.671  19.140  1.00  0.00    -0.354 N
HETATM   12  C12 UNL     1      16.897 -11.624  19.419  1.00  0.00     0.246 C
HETATM   13  O1  UNL     1      17.332 -10.659  20.113  1.00  0.00    -0.272 OA
ATOM     14  H3  UNL     1      17.488 -13.468  18.584  1.00  0.00     0.162 HD
BRANCH  12  15
HETATM   15  C13 UNL     1      15.530 -11.705  18.900  1.00  0.00     0.367 C
BRANCH  15  16
HETATM   16  N4  UNL     1      14.481 -11.835  19.839  1.00  0.00     0.026 N
HETATM   17  C14 UNL     1      14.933 -12.123  21.189  1.00  0.00     0.293 C
HETATM   18  C15 UNL     1      13.799 -12.448  22.114  1.00  0.00     0.268 C
HETATM   19  N5  UNL     1      12.564 -11.808  21.793  1.00  0.00    -0.059 N
HETATM   20  C16 UNL     1      11.882 -11.480  23.041  1.00  0.00     0.273 C
HETATM   21  C17 UNL     1      12.785 -10.577  21.093  1.00  0.00     0.268 C
HETATM   22  C19 UNL     1      11.647 -12.693  21.075  1.00  0.00     0.341 C
HETATM   23  C18 UNL     1      13.536 -10.754  19.797  1.00  0.00     0.293 C
HETATM   24  C20 UNL     1      12.469 -13.337  19.995  1.00  0.00     0.268 C
HETATM   25  O2  UNL     1      11.905 -14.338  19.480  1.00  0.00    -0.270 OA
HETATM   26  N6  UNL     1      13.754 -13.004  19.472  1.00  0.00    -0.183 N
ATOM     27  H6  UNL     1      14.176 -13.640  18.794  1.00  0.00     0.197 HD
ENDBRANCH  15  16
ENDBRANCH  12  15
ENDBRANCH   8  11
BRANCH   1  28
HETATM   28  C4  UNL     1      18.988 -15.625  24.266  1.00  0.00     0.169 C
HETATM   29  S1  UNL     1      17.898 -16.806  24.819  1.00  0.00    -0.041 SA
BRANCH  28  30
HETATM   30  N1  UNL     1      20.029 -15.261  25.112  1.00  0.00    -0.367 N
ATOM     31  H1  UNL     1      19.789 -15.232  26.103  1.00  0.00     0.161 HD
BRANCH  30  32
HETATM   32  C3  UNL     1      21.373 -14.926  24.809  1.00  0.00     0.121 C
BRANCH  32  33
HETATM   33  C2  UNL     1      21.566 -13.405  24.716  1.00  0.00     0.015 C
HETATM   34  C1  UNL     1      21.119 -12.708  25.968  1.00  0.00     0.006 C
ENDBRANCH  32  33
ENDBRANCH  30  32
ENDBRANCH  28  30
ENDBRANCH   1  28
TORSDOF 7
ENDMDL