MODEL 3
REMARK VINA RESULT: -6.765298494      2.816      6.834
REMARK  8 active torsions:
REMARK  status: ('A' for Active; 'I' for Inactive)
REMARK    1  A    between atoms: C2_2  and  C3_3
REMARK    2  A    between atoms: C3_3  and  N1_4
REMARK       I    between atoms: N1_4  and  C5_6
REMARK       I    between atoms: C5_6  and  N2_8
REMARK    3  A    between atoms: N2_8  and  C6_10
REMARK    4  A    between atoms: N3_12  and  C8_13
REMARK    5  A    between atoms: C8_13  and  O2_14
REMARK    6  A    between atoms: C8_13  and  N4_16
REMARK    7  A    between atoms: C18_27  and  N6_28
REMARK    8  A    between atoms: C18_27  and  C21_33
REMARK       I    between atoms: N6_28  and  C19_30
ROOT
HETATM    1  C6  UNL     1      14.859 -12.886  20.622  1.00  0.00     0.143 C
HETATM    2  C7  UNL     1      14.029 -14.079  20.392  1.00  0.00     0.154 C
HETATM    3  N3  UNL     1      14.833 -15.315  20.219  1.00  0.00    -0.345 N
HETATM    4  C15 UNL     1      15.506 -15.712  19.040  1.00  0.00     0.126 C
HETATM    5  C16 UNL     1      16.801 -14.951  18.805  1.00  0.00     0.023 C
HETATM    6  C17 UNL     1      16.973 -13.938  19.862  1.00  0.00     0.046 C
HETATM    7  C18 UNL     1      16.105 -12.753  19.740  1.00  0.00     0.143 C
ENDROOT
BRANCH   3   8
HETATM    8  C8  UNL     1      14.847 -16.082  21.369  1.00  0.00     0.217 C
BRANCH   8   9
HETATM    9  O2  UNL     1      13.914 -15.734  22.274  1.00  0.00    -0.333 OA
ATOM     10  H2  UNL     1      13.979 -16.201  23.098  1.00  0.00     0.220 HD
ENDBRANCH   8   9
BRANCH   8  11
HETATM   11  N4  UNL     1      15.616 -17.148  21.812  1.00  0.00    -0.344 N
HETATM   12  C9  UNL     1      14.927 -18.448  22.157  1.00  0.00     0.154 C
HETATM   13  C10 UNL     1      15.161 -18.621  23.633  1.00  0.00     0.256 C
HETATM   14  N5  UNL     1      16.578 -18.788  23.906  1.00  0.00    -0.072 N
HETATM   15  C11 UNL     1      16.791 -20.169  24.293  1.00  0.00     0.272 C
HETATM   16  C12 UNL     1      16.921 -17.942  25.023  1.00  0.00     0.272 C
HETATM   17  C13 UNL     1      17.388 -18.527  22.755  1.00  0.00     0.256 C
HETATM   18  C14 UNL     1      17.029 -17.229  22.034  1.00  0.00     0.154 C
ENDBRANCH   8  11
ENDBRANCH   3   8
BRANCH   1  19
HETATM   19  N2  UNL     1      14.079 -11.672  20.580  1.00  0.00    -0.334 N
HETATM   20  C5  UNL     1      13.378 -11.231  21.724  1.00  0.00     0.318 C
HETATM   21  N1  UNL     1      12.597 -10.039  21.738  1.00  0.00    -0.339 N
HETATM   22  O1  UNL     1      13.450 -11.923  22.772  1.00  0.00    -0.247 OA
HETATM   23  C4  UNL     1      12.482  -9.221  20.567  1.00  0.00     0.154 C
ATOM     24  H2  UNL     1      14.034 -11.129  19.719  1.00  0.00     0.164 HD
BRANCH  21  25
HETATM   25  C3  UNL     1      11.907  -9.638  22.939  1.00  0.00     0.127 C
BRANCH  25  26
HETATM   26  C2  UNL     1      12.680  -8.613  23.738  1.00  0.00     0.015 C
HETATM   27  C1  UNL     1      11.664  -7.748  24.467  1.00  0.00     0.006 C
ENDBRANCH  25  26
ENDBRANCH  21  25
ENDBRANCH   1  19
BRANCH   7  28
HETATM   28  N6  UNL     1      15.738 -12.349  18.418  1.00  0.00    -0.341 N
HETATM   29  C19 UNL     1      16.679 -11.989  17.443  1.00  0.00     0.214 C
HETATM   30  C20 UNL     1      16.191 -11.581  16.070  1.00  0.00     0.117 C
HETATM   31  O3  UNL     1      17.928 -11.961  17.566  1.00  0.00    -0.274 OA
ATOM     32  H6  UNL     1      14.748 -12.322  18.173  1.00  0.00     0.163 HD
ENDBRANCH   7  28
BRANCH   7  33
HETATM   33  C21 UNL     1      16.909 -11.601  20.321  1.00  0.00     0.204 C
HETATM   34  O4  UNL     1      16.552 -10.438  20.146  1.00  0.00    -0.646 OA
HETATM   35  O5  UNL     1      18.045 -11.883  21.044  1.00  0.00    -0.646 OA
ENDBRANCH   7  33
TORSDOF 8
ENDMDL