MODEL 4
REMARK VINA RESULT: -8.361694450      4.272      5.792
REMARK  6 active torsions:
REMARK  status: ('A' for Active; 'I' for Inactive)
REMARK       I    between atoms: N2_6  and  C5_7
REMARK       I    between atoms: C5_7  and  N3_9
REMARK    1  A    between atoms: N3_9  and  C6_11
REMARK    2  A    between atoms: C6_11  and  C7_12
REMARK    3  A    between atoms: C6_11  and  C16_28
REMARK    4  A    between atoms: C7_12  and  C8_13
REMARK    5  A    between atoms: C8_13  and  C9_14
REMARK       I    between atoms: N4_15  and  C10_17
REMARK       I    between atoms: C10_17  and  N5_19
REMARK    6  A    between atoms: N6_22  and  C13_23
ROOT
HETATM    1  C6  UNL     1      21.780 -14.726  23.409  1.00  0.00     0.090 C
ENDROOT
BRANCH   1   2
HETATM    2  N3  UNL     1      22.938 -15.545  23.532  1.00  0.00    -0.338 N
HETATM    3  C5  UNL     1      23.210 -16.803  22.959  1.00  0.00     0.318 C
HETATM    4  N2  UNL     1      24.433 -17.497  23.182  1.00  0.00    -0.331 N
HETATM    5  O1  UNL     1      22.360 -17.351  22.225  1.00  0.00    -0.247 OA
HETATM    6  C4  UNL     1      24.649 -18.793  22.594  1.00  0.00     0.155 C
HETATM    7  C20 UNL     1      25.494 -16.936  23.991  1.00  0.00     0.155 C
HETATM    8  C3  UNL     1      26.039 -18.853  21.979  1.00  0.00     0.256 C
HETATM    9  N1  UNL     1      27.073 -18.397  22.860  1.00  0.00    -0.072 N
HETATM   10  C1  UNL     1      28.075 -19.420  23.114  1.00  0.00     0.272 C
HETATM   11  C2  UNL     1      27.706 -17.229  22.242  1.00  0.00     0.272 C
HETATM   12  C21 UNL     1      26.569 -17.963  24.149  1.00  0.00     0.256 C
ATOM     13  H3  UNL     1      23.679 -15.165  24.120  1.00  0.00     0.164 HD
ENDBRANCH   1   2
BRANCH   1  14
HETATM   14  C7  UNL     1      21.920 -13.485  22.607  1.00  0.00     0.031 C
BRANCH  14  15
HETATM   15  C8  UNL     1      21.166 -13.440  21.318  1.00  0.00     0.046 C
BRANCH  15  16
HETATM   16  C9  UNL     1      20.359 -14.625  21.014  1.00  0.00     0.065 C
HETATM   17  N4  UNL     1      19.315 -14.679  20.285  1.00  0.00    -0.323 N
HETATM   18  C10 UNL     1      18.704 -13.614  19.613  1.00  0.00     0.322 C
ATOM     19  H4  UNL     1      18.878 -15.595  20.180  1.00  0.00     0.169 HD
HETATM   20  O2  UNL     1      19.054 -13.352  18.436  1.00  0.00    -0.247 OA
HETATM   21  N5  UNL     1      17.699 -12.821  20.230  1.00  0.00    -0.331 N
HETATM   22  C11 UNL     1      17.268 -13.111  21.598  1.00  0.00     0.147 C
HETATM   23  C15 UNL     1      17.082 -11.717  19.554  1.00  0.00     0.147 C
HETATM   24  C12 UNL     1      15.750 -13.191  21.548  1.00  0.00     0.145 C
HETATM   25  N6  UNL     1      15.292 -11.853  21.230  1.00  0.00    -0.357 N
HETATM   26  C14 UNL     1      16.090 -10.980  20.425  1.00  0.00     0.145 C
BRANCH  25  27
HETATM   27  C13 UNL     1      14.050 -11.423  21.722  1.00  0.00     0.183 C
HETATM   28  N7  UNL     1      13.225 -12.278  22.500  1.00  0.00    -0.070 NA
HETATM   29  S1  UNL     1      13.518  -9.918  21.410  1.00  0.00    -0.044 SA
ENDBRANCH  25  27
ENDBRANCH  15  16
ENDBRANCH  14  15
ENDBRANCH   1  14
BRANCH   1  30
HETATM   30  C16 UNL     1      21.355 -14.292  24.818  1.00  0.00     0.008 C
HETATM   31  C17 UNL     1      20.428 -13.107  24.825  1.00  0.00     0.007 C
HETATM   32  C18 UNL     1      21.257 -12.529  25.949  1.00  0.00     0.001 C
HETATM   33  C19 UNL     1      22.408 -13.362  25.449  1.00  0.00     0.007 C
ENDBRANCH   1  30
TORSDOF 6
ENDMDL