MODEL 2
REMARK VINA RESULT: -7.669983474      3.098      6.054
REMARK  8 active torsions:
REMARK  status: ('A' for Active; 'I' for Inactive)
REMARK    1  A    between atoms: C2_2  and  C3_3
REMARK    2  A    between atoms: C3_3  and  N2_7
REMARK    3  A    between atoms: N2_7  and  C4_9
REMARK    4  A    between atoms: C4_9  and  C5_10
REMARK    5  A    between atoms: C4_9  and  C11_18
REMARK       I    between atoms: C5_10  and  N3_12
REMARK       I    between atoms: C11_18  and  N4_20
REMARK    6  A    between atoms: C18_28  and  C19_29
REMARK    7  A    between atoms: C18_28  and  C21_33
REMARK    8  A    between atoms: C19_29  and  C20_30
ROOT
HETATM    1  C4  UNL     1      14.661 -13.447  20.033  1.00  0.00     0.268 C
ENDROOT
BRANCH   1   2
HETATM    2  N2  UNL     1      15.970 -12.793  20.305  1.00  0.00    -0.355 N
ATOM      3  H2  UNL     1      16.397 -12.796  21.231  1.00  0.00     0.162 HD
BRANCH   2   4
HETATM    4  C3  UNL     1      16.602 -12.148  19.162  1.00  0.00     0.102 C
HETATM    5  N1  UNL     1      15.870 -11.261  18.644  1.00  0.00    -0.385 N
ATOM      6  H12 UNL     1      16.313 -10.809  17.844  1.00  0.00     0.157 HD
ATOM      7  H11 UNL     1      14.933 -10.984  18.938  1.00  0.00     0.157 HD
BRANCH   4   8
HETATM    8  C2  UNL     1      17.959 -12.548  18.738  1.00  0.00    -0.015 C
HETATM    9  C1  UNL     1      18.073 -13.131  17.369  1.00  0.00     0.052 C
HETATM   10  C18 UNL     1      18.993 -12.319  19.477  1.00  0.00    -0.053 C
BRANCH  10  11
HETATM   11  C19 UNL     1      18.851 -11.743  20.860  1.00  0.00     0.148 C
BRANCH  11  12
HETATM   12  C20 UNL     1      18.951 -12.746  21.931  1.00  0.00     0.176 C
HETATM   13  O3  UNL     1      17.898 -13.340  22.261  1.00  0.00    -0.648 OA
HETATM   14  O4  UNL     1      20.115 -13.088  22.607  1.00  0.00    -0.648 OA
ENDBRANCH  11  12
ENDBRANCH  10  11
BRANCH  10  15
HETATM   15  C21 UNL     1      20.367 -12.672  19.031  1.00  0.00    -0.027 C
HETATM   16  C22 UNL     1      21.441 -11.818  19.721  1.00  0.00     0.019 C
HETATM   17  C23 UNL     1      20.706 -14.095  19.343  1.00  0.00     0.019 C
HETATM   18  C24 UNL     1      20.562 -12.403  17.567  1.00  0.00     0.019 C
ENDBRANCH  10  15
ENDBRANCH   4   8
ENDBRANCH   2   4
ENDBRANCH   1   2
BRANCH   1  19
HETATM   19  C5  UNL     1      13.815 -13.107  21.178  1.00  0.00     0.252 C
HETATM   20  O1  UNL     1      13.781 -14.026  22.083  1.00  0.00    -0.270 OA
HETATM   21  N3  UNL     1      13.058 -11.959  21.435  1.00  0.00    -0.350 N
HETATM   22  C6  UNL     1      13.074 -10.833  20.562  1.00  0.00     0.126 C
HETATM   23  C10 UNL     1      12.228 -11.984  22.655  1.00  0.00     0.126 C
HETATM   24  C7  UNL     1      12.962  -9.507  21.270  1.00  0.00     0.020 C
HETATM   25  C8  UNL     1      12.699  -9.618  22.749  1.00  0.00     0.003 C
HETATM   26  C9  UNL     1      11.593 -10.664  22.917  1.00  0.00     0.020 C
ENDBRANCH   1  19
BRANCH   1  27
HETATM   27  C11 UNL     1      14.965 -14.889  19.889  1.00  0.00     0.252 C
HETATM   28  O2  UNL     1      16.154 -15.262  20.199  1.00  0.00    -0.270 OA
HETATM   29  N4  UNL     1      14.089 -15.875  19.446  1.00  0.00    -0.347 N
HETATM   30  C12 UNL     1      14.615 -17.262  19.373  1.00  0.00     0.154 C
HETATM   31  C17 UNL     1      12.728 -15.748  19.041  1.00  0.00     0.154 C
HETATM   32  C13 UNL     1      13.559 -18.203  19.875  1.00  0.00     0.256 C
HETATM   33  N5  UNL     1      12.478 -18.209  18.938  1.00  0.00    -0.072 N
HETATM   34  C14 UNL     1      11.321 -18.772  19.637  1.00  0.00     0.272 C
HETATM   35  C15 UNL     1      12.821 -19.162  17.884  1.00  0.00     0.272 C
HETATM   36  C16 UNL     1      12.175 -16.941  18.342  1.00  0.00     0.256 C
ENDBRANCH   1  27
TORSDOF 8
ENDMDL