MODEL 1
REMARK VINA RESULT: -9.657549969      0.000      0.000
REMARK  5 active torsions:
REMARK  status: ('A' for Active; 'I' for Inactive)
REMARK       I    between atoms: C1_2  and  N2_4
REMARK    1  A    between atoms: C5_8  and  C6_9
REMARK       I    between atoms: C6_9  and  N3_11
REMARK    2  A    between atoms: N3_11  and  C7_13
REMARK    3  A    between atoms: N4_18  and  C12_19
REMARK    4  A    between atoms: C12_19  and  C13_20
REMARK    5  A    between atoms: C12_19  and  C15_27
REMARK       I    between atoms: C13_20  and  N5_22
ROOT
HETATM    1  C7  UNL     1      19.950 -13.667  20.861  1.00  0.00     0.176 C
HETATM    2  C8  UNL     1      20.823 -12.901  19.929  1.00  0.00     0.035 C
HETATM    3  C9  UNL     1      20.549 -13.144  18.486  1.00  0.00     0.004 C
HETATM    4  C10 UNL     1      19.301 -12.385  18.111  1.00  0.00     0.020 C
HETATM    5  C11 UNL     1      18.086 -13.283  18.307  1.00  0.00     0.127 C
HETATM    6  N4  UNL     1      17.619 -13.214  19.680  1.00  0.00    -0.337 N
HETATM    7  C21 UNL     1      18.526 -13.268  20.796  1.00  0.00     0.243 C
HETATM    8  O4  UNL     1      18.044 -12.923  21.898  1.00  0.00    -0.271 OA
ENDROOT
BRANCH   6   9
HETATM    9  C12 UNL     1      16.229 -13.085  19.966  1.00  0.00     0.183 C
BRANCH   9  10
HETATM   10  C13 UNL     1      15.743 -11.670  19.778  1.00  0.00     0.247 C
HETATM   11  O3  UNL     1      15.553 -11.166  18.642  1.00  0.00    -0.271 OA
HETATM   12  N5  UNL     1      15.473 -10.830  20.893  1.00  0.00    -0.302 N
HETATM   13  C14 UNL     1      14.450 -10.011  20.857  1.00  0.00     0.203 C
ATOM     14  H5  UNL     1      16.074 -10.864  21.716  1.00  0.00     0.171 HD
HETATM   15  N6  UNL     1      13.586  -9.925  19.740  1.00  0.00    -0.066 NA
HETATM   16  N7  UNL     1      14.160  -9.168  21.964  1.00  0.00    -0.066 NA
ENDBRANCH   9  10
BRANCH   9  17
HETATM   17  C15 UNL     1      15.309 -14.077  19.357  1.00  0.00     0.018 C
HETATM   18  C16 UNL     1      15.780 -15.494  19.305  1.00  0.00     0.007 C
HETATM   19  C17 UNL     1      14.786 -16.267  18.443  1.00  0.00     0.000 C
HETATM   20  C18 UNL     1      13.493 -16.275  19.278  1.00  0.00     0.000 C
HETATM   21  C19 UNL     1      12.943 -14.872  19.208  1.00  0.00     0.000 C
HETATM   22  C20 UNL     1      13.904 -13.949  19.924  1.00  0.00     0.007 C
ENDBRANCH   9  17
ENDBRANCH   6   9
BRANCH   1  23
HETATM   23  N3  UNL     1      20.422 -13.700  22.220  1.00  0.00    -0.346 N
HETATM   24  C6  UNL     1      21.159 -14.745  22.780  1.00  0.00     0.241 C
HETATM   25  O2  UNL     1      21.443 -15.766  22.072  1.00  0.00    -0.271 OA
ATOM     26  H3  UNL     1      20.201 -12.902  22.817  1.00  0.00     0.163 HD
BRANCH  24  27
HETATM   27  C5  UNL     1      21.639 -14.736  24.168  1.00  0.00     0.180 C
HETATM   28  N2  UNL     1      22.667 -13.789  24.438  1.00  0.00    -0.323 N
HETATM   29  C1  UNL     1      24.020 -13.802  23.959  1.00  0.00     0.331 C
HETATM   30  C2  UNL     1      22.182 -12.750  25.298  1.00  0.00     0.128 C
HETATM   31  N1  UNL     1      24.932 -12.801  24.322  1.00  0.00    -0.040 NA
HETATM   32  O1  UNL     1      24.355 -14.740  23.207  1.00  0.00    -0.251 OA
HETATM   33  C3  UNL     1      20.882 -13.216  25.838  1.00  0.00     0.022 C
HETATM   34  C4  UNL     1      20.582 -14.533  25.185  1.00  0.00     0.037 C
ENDBRANCH  24  27
ENDBRANCH   1  23
TORSDOF 5
ENDMDL