MODEL 5
REMARK VINA RESULT: -7.044615570      1.718      3.004
REMARK  10 active torsions:
REMARK  status: ('A' for Active; 'I' for Inactive)
REMARK    1  A    between atoms: N1_2  and  C4_5
REMARK    2  A    between atoms: C4_5  and  C5_6
REMARK    3  A    between atoms: C5_6  and  C6_7
REMARK    4  A    between atoms: C6_7  and  C7_8
REMARK    5  A    between atoms: C7_8  and  N3_12
REMARK    6  A    between atoms: N3_12  and  C8_14
REMARK    7  A    between atoms: C8_14  and  N4_15
REMARK       I    between atoms: N5_21  and  C11_22
REMARK       I    between atoms: C11_22  and  N6_24
REMARK    8  A    between atoms: N7_27  and  C14_28
REMARK    9  A    between atoms: C14_28  and  O2_29
REMARK   10  A    between atoms: C14_28  and  N8_31
ROOT
HETATM    1  C8  UNL     1      14.475 -10.732  20.571  1.00  0.00     0.214 C
HETATM    2  C9  UNL     1      13.818 -11.148  21.880  1.00  0.00     0.083 C
HETATM    3  C10 UNL     1      14.248 -12.563  22.002  1.00  0.00     0.132 C
HETATM    4  N5  UNL     1      15.529 -12.680  21.314  1.00  0.00    -0.330 N
HETATM    5  C11 UNL     1      16.372 -13.839  21.396  1.00  0.00     0.322 C
HETATM    6  O1  UNL     1      15.989 -14.832  22.104  1.00  0.00    -0.247 OA
HETATM    7  N6  UNL     1      17.600 -13.919  20.727  1.00  0.00    -0.316 N
HETATM    8  C12 UNL     1      18.308 -13.010  19.881  1.00  0.00     0.149 C
HETATM    9  C13 UNL     1      19.746 -13.564  19.864  1.00  0.00     0.148 C
HETATM   10  N7  UNL     1      19.787 -14.515  20.899  1.00  0.00    -0.329 N
HETATM   11  C21 UNL     1      18.427 -15.147  20.832  1.00  0.00     0.257 C
HETATM   12  C22 UNL     1      15.794 -11.501  20.574  1.00  0.00     0.189 C
ENDROOT
BRANCH   1  13
HETATM   13  N3  UNL     1      13.635 -11.198  19.497  1.00  0.00    -0.346 N
ATOM     14  H3  UNL     1      12.617 -11.156  19.562  1.00  0.00     0.163 HD
BRANCH  13  15
HETATM   15  C7  UNL     1      14.288 -11.727  18.328  1.00  0.00     0.072 C
HETATM   16  N2  UNL     1      14.410 -10.933  17.351  1.00  0.00    -0.389 N
ATOM     17  H22 UNL     1      14.874 -11.308  16.523  1.00  0.00     0.157 HD
ATOM     18  H21 UNL     1      14.095  -9.964  17.387  1.00  0.00     0.157 HD
BRANCH  15  19
HETATM   19  C6  UNL     1      14.743 -13.125  18.276  1.00  0.00     0.077 C
BRANCH  19  20
HETATM   20  C5  UNL     1      13.689 -14.060  18.780  1.00  0.00     0.035 C
BRANCH  20  21
HETATM   21  C4  UNL     1      14.255 -15.422  18.986  1.00  0.00     0.236 C
BRANCH  21  22
HETATM   22  N1  UNL     1      13.339 -16.313  19.679  1.00  0.00    -0.079 N
HETATM   23  C1  UNL     1      14.011 -17.370  20.375  1.00  0.00     0.271 C
HETATM   24  C2  UNL     1      12.539 -15.575  20.655  1.00  0.00     0.271 C
HETATM   25  C3  UNL     1      12.466 -16.898  18.682  1.00  0.00     0.271 C
ENDBRANCH  21  22
ENDBRANCH  20  21
ENDBRANCH  19  20
ENDBRANCH  15  19
ENDBRANCH  13  15
ENDBRANCH   1  13
BRANCH   1  26
HETATM   26  N4  UNL     1      14.713  -9.319  20.554  1.00  0.00    -0.051 N
ATOM     27  H43 UNL     1      14.766  -8.977  19.594  1.00  0.00     0.277 HD
ATOM     28  H42 UNL     1      13.887  -8.812  20.872  1.00  0.00     0.277 HD
ATOM     29  H41 UNL     1      15.535  -9.030  21.083  1.00  0.00     0.277 HD
ENDBRANCH   1  26
BRANCH  10  30
HETATM   30  C14 UNL     1      20.731 -14.962  21.823  1.00  0.00     0.222 C
BRANCH  30  31
HETATM   31  O2  UNL     1      21.573 -15.863  21.353  1.00  0.00    -0.332 OA
ATOM     32  H2  UNL     1      22.428 -15.859  21.768  1.00  0.00     0.221 HD
ENDBRANCH  30  31
BRANCH  30  33
HETATM   33  N8  UNL     1      20.876 -14.571  23.144  1.00  0.00    -0.327 N
HETATM   34  C15 UNL     1      19.844 -14.770  24.075  1.00  0.00     0.067 C
HETATM   35  C16 UNL     1      20.079 -14.095  25.420  1.00  0.00     0.045 C
HETATM   36  C17 UNL     1      20.852 -12.829  25.353  1.00  0.00     0.005 C
HETATM   37  C18 UNL     1      22.315 -13.098  25.671  1.00  0.00     0.002 C
HETATM   38  C19 UNL     1      22.710 -14.260  24.780  1.00  0.00     0.020 C
HETATM   39  C20 UNL     1      22.209 -13.951  23.391  1.00  0.00     0.131 C
ENDBRANCH  30  33
ENDBRANCH  10  30
TORSDOF 10
ENDMDL