MODEL 4
REMARK VINA RESULT: -8.144839418      3.009      3.917
REMARK  5 active torsions:
REMARK  status: ('A' for Active; 'I' for Inactive)
REMARK    1  A    between atoms: C2_2  and  N1_3
REMARK    2  A    between atoms: C4_5  and  N2_6
REMARK       I    between atoms: N2_6  and  C5_8
REMARK    3  A    between atoms: C10_16  and  C11_17
REMARK    4  A    between atoms: C16_24  and  N4_25
REMARK       I    between atoms: N4_25  and  C17_27
REMARK    5  A    between atoms: C17_27  and  C18_29
ROOT
HETATM    1  N1  UNL     1      19.541 -13.894  21.693  1.00  0.00    -0.028 N
HETATM    2  C3  UNL     1      18.935 -13.494  22.959  1.00  0.00     0.277 C
HETATM    3  C4  UNL     1      20.707 -14.672  22.027  1.00  0.00     0.395 C
HETATM    4  N3  UNL     1      20.283 -15.778  22.820  1.00  0.00    -0.359 N
ATOM      5  H3  UNL     1      20.766 -16.027  23.682  1.00  0.00     0.162 HD
HETATM    6  C7  UNL     1      19.281 -16.442  22.412  1.00  0.00     0.066 C
HETATM    7  C8  UNL     1      18.557 -16.082  21.134  1.00  0.00     0.056 C
HETATM    8  C9  UNL     1      17.182 -16.634  21.282  1.00  0.00     0.032 C
HETATM    9  C10 UNL     1      16.298 -16.472  20.087  1.00  0.00     0.051 C
HETATM   10  C12 UNL     1      16.909 -15.671  18.977  1.00  0.00     0.027 C
HETATM   11  C13 UNL     1      16.627 -14.257  19.432  1.00  0.00     0.011 C
HETATM   12  C14 UNL     1      17.258 -13.977  20.800  1.00  0.00     0.041 C
HETATM   13  C15 UNL     1      18.631 -14.623  20.849  1.00  0.00     0.204 C
HETATM   14  C16 UNL     1      15.118 -14.379  19.695  1.00  0.00     0.089 C
HETATM   15  C24 UNL     1      15.058 -15.681  20.447  1.00  0.00     0.046 C
ENDROOT
BRANCH  14  16
HETATM   16  N4  UNL     1      14.627 -13.261  20.444  1.00  0.00    -0.356 N
HETATM   17  C17 UNL     1      13.296 -12.830  20.264  1.00  0.00     0.222 C
HETATM   18  O4  UNL     1      12.545 -13.442  19.436  1.00  0.00    -0.273 OA
ATOM     19  H4  UNL     1      15.237 -12.780  21.105  1.00  0.00     0.162 HD
BRANCH  17  20
HETATM   20  C18 UNL     1      12.704 -11.687  20.994  1.00  0.00     0.078 C
HETATM   21  C19 UNL     1      12.706 -12.049  22.464  1.00  0.00     0.014 C
HETATM   22  C20 UNL     1      11.988 -10.982  23.225  1.00  0.00     0.001 C
HETATM   23  C21 UNL     1      12.412  -9.596  22.866  1.00  0.00     0.000 C
HETATM   24  C22 UNL     1      13.570  -9.528  21.920  1.00  0.00     0.001 C
HETATM   25  C23 UNL     1      13.412 -10.392  20.711  1.00  0.00     0.014 C
ENDBRANCH  17  20
ENDBRANCH  14  16
BRANCH   9  26
HETATM   26  C11 UNL     1      15.859 -17.768  19.519  1.00  0.00     0.182 C
HETATM   27  O2  UNL     1      16.658 -18.566  18.978  1.00  0.00    -0.647 OA
HETATM   28  O3  UNL     1      14.519 -18.105  19.591  1.00  0.00    -0.647 OA
ENDBRANCH   9  26
BRANCH   1  29
HETATM   29  C2  UNL     1      19.994 -12.677  21.058  1.00  0.00     0.238 C
HETATM   30  C1  UNL     1      20.540 -12.843  19.693  1.00  0.00     0.035 C
ENDBRANCH   1  29
BRANCH   3  31
HETATM   31  N2  UNL     1      21.619 -13.842  22.784  1.00  0.00    -0.317 N
HETATM   32  C5  UNL     1      22.778 -14.392  23.366  1.00  0.00     0.216 C
HETATM   33  C6  UNL     1      23.697 -13.531  24.135  1.00  0.00     0.117 C
HETATM   34  O1  UNL     1      23.044 -15.607  23.239  1.00  0.00    -0.274 OA
ATOM     35  H2  UNL     1      21.420 -12.848  22.898  1.00  0.00     0.166 HD
ENDBRANCH   3  31
TORSDOF 5
ENDMDL