MODEL 4
REMARK VINA RESULT: -9.688707347      3.139      4.916
REMARK  6 active torsions:
REMARK  status: ('A' for Active; 'I' for Inactive)
REMARK    1  A    between atoms: C5_7  and  C6_8
REMARK    2  A    between atoms: C6_8  and  C7_9
REMARK    3  A    between atoms: C9_13  and  C10_14
REMARK    4  A    between atoms: C13_20  and  O1_21
REMARK    5  A    between atoms: O1_21  and  C14_22
REMARK    6  A    between atoms: C14_22  and  C15_23
ROOT
HETATM    1  C7  UNL     1      17.332 -13.144  19.780  1.00  0.00     0.086 A
HETATM    2  N2  UNL     1      17.446 -14.508  19.764  1.00  0.00    -0.339 N
ATOM      3  H2  UNL     1      18.198 -15.044  20.199  1.00  0.00     0.167 HD
HETATM    4  C8  UNL     1      16.433 -15.017  19.102  1.00  0.00     0.108 A
HETATM    5  C9  UNL     1      16.041 -16.222  18.793  1.00  0.00     0.065 C
HETATM    6  N4  UNL     1      15.663 -13.926  18.691  1.00  0.00    -0.321 N
ATOM      7  H4  UNL     1      14.800 -13.995  18.149  1.00  0.00     0.169 HD
HETATM    8  C13 UNL     1      16.205 -12.795  19.099  1.00  0.00     0.171 A
ENDROOT
BRANCH   8   9
HETATM    9  O1  UNL     1      15.677 -11.536  18.853  1.00  0.00    -0.327 OA
BRANCH   9  10
HETATM   10  C14 UNL     1      14.302 -11.316  18.734  1.00  0.00     0.254 C
BRANCH  10  11
HETATM   11  C15 UNL     1      13.745 -10.958  20.081  1.00  0.00     0.108 A
HETATM   12  N5  UNL     1      13.860  -9.780  20.714  1.00  0.00    -0.346 N
HETATM   13  C16 UNL     1      13.210  -9.866  21.910  1.00  0.00     0.036 A
ATOM     14  H5  UNL     1      14.351  -8.958  20.361  1.00  0.00     0.167 HD
HETATM   15  C17 UNL     1      12.694 -11.128  21.992  1.00  0.00     0.061 A
HETATM   16  C21 UNL     1      12.990  -8.913  23.021  1.00  0.00     0.086 C
HETATM   17  N6  UNL     1      13.031 -11.791  20.857  1.00  0.00    -0.340 N
HETATM   18  C19 UNL     1      11.930 -11.514  23.197  1.00  0.00     0.291 C
HETATM   19  C18 UNL     1      12.642 -13.162  20.610  1.00  0.00     0.157 C
HETATM   20  N7  UNL     1      11.105 -10.407  23.620  1.00  0.00    -0.070 N
HETATM   21  C20 UNL     1      11.841  -9.225  23.910  1.00  0.00     0.238 C
ATOM     22  H72 UNL     1      10.376 -10.219  22.933  1.00  0.00     0.277 HD
ATOM     23  H71 UNL     1      10.524 -10.675  24.415  1.00  0.00     0.277 HD
ENDBRANCH  10  11
ENDBRANCH   9  10
ENDBRANCH   8   9
BRANCH   1  24
HETATM   24  C6  UNL     1      18.168 -12.301  20.372  1.00  0.00     0.048 C
BRANCH  24  25
HETATM   25  C5  UNL     1      19.442 -12.736  20.952  1.00  0.00    -0.004 A
HETATM   26  C2  UNL     1      20.692 -12.644  20.399  1.00  0.00     0.016 A
HETATM   27  C1  UNL     1      21.044 -12.058  19.054  1.00  0.00     0.069 C
HETATM   28  N1  UNL     1      21.544 -13.171  21.292  1.00  0.00    -0.362 N
HETATM   29  C3  UNL     1      20.925 -13.597  22.384  1.00  0.00     0.016 A
ATOM     30  H1  UNL     1      22.552 -13.237  21.148  1.00  0.00     0.165 HD
HETATM   31  C4  UNL     1      19.565 -13.336  22.205  1.00  0.00    -0.023 A
HETATM   32  C25 UNL     1      21.330 -14.242  23.697  1.00  0.00     0.057 C
HETATM   33  C22 UNL     1      18.538 -13.664  23.182  1.00  0.00     0.041 C
HETATM   34  C23 UNL     1      19.034 -13.886  24.559  1.00  0.00     0.005 C
HETATM   35  C24 UNL     1      20.475 -13.522  24.730  1.00  0.00     0.006 C
ENDBRANCH  24  25
ENDBRANCH   1  24
BRANCH   5  36
HETATM   36  C10 UNL     1      16.523 -17.507  19.029  1.00  0.00     0.088 C
HETATM   37  N3  UNL     1      17.124 -18.216  19.859  1.00  0.00    -0.398 N
HETATM   38  C11 UNL     1      17.645 -17.881  21.145  1.00  0.00     0.148 C
HETATM   39  C12 UNL     1      17.340 -19.665  19.443  1.00  0.00     0.148 C
ENDBRANCH   5  36
TORSDOF 6
ENDMDL