MODEL 3
REMARK VINA RESULT: -8.605342669      1.605      1.870
REMARK  4 active torsions:
REMARK  status: ('A' for Active; 'I' for Inactive)
REMARK    1  A    between atoms: C1_2  and  C2_4
REMARK       I    between atoms: N2_8  and  C6_9
REMARK    2  A    between atoms: C6_9  and  C7_11
REMARK    3  A    between atoms: C7_11  and  C8_12
REMARK       I    between atoms: C8_12  and  N3_14
REMARK       I    between atoms: C9_16  and  N5_18
REMARK       I    between atoms: C10_20  and  N6_21
REMARK       I    between atoms: C10_20  and  N7_27
REMARK    4  A    between atoms: C19_31  and  C20_32
ROOT
HETATM    1  C8  UNL     1      19.950 -13.520  21.848  1.00  0.00     0.232 C
HETATM    2  O3  UNL     1      20.390 -14.008  20.789  1.00  0.00    -0.273 OA
HETATM    3  N3  UNL     1      18.711 -12.822  21.796  1.00  0.00    -0.300 N
ATOM      4  H3  UNL     1      18.692 -11.877  21.414  1.00  0.00     0.171 HD
HETATM    5  C9  UNL     1      17.612 -13.347  22.217  1.00  0.00     0.209 C
HETATM    6  N4  UNL     1      17.670 -14.666  22.745  1.00  0.00    -0.063 NA
HETATM    7  N5  UNL     1      16.378 -12.683  22.182  1.00  0.00    -0.163 N
ATOM      8  H5  UNL     1      16.176 -12.065  22.969  1.00  0.00     0.187 HD
HETATM    9  C10 UNL     1      15.477 -12.760  21.282  1.00  0.00     0.681 C
HETATM   10  N6  UNL     1      14.292 -11.993  21.448  1.00  0.00    -0.218 N
HETATM   11  C11 UNL     1      13.189 -12.591  22.133  1.00  0.00     0.141 C
HETATM   12  C12 UNL     1      12.257 -11.603  22.770  1.00  0.00     0.020 C
HETATM   13  C13 UNL     1      12.168 -10.298  22.035  1.00  0.00     0.003 C
HETATM   14  C14 UNL     1      13.547  -9.726  21.872  1.00  0.00     0.020 C
HETATM   15  C15 UNL     1      14.293 -10.652  20.904  1.00  0.00     0.141 C
HETATM   16  N7  UNL     1      15.674 -13.597  20.153  1.00  0.00    -0.203 N
HETATM   17  C16 UNL     1      16.317 -13.193  18.919  1.00  0.00     0.142 C
HETATM   18  C17 UNL     1      17.159 -14.386  18.566  1.00  0.00     0.023 C
HETATM   19  C18 UNL     1      16.486 -15.556  19.247  1.00  0.00     0.038 C
HETATM   20  C19 UNL     1      15.294 -14.985  19.977  1.00  0.00     0.203 C
ENDROOT
BRANCH   1  21
HETATM   21  C7  UNL     1      20.620 -13.619  23.129  1.00  0.00     0.206 C
BRANCH  21  22
HETATM   22  C6  UNL     1      21.873 -14.479  23.112  1.00  0.00     0.229 C
HETATM   23  N2  UNL     1      21.823 -15.810  23.517  1.00  0.00    -0.339 N
HETATM   24  C2  UNL     1      22.707 -16.885  23.630  1.00  0.00     0.176 C
HETATM   25  C5  UNL     1      20.554 -16.417  24.017  1.00  0.00     0.127 C
HETATM   26  C3  UNL     1      22.593 -17.149  25.151  1.00  0.00     0.036 C
HETATM   27  C4  UNL     1      21.086 -17.033  25.315  1.00  0.00     0.022 C
HETATM   28  O2  UNL     1      22.879 -13.843  22.707  1.00  0.00    -0.273 OA
BRANCH  24  29
HETATM   29  C1  UNL     1      24.055 -16.894  23.172  1.00  0.00     0.254 C
HETATM   30  N1  UNL     1      25.118 -16.126  23.616  1.00  0.00    -0.060 NA
HETATM   31  O1  UNL     1      24.330 -17.715  22.220  1.00  0.00    -0.275 OA
ENDBRANCH  24  29
ENDBRANCH  21  22
ENDBRANCH   1  21
BRANCH  20  32
HETATM   32  C20 UNL     1      14.046 -15.138  19.217  1.00  0.00     0.197 C
HETATM   33  O4  UNL     1      13.935 -16.077  18.417  1.00  0.00    -0.646 OA
HETATM   34  O5  UNL     1      13.015 -14.238  19.401  1.00  0.00    -0.646 OA
ENDBRANCH  20  32
TORSDOF 4
ENDMDL