MODEL 2
REMARK VINA RESULT: -8.326223288      0.856      1.158
REMARK  6 active torsions:
REMARK  status: ('A' for Active; 'I' for Inactive)
REMARK    1  A    between atoms: N1_1  and  C1_4
REMARK    2  A    between atoms: C2_7  and  N3_8
REMARK    3  A    between atoms: N4_10  and  N5_12
REMARK    4  A    between atoms: N5_12  and  C3_14
REMARK    5  A    between atoms: C7_24  and  N8_25
REMARK    6  A    between atoms: C8_28  and  N9_29
ROOT
HETATM    1  C1  UNL     1      18.141  38.463  -6.668  1.00  0.00     0.679 A
HETATM    2  N2  UNL     1      17.095  37.601  -6.628  1.00  0.00    -0.173 N
ATOM      3  H2  UNL     1      16.432  37.657  -5.856  1.00  0.00     0.186 HD
HETATM    4  C2  UNL     1      16.914  36.679  -7.580  1.00  0.00     0.173 A
HETATM    5  C7  UNL     1      17.813  36.617  -8.609  1.00  0.00     0.192 A
HETATM    6  C8  UNL     1      18.905  37.487  -8.687  1.00  0.00     0.152 A
HETATM    7  N10 UNL     1      19.021  38.387  -7.694  1.00  0.00    -0.175 N
ATOM      8  H10 UNL     1      19.805  39.039  -7.715  1.00  0.00     0.186 HD
ENDROOT
BRANCH   4   9
HETATM    9  N3  UNL     1      15.831  35.786  -7.534  1.00  0.00    -0.269 N
HETATM   10  N4  UNL     1      15.037  35.590  -8.503  1.00  0.00    -0.244 N
ATOM     11  H4  UNL     1      15.175  36.102  -9.374  1.00  0.00     0.208 HD
ATOM     12  H3  UNL     1      15.675  35.264  -6.672  1.00  0.00     0.190 HD
BRANCH  10  13
HETATM   13  N5  UNL     1      13.974  34.685  -8.398  1.00  0.00    -0.290 N
ATOM     14  H5  UNL     1      13.031  35.062  -8.312  1.00  0.00     0.184 HD
BRANCH  13  15
HETATM   15  C3  UNL     1      14.131  33.257  -8.404  1.00  0.00     0.325 C
HETATM   16  C4  UNL     1      12.813  32.580  -8.755  1.00  0.00     0.287 C
HETATM   17  N6  UNL     1      12.958  31.158  -8.731  1.00  0.00    -0.070 N
HETATM   18  C5  UNL     1      14.320  30.705  -8.797  1.00  0.00     0.260 C
ATOM     19  H62 UNL     1      12.490  30.765  -7.914  1.00  0.00     0.277 HD
ATOM     20  H61 UNL     1      12.402  30.730  -9.472  1.00  0.00     0.277 HD
HETATM   21  C6  UNL     1      15.010  31.556  -9.868  1.00  0.00     0.262 C
HETATM   22  N7  UNL     1      15.181  32.879  -9.329  1.00  0.00    -0.050 N
ATOM     23  H72 UNL     1      15.272  33.567 -10.077  1.00  0.00     0.279 HD
ATOM     24  H71 UNL     1      16.099  32.979  -8.897  1.00  0.00     0.279 HD
ENDBRANCH  13  15
ENDBRANCH  10  13
ENDBRANCH   4   9
BRANCH   5  25
HETATM   25  N8  UNL     1      17.650  35.663  -9.619  1.00  0.00    -0.108 N
HETATM   26  O1  UNL     1      17.440  36.026 -10.783  1.00  0.00    -0.531 OA
HETATM   27  O2  UNL     1      17.716  34.326  -9.354  1.00  0.00    -0.531 OA
ENDBRANCH   5  25
BRANCH   1  28
HETATM   28  N1  UNL     1      18.315  39.351  -5.750  1.00  0.00    -0.234 N
ATOM     29  H12 UNL     1      19.096  39.255  -5.103  1.00  0.00     0.174 HD
ATOM     30  H11 UNL     1      17.686  40.148  -5.657  1.00  0.00     0.174 HD
ENDBRANCH   1  28
BRANCH   6  31
HETATM   31  N9  UNL     1      19.757  37.435  -9.655  1.00  0.00    -0.383 N
ATOM     32  H92 UNL     1      20.212  36.562  -9.919  1.00  0.00     0.157 HD
ATOM     33  H91 UNL     1      20.014  38.260 -10.197  1.00  0.00     0.157 HD
ENDBRANCH   6  31
TORSDOF 6
ENDMDL