MODEL 4
REMARK VINA RESULT: -7.586248574      1.418      4.632
REMARK  8 active torsions:
REMARK  status: ('A' for Active; 'I' for Inactive)
REMARK    1  A    between atoms: O1_3  and  N2_4
REMARK    2  A    between atoms: N2_4  and  C2_6
REMARK    3  A    between atoms: C2_6  and  O2_7
REMARK    4  A    between atoms: C2_6  and  O3_9
REMARK    5  A    between atoms: O3_9  and  C3_10
REMARK    6  A    between atoms: C4_11  and  N3_12
REMARK    7  A    between atoms: C8_18  and  N5_19
REMARK    8  A    between atoms: C9_24  and  N7_25
ROOT
HETATM    1  N1  UNL     1      15.821  30.189  -6.295  1.00  0.00    -0.162 NA
HETATM    2  C1  UNL     1      15.455  30.098  -7.383  1.00  0.00     0.252 C
HETATM    3  O1  UNL     1      15.003  29.992  -8.652  1.00  0.00    -0.160 OA
ENDROOT
BRANCH   3   4
HETATM    4  N2  UNL     1      15.696  30.289  -9.775  1.00  0.00    -0.232 N
ATOM      5  H2  UNL     1      15.621  29.731 -10.626  1.00  0.00     0.194 HD
BRANCH   4   6
HETATM    6  C2  UNL     1      16.547  31.450  -9.685  1.00  0.00     0.395 C
BRANCH   6   7
HETATM    7  O2  UNL     1      17.685  31.234 -10.495  1.00  0.00    -0.353 OA
ATOM      8  H2  UNL     1      17.796  31.986 -11.065  1.00  0.00     0.214 HD
ENDBRANCH   6   7
BRANCH   6   9
HETATM    9  O3  UNL     1      15.959  32.644 -10.128  1.00  0.00    -0.295 OA
BRANCH   9  10
HETATM   10  C3  UNL     1      15.884  33.813  -9.381  1.00  0.00     0.147 A
HETATM   11  C4  UNL     1      14.903  34.217  -8.543  1.00  0.00     0.140 A
HETATM   12  N4  UNL     1      15.300  35.436  -8.054  1.00  0.00    -0.335 N
HETATM   13  C7  UNL     1      16.488  35.789  -8.567  1.00  0.00     0.109 A
ATOM     14  H4  UNL     1      14.764  35.997  -7.392  1.00  0.00     0.168 HD
HETATM   15  C8  UNL     1      17.292  36.902  -8.389  1.00  0.00     0.144 A
HETATM   16  C10 UNL     1      16.894  34.790  -9.411  1.00  0.00     0.117 A
HETATM   17  N6  UNL     1      18.446  36.986  -9.040  1.00  0.00    -0.175 N
HETATM   18  C9  UNL     1      18.850  36.003  -9.874  1.00  0.00     0.678 A
ATOM     19  H6  UNL     1      19.037  37.805  -8.907  1.00  0.00     0.186 HD
HETATM   20  N8  UNL     1      18.064  34.914 -10.048  1.00  0.00    -0.187 N
ATOM     21  H8  UNL     1      18.370  34.173 -10.678  1.00  0.00     0.184 HD
BRANCH  11  22
HETATM   22  N3  UNL     1      13.693  33.573  -8.186  1.00  0.00    -0.362 N
HETATM   23  C5  UNL     1      12.592  33.266  -7.209  1.00  0.00     0.144 A
HETATM   24  C6  UNL     1      12.594  32.665  -8.546  1.00  0.00     0.144 A
ENDBRANCH  11  22
BRANCH  15  25
HETATM   25  N5  UNL     1      16.889  37.836  -7.584  1.00  0.00    -0.383 N
ATOM     26  H52 UNL     1      16.200  37.658  -6.854  1.00  0.00     0.157 HD
ATOM     27  H51 UNL     1      17.277  38.774  -7.692  1.00  0.00     0.157 HD
ENDBRANCH  15  25
BRANCH  18  28
HETATM   28  N7  UNL     1      19.973  36.086 -10.507  1.00  0.00    -0.234 N
ATOM     29  H72 UNL     1      20.347  37.004 -10.749  1.00  0.00     0.174 HD
ATOM     30  H71 UNL     1      20.493  35.249 -10.769  1.00  0.00     0.174 HD
ENDBRANCH  18  28
ENDBRANCH   9  10
ENDBRANCH   6   9
ENDBRANCH   4   6
ENDBRANCH   3   4
TORSDOF 8
ENDMDL