MODEL 1
REMARK VINA RESULT: -7.751843670      0.000      0.000
REMARK  8 active torsions:
REMARK  status: ('A' for Active; 'I' for Inactive)
REMARK    1  A    between atoms: C2_2  and  N1_3
REMARK    2  A    between atoms: C2_2  and  N2_6
REMARK    3  A    between atoms: N2_6  and  N3_8
REMARK    4  A    between atoms: N3_8  and  C3_10
REMARK    5  A    between atoms: C3_10  and  C10_28
REMARK    6  A    between atoms: C4_11  and  N4_12
REMARK    7  A    between atoms: C4_11  and  C5_15
REMARK    8  A    between atoms: C7_20  and  N7_21
ROOT
HETATM    1  C3  UNL     1      15.066  32.877  -8.184  1.00  0.00     0.142 C
HETATM    2  C4  UNL     1      15.210  34.289  -8.214  1.00  0.00     0.088 C
ENDROOT
BRANCH   2   3
HETATM    3  N4  UNL     1      13.997  34.933  -8.303  1.00  0.00    -0.395 N
ATOM      4  H42 UNL     1      13.391  34.610  -7.549  1.00  0.00     0.156 HD
ATOM      5  H41 UNL     1      13.964  35.583  -9.088  1.00  0.00     0.156 HD
ENDBRANCH   2   3
BRANCH   2   6
HETATM    6  C5  UNL     1      16.254  35.259  -8.181  1.00  0.00     0.085 A
HETATM    7  N5  UNL     1      16.370  35.965  -6.966  1.00  0.00    -0.338 N
HETATM    8  C6  UNL     1      17.278  36.895  -6.764  1.00  0.00     0.161 A
ATOM      9  H5  UNL     1      15.722  35.744  -6.210  1.00  0.00     0.167 HD
HETATM   10  N6  UNL     1      17.327  37.560  -5.505  1.00  0.00    -0.079 NA
HETATM   11  C7  UNL     1      18.185  37.248  -7.731  1.00  0.00     0.141 A
HETATM   12  N8  UNL     1      18.098  36.597  -8.888  1.00  0.00    -0.342 N
HETATM   13  C8  UNL     1      17.144  35.614  -9.112  1.00  0.00     0.036 A
ATOM     14  H8  UNL     1      18.753  36.828  -9.635  1.00  0.00     0.167 HD
HETATM   15  C9  UNL     1      17.217  35.017 -10.451  1.00  0.00     0.070 C
BRANCH  11  16
HETATM   16  N7  UNL     1      19.049  38.153  -7.500  1.00  0.00    -0.383 N
ATOM     17  H72 UNL     1      19.087  38.685  -6.630  1.00  0.00     0.157 HD
ATOM     18  H71 UNL     1      19.753  38.382  -8.201  1.00  0.00     0.157 HD
ENDBRANCH  11  16
ENDBRANCH   2   6
BRANCH   1  19
HETATM   19  N3  UNL     1      15.949  32.001  -8.109  1.00  0.00    -0.293 N
ATOM     20  H3  UNL     1      16.829  32.230  -8.571  1.00  0.00     0.187 HD
BRANCH  19  21
HETATM   21  N2  UNL     1      15.911  30.790  -7.506  1.00  0.00    -0.289 N
ATOM     22  H2  UNL     1      16.157  30.736  -6.518  1.00  0.00     0.188 HD
BRANCH  21  23
HETATM   23  C2  UNL     1      15.545  29.584  -8.180  1.00  0.00     0.085 C
HETATM   24  C1  UNL     1      15.252  28.334  -7.440  1.00  0.00     0.090 C
BRANCH  23  25
HETATM   25  N1  UNL     1      15.460  29.551  -9.466  1.00  0.00    -0.388 N
ATOM     26  H12 UNL     1      14.659  29.114  -9.922  1.00  0.00     0.157 HD
ATOM     27  H11 UNL     1      16.219  29.974 -10.001  1.00  0.00     0.157 HD
ENDBRANCH  23  25
ENDBRANCH  21  23
ENDBRANCH  19  21
ENDBRANCH   1  19
BRANCH   1  28
HETATM   28  C10 UNL     1      13.679  32.335  -8.250  1.00  0.00     0.285 C
HETATM   29  N9  UNL     1      12.825  32.338  -7.162  1.00  0.00    -0.056 NA
HETATM   30  O1  UNL     1      13.271  31.862  -9.321  1.00  0.00    -0.269 OA
ENDBRANCH   1  28
TORSDOF 8
ENDMDL