MODEL 1
REMARK VINA RESULT: -8.083247652      0.000      0.000
REMARK  8 active torsions:
REMARK  status: ('A' for Active; 'I' for Inactive)
REMARK    1  A    between atoms: C5_5  and  C6_6
REMARK    2  A    between atoms: C6_6  and  N1_7
REMARK       I    between atoms: N1_7  and  C7_9
REMARK    3  A    between atoms: C7_9  and  S1_11
REMARK    4  A    between atoms: S1_11  and  N2_12
REMARK    5  A    between atoms: N2_12  and  N3_13
REMARK    6  A    between atoms: N2_12  and  C8_16
REMARK    7  A    between atoms: C8_16  and  O2_17
REMARK    8  A    between atoms: C8_16  and  N4_19
REMARK       I    between atoms: N4_19  and  C9_21
ROOT
HETATM    1  S1  UNL     1      17.665  35.378  -9.747  1.00  0.00     0.070 SA
ENDROOT
BRANCH   1   2
HETATM    2  C7  UNL     1      16.167  34.649  -9.130  1.00  0.00     0.301 C
HETATM    3  N1  UNL     1      15.727  33.442  -9.708  1.00  0.00    -0.348 N
ATOM      4  H1  UNL     1      16.258  33.002 -10.459  1.00  0.00     0.163 HD
HETATM    5  O1  UNL     1      15.483  35.158  -8.208  1.00  0.00    -0.259 OA
BRANCH   3   6
HETATM    6  C6  UNL     1      14.507  32.837  -9.216  1.00  0.00     0.156 C
BRANCH   6   7
HETATM    7  C5  UNL     1      14.649  31.356  -9.133  1.00  0.00     0.206 C
HETATM    8  C4  UNL     1      16.018  30.904  -8.731  1.00  0.00     0.072 C
HETATM    9  C2  UNL     1      15.298  30.050  -7.736  1.00  0.00     0.121 C
HETATM   10  C1  UNL     1      15.755  30.209  -6.302  1.00  0.00     0.046 C
HETATM   11  C3  UNL     1      15.284  28.600  -8.121  1.00  0.00     0.046 C
HETATM   12  N7  UNL     1      14.079  30.776  -7.950  1.00  0.00    -0.061 N
ATOM     13  H72 UNL     1      13.188  30.281  -7.998  1.00  0.00     0.278 HD
ATOM     14  H71 UNL     1      13.701  31.374  -7.215  1.00  0.00     0.278 HD
ENDBRANCH   6   7
ENDBRANCH   3   6
ENDBRANCH   1   2
BRANCH   1  15
HETATM   15  N2  UNL     1      18.190  34.781 -11.264  1.00  0.00    -0.215 N
BRANCH  15  16
HETATM   16  N3  UNL     1      19.444  34.209 -11.292  1.00  0.00    -0.333 N
ATOM     17  H32 UNL     1      19.446  33.193 -11.202  1.00  0.00     0.177 HD
ATOM     18  H31 UNL     1      20.104  34.604 -11.961  1.00  0.00     0.177 HD
ENDBRANCH  15  16
BRANCH  15  19
HETATM   19  C8  UNL     1      17.884  35.590 -12.403  1.00  0.00     0.358 C
BRANCH  19  20
HETATM   20  O2  UNL     1      16.558  35.406 -12.763  1.00  0.00    -0.358 OA
ATOM     21  H2  UNL     1      16.510  35.107 -13.664  1.00  0.00     0.214 HD
ENDBRANCH  19  20
BRANCH  19  22
HETATM   22  N4  UNL     1      18.814  35.376 -13.464  1.00  0.00    -0.320 N
HETATM   23  C9  UNL     1      18.373  35.273 -14.810  1.00  0.00     0.185 C
HETATM   24  N5  UNL     1      17.809  36.299 -15.344  1.00  0.00    -0.374 N
HETATM   25  N6  UNL     1      18.553  34.071 -15.533  1.00  0.00    -0.064 NA
ATOM     26  H52 UNL     1      17.680  37.166 -14.823  1.00  0.00     0.158 HD
ATOM     27  H51 UNL     1      17.493  36.225 -16.311  1.00  0.00     0.158 HD
ATOM     28  H4  UNL     1      19.809  35.297 -13.253  1.00  0.00     0.166 HD
ENDBRANCH  19  22
ENDBRANCH  15  19
ENDBRANCH   1  15
TORSDOF 8
ENDMDL