MODEL 3
REMARK VINA RESULT: -6.986479124      2.118      7.339
REMARK  7 active torsions:
REMARK  status: ('A' for Active; 'I' for Inactive)
REMARK    1  A    between atoms: C1_4  and  N2_5
REMARK    2  A    between atoms: C1_4  and  C7_16
REMARK    3  A    between atoms: N2_5  and  C2_7
REMARK    4  A    between atoms: C2_7  and  C3_8
REMARK    5  A    between atoms: C3_8  and  C4_9
REMARK    6  A    between atoms: C8_20  and  N5_21
REMARK    7  A    between atoms: C9_28  and  N7_29
ROOT
HETATM    1  C7  UNL     1      16.221  33.115  -8.875  1.00  0.00     0.321 C
HETATM    2  N4  UNL     1      15.811  32.932  -7.479  1.00  0.00    -0.001 N
ATOM      3  H41 UNL     1      15.059  33.578  -7.240  1.00  0.00     0.283 HD
ATOM      4  H42 UNL     1      16.536  33.268  -6.847  1.00  0.00     0.283 HD
HETATM    5  C8  UNL     1      15.445  31.596  -7.152  1.00  0.00     0.582 C
HETATM    6  N6  UNL     1      14.131  31.199  -7.590  1.00  0.00     0.017 N
ATOM      7  H61 UNL     1      13.511  31.063  -6.792  1.00  0.00     0.285 HD
ATOM      8  H62 UNL     1      14.147  30.247  -7.958  1.00  0.00     0.285 HD
HETATM    9  C9  UNL     1      13.543  32.097  -8.540  1.00  0.00     0.449 C
HETATM   10  S2  UNL     1      14.825  32.376  -9.823  1.00  0.00    -0.068 SA
ENDROOT
BRANCH   1  11
HETATM   11  C1  UNL     1      16.229  34.546  -9.169  1.00  0.00     0.112 C
HETATM   12  N1  UNL     1      15.384  35.342  -8.548  1.00  0.00    -0.387 N
ATOM     13  H12 UNL     1      15.390  36.341  -8.752  1.00  0.00     0.157 HD
ATOM     14  H11 UNL     1      14.773  34.865  -7.885  1.00  0.00     0.157 HD
BRANCH  11  15
HETATM   15  N2  UNL     1      17.080  35.211 -10.091  1.00  0.00    -0.378 N
ATOM     16  H2  UNL     1      16.844  35.290 -11.080  1.00  0.00     0.160 HD
BRANCH  15  17
HETATM   17  C2  UNL     1      18.298  35.767  -9.550  1.00  0.00     0.123 C
BRANCH  17  18
HETATM   18  C3  UNL     1      18.114  37.200  -9.095  1.00  0.00     0.063 C
BRANCH  18  19
HETATM   19  C4  UNL     1      18.836  37.349  -7.786  1.00  0.00     0.248 C
HETATM   20  N3  UNL     1      19.265  38.686  -7.505  1.00  0.00    -0.061 N
HETATM   21  C5  UNL     1      18.123  39.417  -6.993  1.00  0.00     0.243 C
ATOM     22  H32 UNL     1      20.070  38.720  -6.880  1.00  0.00     0.278 HD
ATOM     23  H31 UNL     1      19.699  39.141  -8.309  1.00  0.00     0.278 HD
HETATM   24  C6  UNL     1      17.647  38.700  -5.736  1.00  0.00     0.103 C
HETATM   25  S1  UNL     1      17.774  36.974  -6.366  1.00  0.00    -0.135 SA
ENDBRANCH  18  19
ENDBRANCH  17  18
ENDBRANCH  15  17
ENDBRANCH  11  15
ENDBRANCH   1  11
BRANCH   5  26
HETATM   26  N5  UNL     1      16.406  30.606  -7.586  1.00  0.00    -0.025 N
ATOM     27  H53 UNL     1      16.247  30.353  -8.562  1.00  0.00     0.278 HD
ATOM     28  H52 UNL     1      17.336  31.017  -7.666  1.00  0.00     0.278 HD
ATOM     29  H51 UNL     1      16.431  29.773  -6.999  1.00  0.00     0.278 HD
ENDBRANCH   5  26
BRANCH   9  30
HETATM   30  N7  UNL     1      12.337  31.558  -9.075  1.00  0.00    -0.041 N
ATOM     31  H73 UNL     1      12.509  30.703  -9.605  1.00  0.00     0.277 HD
ATOM     32  H72 UNL     1      11.742  31.169  -8.343  1.00  0.00     0.277 HD
ATOM     33  H71 UNL     1      11.842  32.254  -9.633  1.00  0.00     0.277 HD
ENDBRANCH   9  30
TORSDOF 7
ENDMDL