MODEL 1
REMARK VINA RESULT: -7.961746929      0.000      0.000
REMARK  6 active torsions:
REMARK  status: ('A' for Active; 'I' for Inactive)
REMARK    1  A    between atoms: N1_2  and  C2_4
REMARK    2  A    between atoms: C3_7  and  N3_8
REMARK    3  A    between atoms: C4_13  and  N5_14
REMARK    4  A    between atoms: C5_17  and  N6_18
REMARK    5  A    between atoms: N7_20  and  N8_22
REMARK       I    between atoms: N8_22  and  C7_24
REMARK       I    between atoms: C7_24  and  N10_28
REMARK    6  A    between atoms: N10_28  and  N11_30
ROOT
HETATM    1  C2  UNL     1      18.098  35.505  -9.862  1.00  0.00     0.148 A
HETATM    2  N2  UNL     1      18.832  36.637  -9.699  1.00  0.00    -0.175 N
ATOM      3  H2  UNL     1      19.650  36.786 -10.290  1.00  0.00     0.186 HD
HETATM    4  C3  UNL     1      18.512  37.565  -8.780  1.00  0.00     0.679 A
HETATM    5  N4  UNL     1      17.433  37.395  -7.978  1.00  0.00    -0.175 N
ATOM      6  H4  UNL     1      17.198  38.105  -7.283  1.00  0.00     0.186 HD
HETATM    7  C4  UNL     1      16.671  36.295  -8.097  1.00  0.00     0.146 A
HETATM    8  C5  UNL     1      17.000  35.334  -9.046  1.00  0.00     0.138 A
ENDROOT
BRANCH   8   9
HETATM    9  N6  UNL     1      16.237  34.158  -9.217  1.00  0.00    -0.279 N
HETATM   10  N7  UNL     1      16.231  33.170  -8.450  1.00  0.00    -0.226 N
ATOM     11  H7  UNL     1      16.810  33.159  -7.610  1.00  0.00     0.209 HD
ATOM     12  H6  UNL     1      15.636  34.109 -10.040  1.00  0.00     0.189 HD
BRANCH  10  13
HETATM   13  N8  UNL     1      15.419  32.089  -8.768  1.00  0.00    -0.113 N
HETATM   14  C6  UNL     1      13.998  32.228  -8.552  1.00  0.00     0.199 C
HETATM   15  C7  UNL     1      15.901  30.869  -9.285  1.00  0.00     0.712 C
HETATM   16  N9  UNL     1      16.874  30.890 -10.118  1.00  0.00    -0.232 N
HETATM   17  N10 UNL     1      15.364  29.598  -8.934  1.00  0.00    -0.071 N
ATOM     18  H92 UNL     1      17.259  31.800 -10.370  1.00  0.00     0.174 HD
ATOM     19  H91 UNL     1      17.223  30.007 -10.492  1.00  0.00     0.174 HD
ATOM     20  H10 UNL     1      14.917  29.020  -9.645  1.00  0.00     0.212 HD
BRANCH  17  21
HETATM   21  N11 UNL     1      15.449  29.142  -7.617  1.00  0.00    -0.024 N
HETATM   22  O1  UNL     1      14.625  28.336  -7.147  1.00  0.00    -0.516 OA
HETATM   23  O2  UNL     1      16.479  29.611  -6.842  1.00  0.00    -0.516 OA
ENDBRANCH  17  21
ENDBRANCH  10  13
ENDBRANCH   8   9
BRANCH   1  24
HETATM   24  N1  UNL     1      18.475  34.555 -10.847  1.00  0.00    -0.378 N
HETATM   25  C1  UNL     1      19.260  34.908 -12.002  1.00  0.00     0.147 C
ATOM     26  H1  UNL     1      18.179  33.586 -10.732  1.00  0.00     0.160 HD
ENDBRANCH   1  24
BRANCH   7  27
HETATM   27  N5  UNL     1      15.627  36.086  -7.354  1.00  0.00    -0.383 N
ATOM     28  H52 UNL     1      15.168  36.894  -6.935  1.00  0.00     0.157 HD
ATOM     29  H51 UNL     1      15.256  35.152  -7.180  1.00  0.00     0.157 HD
ENDBRANCH   7  27
BRANCH   4  30
HETATM   30  N3  UNL     1      19.231  38.645  -8.640  1.00  0.00    -0.234 N
ATOM     31  H32 UNL     1      20.213  38.619  -8.916  1.00  0.00     0.174 HD
ATOM     32  H31 UNL     1      18.823  39.501  -8.263  1.00  0.00     0.174 HD
ENDBRANCH   4  30
TORSDOF 6
ENDMDL