MODEL 4
REMARK VINA RESULT: -8.445057970      2.247      6.429
REMARK  8 active torsions:
REMARK  status: ('A' for Active; 'I' for Inactive)
REMARK    1  A    between atoms: C3_4  and  N2_5
REMARK    2  A    between atoms: C4_7  and  C5_8
REMARK    3  A    between atoms: C5_8  and  C7_11
REMARK    4  A    between atoms: C7_11  and  C9_14
REMARK    5  A    between atoms: C9_14  and  N5_15
REMARK    6  A    between atoms: C9_14  and  O1_19
REMARK    7  A    between atoms: C10_23  and  N7_24
REMARK    8  A    between atoms: C11_29  and  N9_30
ROOT
HETATM    1  N1  UNL     1      16.690  37.937  -6.808  1.00  0.00    -0.191 NA
HETATM    2  C1  UNL     1      17.123  37.300  -7.682  1.00  0.00     0.107 C
HETATM    3  C2  UNL     1      17.673  36.525  -8.766  1.00  0.00     0.133 A
HETATM    4  C3  UNL     1      17.127  35.285  -9.112  1.00  0.00     0.145 A
HETATM    5  N6  UNL     1      17.674  34.606 -10.127  1.00  0.00    -0.175 N
ATOM      6  H6  UNL     1      17.268  33.703 -10.369  1.00  0.00     0.186 HD
HETATM    7  C10 UNL     1      18.725  35.035 -10.847  1.00  0.00     0.679 A
HETATM    8  N8  UNL     1      19.262  36.226 -10.526  1.00  0.00    -0.176 N
ATOM      9  H8  UNL     1      20.060  36.582 -11.051  1.00  0.00     0.186 HD
HETATM   10  C11 UNL     1      18.747  36.948  -9.513  1.00  0.00     0.139 A
ENDROOT
BRANCH   4  11
HETATM   11  N2  UNL     1      16.014  34.803  -8.368  1.00  0.00    -0.353 N
HETATM   12  C4  UNL     1      15.974  33.639  -7.832  1.00  0.00     0.083 C
ATOM     13  H2  UNL     1      15.206  35.415  -8.256  1.00  0.00     0.166 HD
BRANCH  12  14
HETATM   14  C5  UNL     1      14.774  33.227  -7.076  1.00  0.00     0.153 C
HETATM   15  C6  UNL     1      13.787  34.323  -7.153  1.00  0.00     0.070 C
HETATM   16  N3  UNL     1      13.020  35.187  -7.211  1.00  0.00    -0.197 NA
BRANCH  14  17
HETATM   17  C7  UNL     1      14.107  32.012  -7.677  1.00  0.00     0.171 C
HETATM   18  C8  UNL     1      15.169  30.998  -7.860  1.00  0.00     0.070 C
HETATM   19  N4  UNL     1      16.008  30.210  -7.986  1.00  0.00    -0.197 NA
BRANCH  17  20
HETATM   20  C9  UNL     1      13.526  32.280  -9.037  1.00  0.00     0.335 C
BRANCH  20  21
HETATM   21  N5  UNL     1      12.197  31.697  -9.066  1.00  0.00    -0.052 N
ATOM     22  H53 UNL     1      11.650  31.995  -9.873  1.00  0.00     0.277 HD
ATOM     23  H52 UNL     1      12.205  30.699  -9.272  1.00  0.00     0.277 HD
ATOM     24  H51 UNL     1      11.747  31.916  -8.177  1.00  0.00     0.277 HD
ENDBRANCH  20  21
BRANCH  20  25
HETATM   25  O1  UNL     1      14.322  31.676 -10.005  1.00  0.00    -0.369 OA
ATOM     26  H1  UNL     1      13.776  31.393 -10.728  1.00  0.00     0.212 HD
ENDBRANCH  20  25
ENDBRANCH  17  20
ENDBRANCH  14  17
ENDBRANCH  12  14
ENDBRANCH   4  11
BRANCH  10  27
HETATM   27  N9  UNL     1      19.265  38.109  -9.195  1.00  0.00    -0.384 N
ATOM     28  H92 UNL     1      18.734  38.776  -8.636  1.00  0.00     0.157 HD
ATOM     29  H91 UNL     1      20.208  38.299  -9.535  1.00  0.00     0.157 HD
ENDBRANCH  10  27
BRANCH   7  30
HETATM   30  N7  UNL     1      19.221  34.339 -11.822  1.00  0.00    -0.234 N
ATOM     31  H72 UNL     1      18.806  34.394 -12.752  1.00  0.00     0.174 HD
ATOM     32  H71 UNL     1      20.026  33.726 -11.694  1.00  0.00     0.174 HD
ENDBRANCH   7  30
TORSDOF 8
ENDMDL