MODEL 1
REMARK VINA RESULT: -8.209335367      0.000      0.000
REMARK  9 active torsions:
REMARK  status: ('A' for Active; 'I' for Inactive)
REMARK    1  A    between atoms: C2_2  and  C4_4
REMARK    2  A    between atoms: C4_4  and  O2_6
REMARK    3  A    between atoms: O2_6  and  N1_7
REMARK    4  A    between atoms: N1_7  and  C5_9
REMARK    5  A    between atoms: C5_9  and  C6_15
REMARK    6  A    between atoms: N2_10  and  N3_12
REMARK    7  A    between atoms: C7_16  and  N4_17
REMARK    8  A    between atoms: N4_17  and  O3_19
REMARK    9  A    between atoms: C9_23  and  N6_24
ROOT
HETATM    1  C6  UNL     1      16.745  35.346  -8.856  1.00  0.00     0.126 A
HETATM    2  C7  UNL     1      17.678  35.456  -9.853  1.00  0.00     0.160 A
HETATM    3  N5  UNL     1      18.486  36.533  -9.867  1.00  0.00    -0.174 N
ATOM      4  H5  UNL     1      19.184  36.624 -10.606  1.00  0.00     0.186 HD
HETATM    5  C9  UNL     1      18.395  37.487  -8.932  1.00  0.00     0.680 A
HETATM    6  N7  UNL     1      17.484  37.381  -7.956  1.00  0.00    -0.155 N
ATOM      7  H7  UNL     1      17.427  38.115  -7.250  1.00  0.00     0.187 HD
HETATM    8  C10 UNL     1      16.662  36.356  -7.881  1.00  0.00     0.277 A
HETATM    9  O4  UNL     1      15.785  36.201  -6.986  1.00  0.00    -0.266 OA
ENDROOT
BRANCH   1  10
HETATM   10  C5  UNL     1      15.810  34.223  -8.786  1.00  0.00     0.159 C
HETATM   11  N2  UNL     1      14.677  34.388  -9.384  1.00  0.00    -0.290 N
ATOM     12  H2  UNL     1      14.482  35.277  -9.844  1.00  0.00     0.188 HD
BRANCH  10  13
HETATM   13  N1  UNL     1      16.071  32.987  -8.150  1.00  0.00    -0.239 N
ATOM     14  H1  UNL     1      16.055  32.960  -7.131  1.00  0.00     0.196 HD
BRANCH  13  15
HETATM   15  O2  UNL     1      16.343  31.825  -8.820  1.00  0.00    -0.193 OA
BRANCH  15  16
HETATM   16  C4  UNL     1      15.531  30.710  -8.825  1.00  0.00     0.309 C
HETATM   17  O1  UNL     1      14.788  30.519  -9.808  1.00  0.00    -0.258 OA
BRANCH  16  18
HETATM   18  C2  UNL     1      15.515  29.752  -7.715  1.00  0.00     0.006 C
HETATM   19  C1  UNL     1      15.245  28.476  -7.924  1.00  0.00     0.025 C
HETATM   20  C3  UNL     1      15.802  30.191  -6.332  1.00  0.00     0.054 C
ENDBRANCH  16  18
ENDBRANCH  15  16
ENDBRANCH  13  15
ENDBRANCH  10  13
BRANCH  11  21
HETATM   21  N3  UNL     1      13.718  33.383  -9.414  1.00  0.00    -0.344 N
ATOM     22  H32 UNL     1      13.162  33.274 -10.262  1.00  0.00     0.176 HD
ATOM     23  H31 UNL     1      13.566  32.765  -8.617  1.00  0.00     0.176 HD
ENDBRANCH  11  21
ENDBRANCH   1  10
BRANCH   2  24
HETATM   24  N4  UNL     1      17.844  34.460 -10.860  1.00  0.00    -0.249 N
ATOM     25  H4  UNL     1      17.978  33.479 -10.613  1.00  0.00     0.196 HD
BRANCH  24  26
HETATM   26  O3  UNL     1      17.817  34.858 -12.165  1.00  0.00    -0.284 OA
HETATM   27  C8  UNL     1      19.057  34.808 -12.773  1.00  0.00     0.237 C
ENDBRANCH  24  26
ENDBRANCH   2  24
BRANCH   5  28
HETATM   28  N6  UNL     1      19.177  38.531  -8.943  1.00  0.00    -0.234 N
ATOM     29  H62 UNL     1      18.759  39.451  -9.081  1.00  0.00     0.174 HD
ATOM     30  H61 UNL     1      20.185  38.445  -8.819  1.00  0.00     0.174 HD
ENDBRANCH   5  28
TORSDOF 9
ENDMDL