MODEL 2
REMARK VINA RESULT: -6.793938637      1.387      1.798
REMARK  8 active torsions:
REMARK  status: ('A' for Active; 'I' for Inactive)
REMARK    1  A    between atoms: N1_1  and  C1_4
REMARK    2  A    between atoms: C3_9  and  N4_10
REMARK    3  A    between atoms: C4_13  and  O3_14
REMARK    4  A    between atoms: O3_14  and  C5_15
REMARK    5  A    between atoms: C9_19  and  N5_20
REMARK    6  A    between atoms: C10_24  and  C11_25
REMARK    7  A    between atoms: C11_25  and  N6_26
REMARK    8  A    between atoms: C11_25  and  N7_30
ROOT
HETATM    1  C1  UNL     1      18.556  36.934  -9.096  1.00  0.00     0.113 A
HETATM    2  N2  UNL     1      18.096  37.420  -7.951  1.00  0.00    -0.329 N
ATOM      3  H2  UNL     1      18.551  38.228  -7.527  1.00  0.00     0.168 HD
HETATM    4  C2  UNL     1      17.039  36.862  -7.346  1.00  0.00     0.154 A
HETATM    5  N3  UNL     1      16.576  37.416  -6.116  1.00  0.00    -0.080 NA
HETATM    6  C3  UNL     1      16.404  35.752  -7.916  1.00  0.00     0.177 A
HETATM    7  C4  UNL     1      16.855  35.206  -9.120  1.00  0.00     0.119 A
HETATM    8  C10 UNL     1      17.936  35.820  -9.685  1.00  0.00     0.078 A
ENDROOT
BRANCH   7   9
HETATM    9  O3  UNL     1      16.266  34.138  -9.703  1.00  0.00    -0.340 OA
BRANCH   9  10
HETATM   10  C5  UNL     1      15.461  33.136  -9.170  1.00  0.00     0.159 C
HETATM   11  C6  UNL     1      14.547  32.429 -10.116  1.00  0.00     0.035 C
HETATM   12  C7  UNL     1      14.586  30.947  -9.733  1.00  0.00     0.005 C
HETATM   13  C8  UNL     1      16.053  30.783  -9.431  1.00  0.00     0.035 C
HETATM   14  C9  UNL     1      16.378  32.034  -8.641  1.00  0.00     0.212 C
BRANCH  14  15
HETATM   15  N5  UNL     1      16.177  31.790  -7.225  1.00  0.00    -0.073 N
ATOM     16  H53 UNL     1      16.079  30.793  -7.033  1.00  0.00     0.274 HD
ATOM     17  H52 UNL     1      17.028  31.974  -6.694  1.00  0.00     0.274 HD
ATOM     18  H51 UNL     1      15.387  32.317  -6.852  1.00  0.00     0.274 HD
ENDBRANCH  14  15
ENDBRANCH   9  10
ENDBRANCH   7   9
BRANCH   6  19
HETATM   19  N4  UNL     1      15.316  35.226  -7.212  1.00  0.00    -0.109 N
HETATM   20  O1  UNL     1      15.505  34.364  -6.341  1.00  0.00    -0.532 OA
HETATM   21  O2  UNL     1      14.032  35.629  -7.458  1.00  0.00    -0.532 OA
ENDBRANCH   6  19
BRANCH   8  22
HETATM   22  C11 UNL     1      18.543  35.363 -10.941  1.00  0.00     0.417 C
BRANCH  22  23
HETATM   23  N6  UNL     1      17.682  35.628 -12.089  1.00  0.00    -0.046 N
ATOM     24  H63 UNL     1      18.008  35.133 -12.920  1.00  0.00     0.277 HD
ATOM     25  H62 UNL     1      16.772  35.179 -11.982  1.00  0.00     0.277 HD
ATOM     26  H61 UNL     1      17.583  36.627 -12.268  1.00  0.00     0.277 HD
ENDBRANCH  22  23
BRANCH  22  27
HETATM   27  N7  UNL     1      18.868  33.954 -10.953  1.00  0.00    -0.046 N
ATOM     28  H73 UNL     1      19.632  33.756 -10.307  1.00  0.00     0.277 HD
ATOM     29  H72 UNL     1      18.126  33.411 -10.510  1.00  0.00     0.277 HD
ATOM     30  H71 UNL     1      19.077  33.588 -11.882  1.00  0.00     0.277 HD
ENDBRANCH  22  27
ENDBRANCH   8  22
BRANCH   1  31
HETATM   31  N1  UNL     1      19.574  37.477  -9.670  1.00  0.00    -0.385 N
ATOM     32  H12 UNL     1      19.803  38.452  -9.477  1.00  0.00     0.157 HD
ATOM     33  H11 UNL     1      20.148  36.936 -10.317  1.00  0.00     0.157 HD
ENDBRANCH   1  31
TORSDOF 8
ENDMDL