MODEL 4
REMARK VINA RESULT: -9.303524018      1.219      1.543
REMARK  5 active torsions:
REMARK  status: ('A' for Active; 'I' for Inactive)
REMARK    1  A    between atoms: C2_2  and  C4_4
REMARK    2  A    between atoms: C5_6  and  C6_7
REMARK       I    between atoms: C6_7  and  N1_9
REMARK    3  A    between atoms: N1_9  and  C7_11
REMARK    4  A    between atoms: C7_11  and  C8_12
REMARK    5  A    between atoms: C8_12  and  N2_13
ROOT
HETATM    1  C4  UNL     1      21.024  12.908  32.156  1.00  0.00     0.159 C
HETATM    2  O1  UNL     1      20.421  13.637  31.084  1.00  0.00    -0.366 OA
HETATM    3  C5  UNL     1      20.960  14.915  31.091  1.00  0.00     0.214 C
HETATM    4  C13 UNL     1      22.475  14.716  31.168  1.00  0.00     0.047 C
HETATM    5  C14 UNL     1      22.852  13.356  30.606  1.00  0.00     0.004 C
HETATM    6  C15 UNL     1      24.304  13.207  30.284  1.00  0.00    -0.001 C
HETATM    7  C16 UNL     1      25.032  14.464  30.576  1.00  0.00     0.033 C
HETATM    8  C17 UNL     1      26.475  14.359  30.843  1.00  0.00    -0.023 C
HETATM    9  C18 UNL     1      27.121  13.232  30.856  1.00  0.00    -0.075 C
HETATM   10  C19 UNL     1      28.585  12.923  31.109  1.00  0.00     0.034 C
HETATM   11  C20 UNL     1      28.434  11.647  31.911  1.00  0.00     0.005 C
HETATM   12  C21 UNL     1      27.184  10.963  31.398  1.00  0.00     0.014 C
HETATM   13  C22 UNL     1      26.415  11.970  30.584  1.00  0.00    -0.017 C
HETATM   14  C23 UNL     1      26.630  11.626  29.104  1.00  0.00     0.020 C
HETATM   15  C24 UNL     1      24.957  11.971  30.838  1.00  0.00     0.003 C
HETATM   16  C25 UNL     1      24.650  11.698  32.259  1.00  0.00     0.007 C
HETATM   17  C26 UNL     1      23.313  12.233  32.721  1.00  0.00     0.013 C
HETATM   18  C27 UNL     1      22.325  12.338  31.614  1.00  0.00    -0.010 C
HETATM   19  C28 UNL     1      22.077  10.981  30.997  1.00  0.00     0.018 C
ENDROOT
BRANCH   3  20
HETATM   20  C6  UNL     1      20.532  15.713  29.943  1.00  0.00     0.246 C
HETATM   21  O2  UNL     1      21.185  15.581  28.868  1.00  0.00    -0.271 OA
HETATM   22  N1  UNL     1      19.437  16.614  29.969  1.00  0.00    -0.357 N
ATOM     23  H1  UNL     1      18.931  16.705  30.850  1.00  0.00     0.162 HD
BRANCH  22  24
HETATM   24  C7  UNL     1      18.975  17.409  28.868  1.00  0.00     0.142 C
BRANCH  24  25
HETATM   25  C8  UNL     1      17.824  16.776  28.122  1.00  0.00     0.136 C
BRANCH  25  26
HETATM   26  N2  UNL     1      17.308  17.710  27.175  1.00  0.00    -0.407 N
HETATM   27  C9  UNL     1      16.432  17.149  26.194  1.00  0.00     0.143 C
HETATM   28  C10 UNL     1      15.105  17.901  26.193  1.00  0.00     0.187 C
HETATM   29  O3  UNL     1      15.350  19.214  25.863  1.00  0.00    -0.388 OA
HETATM   30  C11 UNL     1      16.378  19.810  26.552  1.00  0.00     0.187 C
HETATM   31  C12 UNL     1      16.905  18.975  27.701  1.00  0.00     0.143 C
ENDBRANCH  25  26
ENDBRANCH  24  25
ENDBRANCH  22  24
ENDBRANCH   3  20
BRANCH   1  32
HETATM   32  C2  UNL     1      20.078  11.903  32.664  1.00  0.00    -0.064 C
HETATM   33  C1  UNL     1      18.896  11.783  32.059  1.00  0.00     0.016 C
HETATM   34  C3  UNL     1      20.355  11.019  33.816  1.00  0.00     0.045 C
ENDBRANCH   1  32
TORSDOF 5
ENDMDL