MODEL 5
REMARK VINA RESULT: -7.041505785      2.321      7.683
REMARK  6 active torsions:
REMARK  status: ('A' for Active; 'I' for Inactive)
REMARK    1  A    between atoms: C2_2  and  N1_4
REMARK    2  A    between atoms: N1_4  and  C5_6
REMARK    3  A    between atoms: C5_6  and  C6_7
REMARK       I    between atoms: N2_9  and  C8_10
REMARK    4  A    between atoms: C8_10  and  C9_12
REMARK    5  A    between atoms: C20_23  and  O2_24
REMARK    6  A    between atoms: C22_27  and  C24_29
ROOT
HETATM    1  C6  UNL     1      21.725  11.800  31.258  1.00  0.00     0.025 C
HETATM    2  C7  UNL     1      20.361  11.247  31.320  1.00  0.00     0.139 C
HETATM    3  N2  UNL     1      19.601  12.425  31.834  1.00  0.00    -0.350 N
HETATM    4  C8  UNL     1      18.197  12.635  31.710  1.00  0.00     0.224 C
HETATM    5  O1  UNL     1      17.726  13.698  32.184  1.00  0.00    -0.273 OA
HETATM    6  C15 UNL     1      20.498  13.338  32.512  1.00  0.00     0.140 C
HETATM    7  C16 UNL     1      21.716  12.465  32.641  1.00  0.00     0.001 C
HETATM    8  C17 UNL     1      21.402  11.662  33.824  1.00  0.00     0.022 C
HETATM    9  C18 UNL     1      22.987  13.129  32.822  1.00  0.00    -0.016 C
HETATM   10  C19 UNL     1      24.076  12.417  32.561  1.00  0.00     0.008 C
HETATM   11  C20 UNL     1      23.988  10.999  32.100  1.00  0.00     0.085 C
HETATM   12  C21 UNL     1      25.348  10.604  31.561  1.00  0.00     0.059 C
HETATM   13  C22 UNL     1      25.812  11.259  30.336  1.00  0.00     0.012 C
HETATM   14  C23 UNL     1      26.589  12.547  30.527  1.00  0.00     0.023 C
HETATM   15  C25 UNL     1      24.651  11.442  29.409  1.00  0.00     0.017 C
HETATM   16  C26 UNL     1      23.488  10.622  29.802  1.00  0.00     0.014 C
HETATM   17  C27 UNL     1      22.855  10.803  31.133  1.00  0.00     0.003 C
HETATM   18  C28 UNL     1      22.249   9.421  31.439  1.00  0.00     0.019 C
ENDROOT
BRANCH   4  19
HETATM   19  C9  UNL     1      17.252  11.698  31.069  1.00  0.00     0.078 C
HETATM   20  C10 UNL     1      16.168  11.201  31.998  1.00  0.00     0.014 C
HETATM   21  C11 UNL     1      14.837  11.885  31.750  1.00  0.00     0.001 C
HETATM   22  C12 UNL     1      14.296  11.613  30.363  1.00  0.00     0.000 C
HETATM   23  C13 UNL     1      15.416  11.666  29.339  1.00  0.00     0.001 C
HETATM   24  C14 UNL     1      16.598  12.406  29.903  1.00  0.00     0.014 C
ENDBRANCH   4  19
BRANCH   1  25
HETATM   25  C5  UNL     1      21.773  12.831  30.176  1.00  0.00     0.285 C
BRANCH  25  26
HETATM   26  N1  UNL     1      22.186  14.154  30.376  1.00  0.00     0.088 N
HETATM   27  C4  UNL     1      23.502  14.621  30.104  1.00  0.00     0.310 C
BRANCH  26  28
HETATM   28  C2  UNL     1      21.358  15.038  29.501  1.00  0.00     0.214 C
HETATM   29  C1  UNL     1      20.163  14.225  29.003  1.00  0.00     0.042 C
HETATM   30  C3  UNL     1      20.886  16.206  30.337  1.00  0.00     0.042 C
ENDBRANCH  26  28
ENDBRANCH  25  26
ENDBRANCH   1  25
BRANCH  11  31
HETATM   31  O2  UNL     1      23.940  10.081  33.185  1.00  0.00    -0.385 OA
ATOM     32  H2  UNL     1      24.203   9.205  32.929  1.00  0.00     0.211 HD
ENDBRANCH  11  31
BRANCH  13  33
HETATM   33  C24 UNL     1      26.796  10.318  29.670  1.00  0.00     0.240 C
HETATM   34  O3  UNL     1      27.019   9.214  30.118  1.00  0.00    -0.306 OA
ENDBRANCH  13  33
TORSDOF 6
ENDMDL