MODEL 1
REMARK VINA RESULT: -8.781685800      0.000      0.000
REMARK  10 active torsions:
REMARK  status: ('A' for Active; 'I' for Inactive)
REMARK    1  A    between atoms: C2_2  and  O1_5
REMARK    2  A    between atoms: O1_5  and  C5_6
REMARK    3  A    between atoms: C5_6  and  C6_8
REMARK    4  A    between atoms: C9_11  and  C10_12
REMARK    5  A    between atoms: C10_12  and  N1_13
REMARK    6  A    between atoms: N1_13  and  C11_14
REMARK    7  A    between atoms: N1_13  and  C21_26
REMARK    8  A    between atoms: C11_14  and  O3_15
REMARK    9  A    between atoms: C11_14  and  C12_17
REMARK   10  A    between atoms: C24_29  and  O4_30
ROOT
HETATM    1  N1  UNL     1      19.701  13.091  31.609  1.00  0.00    -0.360 N
ENDROOT
BRANCH   1   2
HETATM    2  C10 UNL     1      19.948  14.273  30.845  1.00  0.00     0.129 C
BRANCH   2   3
HETATM    3  C9  UNL     1      21.278  14.894  30.935  1.00  0.00     0.004 C
HETATM    4  C8  UNL     1      22.018  14.520  29.623  1.00  0.00     0.007 C
HETATM    5  C7  UNL     1      23.051  15.591  29.407  1.00  0.00     0.015 C
HETATM    6  C6  UNL     1      23.732  15.891  30.711  1.00  0.00     0.085 C
HETATM    7  C28 UNL     1      22.787  16.756  31.526  1.00  0.00     0.015 C
HETATM    8  C27 UNL     1      21.341  16.348  31.176  1.00  0.00     0.007 C
BRANCH   6   9
HETATM    9  C5  UNL     1      25.020  16.593  30.461  1.00  0.00     0.263 C
HETATM   10  O2  UNL     1      25.043  17.860  30.424  1.00  0.00    -0.265 OA
BRANCH   9  11
HETATM   11  O1  UNL     1      26.210  15.940  30.265  1.00  0.00    -0.311 OA
BRANCH  11  12
HETATM   12  C2  UNL     1      26.933  15.250  31.249  1.00  0.00     0.060 C
HETATM   13  C1  UNL     1      28.373  15.102  30.741  1.00  0.00     0.045 C
HETATM   14  C3  UNL     1      27.013  15.982  32.557  1.00  0.00     0.045 C
HETATM   15  C4  UNL     1      26.416  13.851  31.484  1.00  0.00     0.045 C
ENDBRANCH  11  12
ENDBRANCH   9  11
ENDBRANCH   6   9
ENDBRANCH   2   3
ENDBRANCH   1   2
BRANCH   1  16
HETATM   16  C11 UNL     1      20.585  12.521  32.518  1.00  0.00     0.122 C
BRANCH  16  17
HETATM   17  O3  UNL     1      20.524  13.108  33.720  1.00  0.00    -0.349 OA
ATOM     18  H3  UNL     1      20.203  12.518  34.393  1.00  0.00     0.219 HD
ENDBRANCH  16  17
BRANCH  16  19
HETATM   19  C12 UNL     1      21.574  11.458  32.531  1.00  0.00     0.026 C
HETATM   20  C13 UNL     1      21.497  10.432  31.460  1.00  0.00     0.022 C
HETATM   21  C14 UNL     1      22.694   9.499  31.480  1.00  0.00    -0.013 C
HETATM   22  C15 UNL     1      23.999  10.253  31.392  1.00  0.00     0.010 C
HETATM   23  C19 UNL     1      22.823   8.905  32.893  1.00  0.00     0.010 C
HETATM   24  C16 UNL     1      23.897  11.039  32.711  1.00  0.00    -0.009 C
HETATM   25  C17 UNL     1      22.987  12.183  32.397  1.00  0.00     0.023 C
HETATM   26  C18 UNL     1      23.156  10.162  33.670  1.00  0.00    -0.009 C
HETATM   27  C20 UNL     1      21.815  10.876  33.899  1.00  0.00     0.023 C
ENDBRANCH  16  19
ENDBRANCH   1  16
BRANCH   1  28
HETATM   28  C21 UNL     1      18.375  12.456  31.468  1.00  0.00     0.086 C
HETATM   29  C22 UNL     1      17.419  13.254  30.646  1.00  0.00     0.028 C
HETATM   30  C23 UNL     1      16.208  12.358  30.328  1.00  0.00     0.034 C
HETATM   31  C24 UNL     1      15.600  11.856  31.620  1.00  0.00     0.118 C
HETATM   32  C25 UNL     1      16.580  11.276  32.579  1.00  0.00     0.034 C
HETATM   33  C26 UNL     1      17.724  12.274  32.826  1.00  0.00     0.028 C
BRANCH  31  34
HETATM   34  O4  UNL     1      14.634  10.925  31.302  1.00  0.00    -0.396 OA
ATOM     35  H4  UNL     1      13.798  11.252  31.613  1.00  0.00     0.210 HD
ENDBRANCH  31  34
ENDBRANCH   1  28
TORSDOF 10
ENDMDL