MODEL 3
REMARK VINA RESULT: -9.986820372      1.693      2.322
REMARK  5 active torsions:
REMARK  status: ('A' for Active; 'I' for Inactive)
REMARK    1  A    between atoms: N1_2  and  C3_4
REMARK    2  A    between atoms: N2_7  and  C6_8
REMARK    3  A    between atoms: C9_11  and  N3_12
REMARK    4  A    between atoms: C16_19  and  C17_20
REMARK    5  A    between atoms: C17_20  and  N4_21
REMARK       I    between atoms: N4_21  and  C18_23
REMARK       I    between atoms: C18_23  and  N5_25
ROOT
HETATM    1  N3  UNL     1      22.926  12.710  31.663  1.00  0.00    -0.365 N
HETATM    2  C10 UNL     1      23.282  11.782  30.723  1.00  0.00     0.090 C
HETATM    3  C11 UNL     1      22.608  10.502  30.470  1.00  0.00     0.013 C
HETATM    4  C12 UNL     1      22.495   9.422  31.429  1.00  0.00    -0.025 C
HETATM    5  C13 UNL     1      23.180   9.351  32.726  1.00  0.00     0.027 C
HETATM    6  C14 UNL     1      22.347   9.858  33.952  1.00  0.00     0.005 C
HETATM    7  C15 UNL     1      21.978  11.175  33.516  1.00  0.00     0.015 C
HETATM    8  C16 UNL     1      21.485  12.450  33.699  1.00  0.00     0.063 C
HETATM    9  C24 UNL     1      21.752  13.072  32.232  1.00  0.00     0.073 C
ENDROOT
BRANCH   1  10
HETATM   10  C9  UNL     1      23.896  13.784  31.738  1.00  0.00     0.088 C
HETATM   11  C8  UNL     1      25.276  13.438  31.260  1.00  0.00     0.028 C
HETATM   12  C7  UNL     1      26.068  14.747  31.447  1.00  0.00     0.027 C
HETATM   13  C6  UNL     1      25.679  15.573  30.217  1.00  0.00     0.079 C
HETATM   14  C26 UNL     1      24.196  15.637  30.055  1.00  0.00     0.027 C
HETATM   15  C25 UNL     1      23.401  15.097  31.201  1.00  0.00     0.028 C
BRANCH  13  16
HETATM   16  N2  UNL     1      26.352  16.818  30.169  1.00  0.00    -0.406 N
HETATM   17  C5  UNL     1      27.103  17.213  31.301  1.00  0.00     0.119 C
HETATM   18  C4  UNL     1      26.679  18.619  31.672  1.00  0.00     0.057 C
HETATM   19  C3  UNL     1      25.965  19.137  30.450  1.00  0.00     0.241 C
HETATM   20  C27 UNL     1      25.627  17.919  29.638  1.00  0.00     0.153 C
BRANCH  19  21
HETATM   21  N1  UNL     1      26.730  20.054  29.677  1.00  0.00     0.086 N
HETATM   22  C1  UNL     1      27.669  20.851  30.392  1.00  0.00     0.310 C
HETATM   23  C2  UNL     1      26.006  20.829  28.727  1.00  0.00     0.310 C
ENDBRANCH  19  21
ENDBRANCH  13  16
ENDBRANCH   1  10
BRANCH   8  24
HETATM   24  C17 UNL     1      20.149  12.954  34.041  1.00  0.00     0.075 C
BRANCH  24  25
HETATM   25  N4  UNL     1      19.153  12.896  33.055  1.00  0.00    -0.322 N
HETATM   26  C18 UNL     1      18.038  12.042  33.054  1.00  0.00     0.322 C
HETATM   27  O1  UNL     1      17.874  11.212  33.965  1.00  0.00    -0.247 OA
HETATM   28  N5  UNL     1      17.054  12.117  31.981  1.00  0.00    -0.334 N
HETATM   29  C19 UNL     1      17.214  13.056  30.922  1.00  0.00     0.127 C
HETATM   30  C23 UNL     1      15.954  11.207  32.069  1.00  0.00     0.127 C
HETATM   31  C20 UNL     1      16.289  12.929  29.778  1.00  0.00     0.020 C
HETATM   32  C21 UNL     1      15.482  11.656  29.733  1.00  0.00     0.003 C
HETATM   33  C22 UNL     1      14.833  11.467  31.098  1.00  0.00     0.020 C
ATOM     34  H4  UNL     1      19.247  13.534  32.265  1.00  0.00     0.169 HD
ENDBRANCH  24  25
ENDBRANCH   8  24
TORSDOF 5
ENDMDL