MODEL 4
REMARK VINA RESULT: -9.018387634      3.902      7.793
REMARK  5 active torsions:
REMARK  status: ('A' for Active; 'I' for Inactive)
REMARK    1  A    between atoms: C2_2  and  C3_3
REMARK       I    between atoms: C3_3  and  N1_5
REMARK    2  A    between atoms: N1_5  and  C4_7
REMARK    3  A    between atoms: C4_7  and  C5_8
REMARK    4  A    between atoms: C5_8  and  C6_9
REMARK    5  A    between atoms: C6_9  and  N2_10
ROOT
HETATM    1  C1  UNL     1      20.671  10.525  30.611  1.00  0.00     0.025 C
HETATM    2  C2  UNL     1      20.813  11.680  31.556  1.00  0.00     0.038 C
HETATM    3  C11 UNL     1      20.953  11.244  32.998  1.00  0.00     0.019 C
HETATM    4  C12 UNL     1      22.113  10.317  33.142  1.00  0.00     0.006 C
HETATM    5  C13 UNL     1      23.274  10.651  32.230  1.00  0.00    -0.010 C
HETATM    6  C14 UNL     1      24.550  10.369  32.999  1.00  0.00     0.005 C
HETATM    7  C15 UNL     1      25.786  10.691  32.182  1.00  0.00     0.006 C
HETATM    8  C16 UNL     1      25.446  11.575  31.001  1.00  0.00    -0.001 C
HETATM    9  C17 UNL     1      24.485  12.687  31.407  1.00  0.00    -0.005 C
HETATM   10  C18 UNL     1      25.187  13.562  32.393  1.00  0.00     0.006 C
HETATM   11  C19 UNL     1      26.316  14.255  31.702  1.00  0.00     0.006 C
HETATM   12  C20 UNL     1      26.704  13.664  30.400  1.00  0.00    -0.005 C
HETATM   13  C21 UNL     1      28.089  14.146  30.035  1.00  0.00     0.013 C
HETATM   14  C22 UNL     1      29.114  13.791  31.068  1.00  0.00     0.079 C
HETATM   15  C23 UNL     1      28.786  12.446  31.607  1.00  0.00     0.127 C
HETATM   16  O3  UNL     1      29.203  12.149  32.709  1.00  0.00    -0.298 OA
HETATM   17  C24 UNL     1      27.962  11.565  30.739  1.00  0.00     0.088 C
HETATM   18  C25 UNL     1      26.642  12.163  30.336  1.00  0.00    -0.030 C
HETATM   19  C26 UNL     1      26.479  11.834  28.835  1.00  0.00     0.016 C
HETATM   20  C27 UNL     1      23.234  12.158  32.021  1.00  0.00    -0.005 C
HETATM   21  C28 UNL     1      22.047  12.463  31.168  1.00  0.00     0.024 C
ENDROOT
BRANCH   2  22
HETATM   22  C3  UNL     1      19.657  12.603  31.378  1.00  0.00     0.229 C
HETATM   23  O1  UNL     1      19.914  13.824  31.393  1.00  0.00    -0.272 OA
HETATM   24  N1  UNL     1      18.339  12.157  31.200  1.00  0.00    -0.340 N
ATOM     25  H1  UNL     1      18.237  11.142  31.183  1.00  0.00     0.167 HD
BRANCH  24  26
HETATM   26  C4  UNL     1      17.134  12.862  31.042  1.00  0.00     0.065 C
BRANCH  26  27
HETATM   27  C5  UNL     1      16.874  13.715  29.877  1.00  0.00     0.064 C
BRANCH  27  28
HETATM   28  C6  UNL     1      16.975  15.192  29.986  1.00  0.00     0.127 C
BRANCH  28  29
HETATM   29  N2  UNL     1      17.884  15.741  28.971  1.00  0.00    -0.389 N
HETATM   30  C7  UNL     1      17.654  15.229  27.679  1.00  0.00     0.084 C
HETATM   31  C8  UNL     1      17.296  16.242  26.627  1.00  0.00     0.212 C
HETATM   32  O2  UNL     1      18.037  17.414  26.774  1.00  0.00    -0.385 OA
HETATM   33  C9  UNL     1      17.612  17.988  27.982  1.00  0.00     0.187 C
HETATM   34  C10 UNL     1      18.094  17.131  29.095  1.00  0.00     0.148 C
ENDBRANCH  28  29
ENDBRANCH  27  28
ENDBRANCH  26  27
ENDBRANCH  24  26
ENDBRANCH   2  22
TORSDOF 5
ENDMDL