MODEL 4
REMARK VINA RESULT: -9.295580126      0.831      1.343
REMARK  5 active torsions:
REMARK  status: ('A' for Active; 'I' for Inactive)
REMARK    1  A    between atoms: N1_4  and  C4_5
REMARK    2  A    between atoms: C14_15  and  N2_16
REMARK       I    between atoms: N3_20  and  C18_21
REMARK    3  A    between atoms: C18_21  and  C19_23
REMARK    4  A    between atoms: C19_23  and  N4_24
REMARK    5  A    between atoms: N4_24  and  C20_26
ROOT
HETATM    1  N2  UNL     1      23.847  11.908  31.246  1.00  0.00     0.093 N
HETATM    2  C15 UNL     1      24.150  10.872  30.263  1.00  0.00     0.274 C
HETATM    3  C16 UNL     1      25.667  10.689  30.199  1.00  0.00     0.050 C
HETATM    4  C17 UNL     1      26.333  11.008  31.483  1.00  0.00     0.127 C
HETATM    5  N3  UNL     1      27.197  12.199  31.466  1.00  0.00    -0.351 N
HETATM    6  C18 UNL     1      28.538  11.915  31.674  1.00  0.00     0.237 C
HETATM    7  O1  UNL     1      28.859  10.683  31.847  1.00  0.00    -0.272 OA
HETATM    8  C26 UNL     1      26.802  13.583  31.288  1.00  0.00     0.127 C
HETATM    9  C27 UNL     1      25.353  13.710  31.829  1.00  0.00     0.050 C
HETATM   10  C28 UNL     1      24.475  13.141  30.760  1.00  0.00     0.274 C
ENDROOT
BRANCH   1  11
HETATM   11  C14 UNL     1      22.482  12.087  31.587  1.00  0.00     0.230 C
HETATM   12  C2  UNL     1      21.732  13.242  31.040  1.00  0.00     0.043 C
HETATM   13  C1  UNL     1      21.367  13.284  29.619  1.00  0.00     0.014 C
HETATM   14  C3  UNL     1      20.457  13.313  31.893  1.00  0.00     0.279 C
HETATM   15  N1  UNL     1      19.668  12.136  31.907  1.00  0.00     0.093 N
HETATM   16  C12 UNL     1      20.194  11.042  31.147  1.00  0.00     0.275 C
HETATM   17  C13 UNL     1      21.654  10.853  31.151  1.00  0.00     0.066 C
BRANCH  15  18
HETATM   18  C4  UNL     1      18.309  12.459  31.712  1.00  0.00     0.223 C
HETATM   19  C5  UNL     1      17.409  12.622  32.867  1.00  0.00     0.036 C
HETATM   20  C6  UNL     1      16.464  11.490  33.106  1.00  0.00     0.002 C
HETATM   21  C7  UNL     1      15.747  10.973  31.913  1.00  0.00     0.000 C
HETATM   22  C8  UNL     1      15.136  12.016  31.023  1.00  0.00     0.000 C
HETATM   23  C9  UNL     1      16.067  12.435  29.889  1.00  0.00     0.000 C
HETATM   24  C10 UNL     1      16.785  13.711  30.147  1.00  0.00     0.002 C
HETATM   25  C11 UNL     1      18.181  13.574  30.695  1.00  0.00     0.036 C
ENDBRANCH  15  18
ENDBRANCH   1  11
BRANCH   6  26
HETATM   26  C19 UNL     1      29.707  12.824  31.741  1.00  0.00     0.217 C
BRANCH  26  27
HETATM   27  N4  UNL     1      30.609  12.489  32.789  1.00  0.00    -0.409 N
ATOM     28  H4  UNL     1      30.873  11.522  32.982  1.00  0.00     0.154 HD
BRANCH  27  29
HETATM   29  C20 UNL     1      31.124  13.576  33.560  1.00  0.00     0.077 C
HETATM   30  C21 UNL     1      30.112  14.654  33.865  1.00  0.00     0.024 C
HETATM   31  C22 UNL     1      30.406  15.352  35.149  1.00  0.00     0.002 C
HETATM   32  C23 UNL     1      30.453  14.480  36.362  1.00  0.00     0.000 C
HETATM   33  C24 UNL     1      30.707  13.042  35.968  1.00  0.00     0.002 C
HETATM   34  C25 UNL     1      31.720  13.021  34.841  1.00  0.00     0.024 C
ENDBRANCH  27  29
ENDBRANCH  26  27
ENDBRANCH   6  26
TORSDOF 5
ENDMDL