MODEL 2
REMARK VINA RESULT: -8.207975495      1.005      1.477
REMARK  5 active torsions:
REMARK  status: ('A' for Active; 'I' for Inactive)
REMARK    1  A    between atoms: C2_2  and  C3_3
REMARK    2  A    between atoms: C2_2  and  C6_8
REMARK    3  A    between atoms: C3_3  and  O1_4
REMARK    4  A    between atoms: O1_4  and  C4_5
REMARK    5  A    between atoms: C4_5  and  O2_6
ROOT
HETATM    1  C6  UNL     1      26.949  17.422  30.786  1.00  0.00     0.045 C
HETATM    2  C7  UNL     1      27.560  17.138  32.142  1.00  0.00     0.014 C
HETATM    3  C8  UNL     1      26.441  16.504  32.953  1.00  0.00     0.010 C
HETATM    4  C9  UNL     1      25.823  15.646  31.837  1.00  0.00     0.016 C
HETATM    5  C10 UNL     1      24.744  14.802  32.273  1.00  0.00     0.019 C
HETATM    6  C11 UNL     1      23.702  14.216  31.467  1.00  0.00    -0.024 C
HETATM    7  C12 UNL     1      24.286  13.170  30.513  1.00  0.00     0.013 C
HETATM    8  C13 UNL     1      25.021  12.077  31.185  1.00  0.00     0.027 C
HETATM    9  C14 UNL     1      24.222  11.495  32.312  1.00  0.00     0.093 C
HETATM   10  N1  UNL     1      24.172  10.049  32.165  1.00  0.00    -0.356 N
ATOM     11  H1  UNL     1      24.734   9.563  31.466  1.00  0.00     0.162 HD
HETATM   12  C15 UNL     1      23.310   9.351  33.036  1.00  0.00     0.217 C
HETATM   13  O3  UNL     1      23.285   8.104  32.994  1.00  0.00    -0.274 OA
HETATM   14  C16 UNL     1      22.462  10.075  33.972  1.00  0.00     0.103 C
HETATM   15  C17 UNL     1      22.236  11.510  33.683  1.00  0.00     0.020 C
HETATM   16  C18 UNL     1      22.818  11.989  32.343  1.00  0.00    -0.019 C
HETATM   17  C19 UNL     1      22.035  11.269  31.268  1.00  0.00     0.018 C
HETATM   18  C20 UNL     1      22.681  13.480  32.310  1.00  0.00     0.005 C
HETATM   19  C21 UNL     1      21.279  13.961  32.111  1.00  0.00     0.007 C
HETATM   20  C22 UNL     1      21.301  15.467  32.398  1.00  0.00     0.005 C
HETATM   21  C23 UNL     1      22.028  16.089  31.219  1.00  0.00    -0.006 C
HETATM   22  C24 UNL     1      20.950  16.480  30.225  1.00  0.00     0.011 C
HETATM   23  C25 UNL     1      22.915  15.090  30.536  1.00  0.00     0.072 C
HETATM   24  C26 UNL     1      23.763  15.778  29.540  1.00  0.00     0.154 C
HETATM   25  O4  UNL     1      23.440  15.642  28.303  1.00  0.00    -0.293 OA
HETATM   26  C27 UNL     1      24.929  16.605  29.702  1.00  0.00     0.054 C
HETATM   27  C28 UNL     1      25.800  16.539  30.715  1.00  0.00    -0.064 C
ENDROOT
BRANCH   1  28
HETATM   28  C2  UNL     1      26.709  18.889  30.804  1.00  0.00    -0.058 C
HETATM   29  C1  UNL     1      25.996  19.541  31.660  1.00  0.00     0.017 C
BRANCH  28  30
HETATM   30  C3  UNL     1      27.335  19.610  29.671  1.00  0.00     0.204 C
BRANCH  30  31
HETATM   31  O1  UNL     1      28.672  19.651  29.571  1.00  0.00    -0.363 OA
BRANCH  31  32
HETATM   32  C4  UNL     1      29.347  20.799  29.825  1.00  0.00     0.337 C
BRANCH  32  33
HETATM   33  O2  UNL     1      30.196  21.165  28.756  1.00  0.00    -0.372 OA
HETATM   34  C5  UNL     1      31.465  20.711  29.107  1.00  0.00     0.204 C
ENDBRANCH  32  33
ENDBRANCH  31  32
ENDBRANCH  30  31
ENDBRANCH  28  30
ENDBRANCH   1  28
TORSDOF 5
ENDMDL