MODEL 2
REMARK VINA RESULT: -8.299646262      2.411      6.798
REMARK  5 active torsions:
REMARK  status: ('A' for Active; 'I' for Inactive)
REMARK    1  A    between atoms: C2_2  and  N1_3
REMARK    2  A    between atoms: C3_5  and  C4_6
REMARK    3  A    between atoms: C12_14  and  C13_15
REMARK    4  A    between atoms: C27_31  and  C28_32
REMARK    5  A    between atoms: C28_32  and  O2_33
ROOT
HETATM    1  C4  UNL     1      26.014  14.620  30.641  1.00  0.00     0.262 C
HETATM    2  C5  UNL     1      27.040  13.841  29.840  1.00  0.00     0.048 C
HETATM    3  C6  UNL     1      26.843  12.438  30.466  1.00  0.00     0.022 C
HETATM    4  C7  UNL     1      27.595  11.414  29.658  1.00  0.00     0.012 C
HETATM    5  C8  UNL     1      25.365  12.408  30.260  1.00  0.00     0.256 C
HETATM    6  C9  UNL     1      24.615  11.383  30.922  1.00  0.00    -0.053 C
HETATM    7  C10 UNL     1      25.372  11.427  32.178  1.00  0.00     0.045 C
HETATM    8  C11 UNL     1      23.523  10.528  31.189  1.00  0.00    -0.001 C
HETATM    9  C12 UNL     1      22.150  11.278  31.529  1.00  0.00     0.053 C
HETATM   10  C14 UNL     1      21.537  11.437  30.218  1.00  0.00    -0.008 C
HETATM   11  C15 UNL     1      21.152  12.409  29.453  1.00  0.00    -0.004 C
HETATM   12  C16 UNL     1      21.196  13.850  29.655  1.00  0.00     0.116 C
HETATM   13  C17 UNL     1      21.329  14.264  31.083  1.00  0.00     0.056 C
HETATM   14  C18 UNL     1      20.079  13.698  31.636  1.00  0.00    -0.050 C
HETATM   15  C19 UNL     1      19.170  13.767  30.690  1.00  0.00     0.010 C
HETATM   16  C20 UNL     1      17.718  13.374  30.610  1.00  0.00     0.057 C
HETATM   17  C21 UNL     1      17.058  14.581  29.928  1.00  0.00     0.007 C
HETATM   18  C22 UNL     1      17.593  14.630  28.530  1.00  0.00     0.020 C
HETATM   19  C23 UNL     1      19.058  15.001  28.497  1.00  0.00     0.123 C
HETATM   20  N2  UNL     1      19.783  14.289  29.482  1.00  0.00    -0.375 N
HETATM   21  C24 UNL     1      19.965  13.144  32.998  1.00  0.00     0.037 C
HETATM   22  C25 UNL     1      21.243  12.555  33.395  1.00  0.00     0.011 C
HETATM   23  C26 UNL     1      22.341  12.475  32.342  1.00  0.00     0.022 C
HETATM   24  C27 UNL     1      22.570  13.808  31.782  1.00  0.00     0.022 C
HETATM   25  C29 UNL     1      23.684  14.072  30.842  1.00  0.00     0.287 C
HETATM   26  N3  UNL     1      25.024  13.673  31.031  1.00  0.00     0.107 N
ENDROOT
BRANCH   1  27
HETATM   27  C3  UNL     1      26.742  15.216  31.798  1.00  0.00     0.095 C
HETATM   28  N1  UNL     1      26.409  16.330  32.323  1.00  0.00    -0.381 N
ATOM     29  H1  UNL     1      25.610  16.817  31.918  1.00  0.00     0.164 HD
BRANCH  28  30
HETATM   30  C2  UNL     1      27.054  16.944  33.413  1.00  0.00     0.056 C
HETATM   31  C1  UNL     1      28.414  16.305  33.607  1.00  0.00     0.054 C
ENDBRANCH  28  30
ENDBRANCH   1  27
BRANCH  24  32
HETATM   32  C28 UNL     1      22.763  14.776  32.939  1.00  0.00     0.176 C
BRANCH  32  33
HETATM   33  O2  UNL     1      23.202  16.027  32.469  1.00  0.00    -0.400 OA
ATOM     34  H2  UNL     1      23.882  16.376  33.034  1.00  0.00     0.209 HD
ENDBRANCH  32  33
ENDBRANCH  24  32
BRANCH   9  35
HETATM   35  C13 UNL     1      21.379  10.210  32.217  1.00  0.00     0.249 C
HETATM   36  O1  UNL     1      21.618   9.019  32.082  1.00  0.00    -0.305 OA
ENDBRANCH   9  35
TORSDOF 5
ENDMDL