MODEL 2
REMARK VINA RESULT: -8.599833616      3.820      7.570
REMARK  7 active torsions:
REMARK  status: ('A' for Active; 'I' for Inactive)
REMARK    1  A    between atoms: C2_2  and  N1_3
REMARK    2  A    between atoms: N1_3  and  C3_4
REMARK       I    between atoms: N1_3  and  C5_6
REMARK    3  A    between atoms: C5_6  and  C6_8
REMARK    4  A    between atoms: C6_8  and  C7_9
REMARK    5  A    between atoms: C18_20  and  O2_21
REMARK    6  A    between atoms: O2_21  and  S1_22
REMARK    7  A    between atoms: S1_22  and  N2_23
ROOT
HETATM    1  C7  UNL     1      27.155  10.900  30.317  1.00  0.00     0.003 C
HETATM    2  C8  UNL     1      26.158  10.411  29.270  1.00  0.00     0.039 C
HETATM    3  C9  UNL     1      24.825  10.756  29.891  1.00  0.00    -0.078 C
HETATM    4  C10 UNL     1      23.598  11.192  29.654  1.00  0.00    -0.013 C
HETATM    5  C11 UNL     1      22.873  11.243  30.922  1.00  0.00    -0.014 C
HETATM    6  C12 UNL     1      22.192   9.879  31.098  1.00  0.00     0.021 C
HETATM    7  C13 UNL     1      23.946  11.319  31.953  1.00  0.00     0.007 C
HETATM    8  C14 UNL     1      24.447  12.672  32.293  1.00  0.00     0.007 C
HETATM    9  C15 UNL     1      23.251  13.565  32.654  1.00  0.00     0.006 C
HETATM   10  C16 UNL     1      22.435  13.642  31.357  1.00  0.00    -0.003 C
HETATM   11  C17 UNL     1      21.429  14.728  31.524  1.00  0.00     0.039 C
HETATM   12  C18 UNL     1      20.400  14.727  30.413  1.00  0.00     0.144 C
HETATM   13  C19 UNL     1      20.883  13.888  29.282  1.00  0.00     0.034 C
HETATM   14  C20 UNL     1      20.986  12.448  29.805  1.00  0.00     0.013 C
HETATM   15  C21 UNL     1      21.831  12.321  31.016  1.00  0.00    -0.029 C
HETATM   16  C22 UNL     1      20.919  11.931  32.185  1.00  0.00     0.016 C
HETATM   17  C23 UNL     1      25.031  10.485  31.320  1.00  0.00     0.023 C
HETATM   18  C24 UNL     1      26.422  10.850  31.629  1.00  0.00    -0.005 C
HETATM   19  C25 UNL     1      27.103   9.811  32.519  1.00  0.00     0.011 C
ENDROOT
BRANCH   1  20
HETATM   20  C6  UNL     1      27.698  12.243  29.951  1.00  0.00     0.108 C
BRANCH  20  21
HETATM   21  C5  UNL     1      28.571  12.832  30.988  1.00  0.00     0.220 C
HETATM   22  N1  UNL     1      28.336  14.145  31.506  1.00  0.00    -0.353 N
HETATM   23  O1  UNL     1      29.553  12.208  31.458  1.00  0.00    -0.273 OA
BRANCH  22  24
HETATM   24  C2  UNL     1      29.201  14.686  32.530  1.00  0.00     0.121 C
HETATM   25  C1  UNL     1      30.242  15.620  31.933  1.00  0.00     0.026 C
ENDBRANCH  22  24
BRANCH  22  26
HETATM   26  C3  UNL     1      27.249  14.951  31.031  1.00  0.00     0.121 C
HETATM   27  C4  UNL     1      26.532  15.728  32.086  1.00  0.00     0.026 C
ENDBRANCH  22  26
ENDBRANCH  20  21
ENDBRANCH   1  20
BRANCH  12  28
HETATM   28  O2  UNL     1      20.097  16.018  30.107  1.00  0.00    -0.254 OA
BRANCH  28  29
HETATM   29  S1  UNL     1      18.584  16.262  29.464  1.00  0.00     0.355 S
HETATM   30  O3  UNL     1      17.537  15.397  30.153  1.00  0.00    -0.176 OA
HETATM   31  O4  UNL     1      18.529  16.104  27.976  1.00  0.00    -0.176 OA
BRANCH  29  32
HETATM   32  N2  UNL     1      18.131  17.905  29.816  1.00  0.00    -0.306 N
ATOM     33  H22 UNL     1      17.748  18.239  30.701  1.00  0.00     0.171 HD
ATOM     34  H21 UNL     1      18.319  18.457  28.979  1.00  0.00     0.171 HD
ENDBRANCH  29  32
ENDBRANCH  28  29
ENDBRANCH  12  28
TORSDOF 7
ENDMDL