MODEL 5
REMARK VINA RESULT: -8.185388547      2.811      4.351
REMARK  5 active torsions:
REMARK  status: ('A' for Active; 'I' for Inactive)
REMARK    1  A    between atoms: C11_11  and  C12_12
REMARK       I    between atoms: C12_12  and  N1_14
REMARK    2  A    between atoms: N1_14  and  C13_15
REMARK    3  A    between atoms: N1_14  and  C15_19
REMARK    4  A    between atoms: C13_15  and  C14_16
REMARK    5  A    between atoms: C15_19  and  C16_20
ROOT
HETATM    1  C1  UNL     1      26.985   9.569  32.627  1.00  0.00     0.011 C
HETATM    2  C2  UNL     1      25.748  10.376  32.575  1.00  0.00    -0.010 C
HETATM    3  C3  UNL     1      24.474   9.612  32.758  1.00  0.00     0.005 C
HETATM    4  C4  UNL     1      23.449  10.654  32.286  1.00  0.00     0.006 C
HETATM    5  C5  UNL     1      24.092  11.060  30.952  1.00  0.00    -0.002 C
HETATM    6  C6  UNL     1      23.484  12.236  30.329  1.00  0.00    -0.005 C
HETATM    7  C7  UNL     1      22.022  12.386  30.770  1.00  0.00     0.006 C
HETATM    8  C8  UNL     1      21.552  13.820  30.618  1.00  0.00     0.011 C
HETATM    9  C9  UNL     1      22.264  14.655  31.657  1.00  0.00    -0.028 C
HETATM   10  C10 UNL     1      21.602  14.477  32.974  1.00  0.00     0.016 C
HETATM   11  C11 UNL     1      22.297  16.079  31.145  1.00  0.00     0.086 C
HETATM   12  C20 UNL     1      23.379  16.640  32.069  1.00  0.00     0.015 C
HETATM   13  C21 UNL     1      24.489  15.615  31.777  1.00  0.00     0.007 C
HETATM   14  C22 UNL     1      23.728  14.288  31.761  1.00  0.00    -0.001 C
HETATM   15  C23 UNL     1      24.143  13.550  30.521  1.00  0.00    -0.005 C
HETATM   16  C24 UNL     1      25.639  13.429  30.386  1.00  0.00     0.006 C
HETATM   17  C25 UNL     1      26.165  12.427  31.366  1.00  0.00     0.010 C
HETATM   18  C26 UNL     1      25.544  11.088  31.234  1.00  0.00    -0.037 C
HETATM   19  C27 UNL     1      26.303  10.336  30.133  1.00  0.00     0.016 C
ENDROOT
BRANCH  11  20
HETATM   20  C12 UNL     1      21.032  16.782  31.275  1.00  0.00     0.225 C
HETATM   21  O1  UNL     1      20.778  17.469  32.296  1.00  0.00    -0.273 OA
HETATM   22  N1  UNL     1      20.057  16.714  30.259  1.00  0.00    -0.336 N
BRANCH  22  23
HETATM   23  C13 UNL     1      20.231  15.923  29.065  1.00  0.00     0.225 C
BRANCH  23  24
HETATM   24  C14 UNL     1      18.935  15.220  28.757  1.00  0.00     0.249 C
HETATM   25  N2  UNL     1      18.409  15.309  27.445  1.00  0.00    -0.061 NA
HETATM   26  O2  UNL     1      18.328  14.574  29.615  1.00  0.00    -0.275 OA
ENDBRANCH  23  24
ENDBRANCH  22  23
BRANCH  22  27
HETATM   27  C15 UNL     1      18.800  17.471  30.408  1.00  0.00     0.203 C
BRANCH  27  28
HETATM   28  C16 UNL     1      18.899  18.839  29.866  1.00  0.00     0.101 A
HETATM   29  N3  UNL     1      19.602  19.830  30.443  1.00  0.00    -0.353 N
HETATM   30  C17 UNL     1      19.479  20.943  29.701  1.00  0.00     0.106 A
ATOM     31  H3  UNL     1      20.141  19.750  31.306  1.00  0.00     0.166 HD
HETATM   32  C18 UNL     1      18.674  20.619  28.639  1.00  0.00     0.108 A
HETATM   33  N4  UNL     1      18.327  19.324  28.753  1.00  0.00    -0.348 N
HETATM   34  C19 UNL     1      17.472  18.646  27.797  1.00  0.00     0.157 C
ENDBRANCH  27  28
ENDBRANCH  22  27
ENDBRANCH  11  20
TORSDOF 5
ENDMDL