MODEL 2
REMARK VINA RESULT: -7.156746913      1.687      6.640
REMARK  8 active torsions:
REMARK  status: ('A' for Active; 'I' for Inactive)
REMARK    1  A    between atoms: C3_3  and  O1_4
REMARK    2  A    between atoms: O1_4  and  C4_5
REMARK    3  A    between atoms: C5_8  and  N2_9
REMARK    4  A    between atoms: C6_14  and  N4_15
REMARK    5  A    between atoms: N4_15  and  C7_17
REMARK    6  A    between atoms: C7_17  and  C8_18
REMARK    7  A    between atoms: C8_18  and  C10_20
REMARK    8  A    between atoms: C10_20  and  O3_22
ROOT
HETATM    1  C1  UNL     1       7.897  20.085  30.371  1.00  0.00     0.014 C
HETATM    2  C2  UNL     1       8.634  20.629  29.589  1.00  0.00    -0.091 C
HETATM    3  C3  UNL     1       9.549  21.275  28.615  1.00  0.00     0.270 C
ENDROOT
BRANCH   3   4
HETATM    4  O1  UNL     1       9.736  20.368  27.576  1.00  0.00    -0.322 OA
BRANCH   4   5
HETATM    5  C4  UNL     1      10.848  19.576  27.378  1.00  0.00     0.179 A
HETATM    6  N1  UNL     1      12.029  19.977  27.878  1.00  0.00    -0.169 N
HETATM    7  C5  UNL     1      13.141  19.249  27.716  1.00  0.00     0.679 A
ATOM      8  H1  UNL     1      12.080  20.856  28.393  1.00  0.00     0.186 HD
HETATM    9  N3  UNL     1      13.090  18.081  27.035  1.00  0.00    -0.176 N
HETATM   10  C6  UNL     1      11.950  17.605  26.503  1.00  0.00     0.138 A
ATOM     11  H3  UNL     1      13.947  17.540  26.921  1.00  0.00     0.186 HD
HETATM   12  C12 UNL     1      10.820  18.382  26.688  1.00  0.00     0.106 A
HETATM   13 BR1  UNL     1       9.165  17.805  25.980  1.00  0.00    -0.042 Br
BRANCH   7  14
HETATM   14  N2  UNL     1      14.237  19.699  28.224  1.00  0.00    -0.234 N
ATOM     15  H22 UNL     1      14.330  19.900  29.220  1.00  0.00     0.174 HD
ATOM     16  H21 UNL     1      15.027  19.853  27.598  1.00  0.00     0.174 HD
ENDBRANCH   7  14
BRANCH  10  17
HETATM   17  N4  UNL     1      11.839  16.519  25.856  1.00  0.00    -0.374 N
ATOM     18  H4  UNL     1      11.318  15.773  26.316  1.00  0.00     0.161 HD
BRANCH  17  19
HETATM   19  C7  UNL     1      12.357  16.220  24.566  1.00  0.00     0.135 C
BRANCH  19  20
HETATM   20  C8  UNL     1      13.549  15.286  24.601  1.00  0.00     0.099 C
HETATM   21  C9  UNL     1      13.176  14.040  23.823  1.00  0.00     0.022 C
BRANCH  20  22
HETATM   22  C10 UNL     1      13.848  14.865  25.998  1.00  0.00     0.263 C
HETATM   23  O2  UNL     1      14.672  15.511  26.723  1.00  0.00    -0.265 OA
BRANCH  22  24
HETATM   24  O3  UNL     1      13.248  13.755  26.576  1.00  0.00    -0.326 OA
HETATM   25  C11 UNL     1      13.522  13.364  27.909  1.00  0.00     0.213 C
ENDBRANCH  22  24
ENDBRANCH  20  22
ENDBRANCH  19  20
ENDBRANCH  17  19
ENDBRANCH  10  17
ENDBRANCH   4   5
ENDBRANCH   3   4
TORSDOF 8
ENDMDL