MODEL 2
REMARK VINA RESULT: -6.988113092      4.307      7.624
REMARK  6 active torsions:
REMARK  status: ('A' for Active; 'I' for Inactive)
REMARK    1  A    between atoms: O1_2  and  C2_3
REMARK    2  A    between atoms: C8_11  and  O2_12
REMARK    3  A    between atoms: C9_14  and  O3_15
REMARK    4  A    between atoms: C11_17  and  C12_18
REMARK    5  A    between atoms: C12_18  and  O4_19
REMARK    6  A    between atoms: C13_21  and  C14_22
ROOT
HETATM    1  C2  UNL     1      12.592  17.288  25.995  1.00  0.00     0.106 A
HETATM    2  C3  UNL     1      12.552  16.365  24.977  1.00  0.00     0.070 A
HETATM    3  C4  UNL     1      13.395  15.246  24.977  1.00  0.00     0.049 A
HETATM    4  N1  UNL     1      13.546  14.222  24.120  1.00  0.00    -0.350 N
ATOM      5  H1  UNL     1      13.025  14.081  23.253  1.00  0.00     0.166 HD
HETATM    6  C5  UNL     1      14.504  13.417  24.605  1.00  0.00     0.109 A
HETATM    7  C6  UNL     1      14.968  13.942  25.795  1.00  0.00    -0.002 A
HETATM    8  C7  UNL     1      14.261  15.119  26.043  1.00  0.00     0.036 A
HETATM    9  C8  UNL     1      14.313  16.038  27.073  1.00  0.00     0.115 A
HETATM   10  C9  UNL     1      13.473  17.124  27.042  1.00  0.00     0.136 A
HETATM   11  C11 UNL     1      16.031  13.301  26.604  1.00  0.00     0.069 C
HETATM   12  C13 UNL     1      16.906  12.501  25.665  1.00  0.00     0.109 C
HETATM   13  N2  UNL     1      16.099  11.578  24.894  1.00  0.00    -0.349 N
ATOM     14  H2  UNL     1      16.253  10.570  24.925  1.00  0.00     0.163 HD
HETATM   15  C15 UNL     1      15.075  12.163  24.089  1.00  0.00     0.269 C
HETATM   16  O5  UNL     1      14.700  11.628  23.013  1.00  0.00    -0.266 OA
ENDROOT
BRANCH  11  17
HETATM   17  C12 UNL     1      15.443  12.338  27.626  1.00  0.00     0.175 C
BRANCH  17  18
HETATM   18  O4  UNL     1      15.193  13.008  28.818  1.00  0.00    -0.400 OA
ATOM     19  H4  UNL     1      14.511  12.559  29.304  1.00  0.00     0.209 HD
ENDBRANCH  17  18
ENDBRANCH  11  17
BRANCH  12  20
HETATM   20  C14 UNL     1      17.735  13.400  24.777  1.00  0.00     0.140 C
HETATM   21 CL1  UNL     1      18.588  12.393  23.591  1.00  0.00    -0.128 Cl
ENDBRANCH  12  20
BRANCH   9  22
HETATM   22  O2  UNL     1      15.221  15.830  28.114  1.00  0.00    -0.357 OA
ATOM     23  H2  UNL     1      15.904  16.473  28.259  1.00  0.00     0.217 HD
ENDBRANCH   9  22
BRANCH  10  24
HETATM   24  O3  UNL     1      13.535  18.029  28.072  1.00  0.00    -0.351 OA
HETATM   25  C10 UNL     1      14.505  19.049  28.016  1.00  0.00     0.210 C
ENDBRANCH  10  24
BRANCH   1  26
HETATM   26  O1  UNL     1      11.766  18.382  25.993  1.00  0.00    -0.353 OA
HETATM   27  C1  UNL     1      10.355  18.293  26.087  1.00  0.00     0.210 C
ENDBRANCH   1  26
TORSDOF 6
ENDMDL