MODEL 4
REMARK VINA RESULT: -5.700460190      2.274      4.487
REMARK  6 active torsions:
REMARK  status: ('A' for Active; 'I' for Inactive)
REMARK    1  A    between atoms: S1_2  and  C2_3
REMARK    2  A    between atoms: C3_4  and  O1_5
REMARK    3  A    between atoms: C4_7  and  O2_8
REMARK    4  A    between atoms: C5_10  and  C6_11
REMARK    5  A    between atoms: C7_15  and  C8_16
REMARK    6  A    between atoms: C8_16  and  C11_19
ROOT
HETATM    1  C2  UNL     1      13.876  16.886  26.182  1.00  0.00     0.108 C
HETATM    2  C3  UNL     1      13.686  18.195  26.858  1.00  0.00     0.166 C
HETATM    3  C4  UNL     1      14.751  18.653  27.776  1.00  0.00     0.187 C
HETATM    4  C5  UNL     1      15.437  17.454  28.397  1.00  0.00     0.253 C
HETATM    5  O5  UNL     1      15.813  16.551  27.439  1.00  0.00    -0.365 OA
HETATM    6  C7  UNL     1      14.654  15.886  26.961  1.00  0.00     0.147 C
ENDROOT
BRANCH   6   7
HETATM    7  C8  UNL     1      15.175  14.718  26.205  1.00  0.00    -0.011 C
HETATM    8  C9  UNL     1      16.424  14.248  26.966  1.00  0.00     0.018 C
HETATM    9  C10 UNL     1      15.665  15.178  24.849  1.00  0.00     0.018 C
BRANCH   7  10
HETATM   10  C11 UNL     1      14.275  13.550  26.058  1.00  0.00     0.096 C
HETATM   11 BR1  UNL     1      14.458  12.803  24.255  1.00  0.00    -0.096 Br
ENDBRANCH   7  10
ENDBRANCH   6   7
BRANCH   1  12
HETATM   12  S1  UNL     1      12.178  16.292  25.810  1.00  0.00    -0.163 SA
HETATM   13  C1  UNL     1      12.186  15.874  24.023  1.00  0.00     0.090 C
ENDBRANCH   1  12
BRANCH   2  14
HETATM   14  O1  UNL     1      12.486  18.148  27.606  1.00  0.00    -0.392 OA
ATOM     15  H1  UNL     1      12.024  18.970  27.492  1.00  0.00     0.210 HD
ENDBRANCH   2  14
BRANCH   4  16
HETATM   16  C6  UNL     1      16.582  17.968  29.170  1.00  0.00     0.205 C
HETATM   17  O3  UNL     1      17.107  19.047  28.836  1.00  0.00    -0.646 OA
HETATM   18  O4  UNL     1      17.067  17.267  30.245  1.00  0.00    -0.646 OA
ENDBRANCH   4  16
BRANCH   3  19
HETATM   19  O2  UNL     1      14.195  19.380  28.847  1.00  0.00    -0.390 OA
ATOM     20  H2  UNL     1      14.719  19.266  29.630  1.00  0.00     0.210 HD
ENDBRANCH   3  19
TORSDOF 6
ENDMDL