MODEL 1
REMARK VINA RESULT: -8.591257410      0.000      0.000
REMARK  5 active torsions:
REMARK  status: ('A' for Active; 'I' for Inactive)
REMARK    1  A    between atoms: C2_2  and  C3_3
REMARK       I    between atoms: N2_6  and  C4_7
REMARK       I    between atoms: C4_7  and  N5_12
REMARK    2  A    between atoms: N5_12  and  C6_14
REMARK    3  A    between atoms: C6_14  and  C7_15
REMARK    4  A    between atoms: C7_15  and  C8_16
REMARK    5  A    between atoms: C8_16  and  N6_17
REMARK       I    between atoms: N6_17  and  C9_19
REMARK       I    between atoms: C9_19  and  N8_23
ROOT
HETATM    1  C3  UNL     1       8.069  19.023  28.654  1.00  0.00     0.007 C
HETATM    2  N1  UNL     1       8.010  18.509  27.476  1.00  0.00    -0.290 N
ATOM      3  H1  UNL     1       7.184  18.059  27.082  1.00  0.00     0.187 HD
HETATM    4  N2  UNL     1       9.233  18.649  26.806  1.00  0.00    -0.098 N
HETATM    5  C4  UNL     1       9.646  17.813  25.757  1.00  0.00     0.705 C
HETATM    6  N3  UNL     1       9.178  17.940  24.589  1.00  0.00    -0.125 N
ATOM      7  H3  UNL     1       9.495  17.319  23.844  1.00  0.00     0.197 HD
HETATM    8  C5  UNL     1       8.230  18.926  24.314  1.00  0.00     0.196 C
HETATM    9  N4  UNL     1       7.424  19.746  24.064  1.00  0.00    -0.171 NA
HETATM   10  N5  UNL     1      10.600  16.804  26.016  1.00  0.00    -0.224 N
ATOM     11  H5  UNL     1      10.436  16.188  26.812  1.00  0.00     0.177 HD
HETATM   12  C12 UNL     1       9.888  19.777  27.443  1.00  0.00     0.148 C
HETATM   13  C13 UNL     1       9.371  21.111  27.001  1.00  0.00     0.060 C
HETATM   14 CL1  UNL     1      11.643  19.734  27.295  1.00  0.00    -0.093 Cl
HETATM   15  C14 UNL     1       9.420  19.590  28.884  1.00  0.00     0.104 C
ENDROOT
BRANCH  10  16
HETATM   16  C6  UNL     1      11.784  16.585  25.237  1.00  0.00     0.139 C
BRANCH  16  17
HETATM   17  C7  UNL     1      12.942  17.259  25.930  1.00  0.00     0.040 C
BRANCH  17  18
HETATM   18  C8  UNL     1      13.643  16.224  26.778  1.00  0.00     0.139 C
BRANCH  18  19
HETATM   19  N6  UNL     1      14.355  16.821  27.893  1.00  0.00    -0.226 N
HETATM   20  C9  UNL     1      15.781  16.788  27.907  1.00  0.00     0.682 C
HETATM   21  N7  UNL     1      16.443  15.885  27.297  1.00  0.00    -0.230 N
HETATM   22  N8  UNL     1      16.446  17.809  28.631  1.00  0.00    -0.126 N
HETATM   23  C10 UNL     1      17.874  15.863  27.318  1.00  0.00     0.165 C
ATOM     24  H7  UNL     1      15.941  15.162  26.782  1.00  0.00     0.177 HD
HETATM   25  C11 UNL     1      17.284  17.513  29.698  1.00  0.00     0.196 C
ATOM     26  H8  UNL     1      16.306  18.783  28.363  1.00  0.00     0.197 HD
HETATM   27  N9  UNL     1      17.984  17.261  30.602  1.00  0.00    -0.171 NA
ATOM     28  H6  UNL     1      13.841  17.259  28.658  1.00  0.00     0.177 HD
ENDBRANCH  18  19
ENDBRANCH  17  18
ENDBRANCH  16  17
ENDBRANCH  10  16
BRANCH   1  29
HETATM   29  C2  UNL     1       6.953  19.046  29.627  1.00  0.00     0.049 C
HETATM   30  C1  UNL     1       7.246  20.029  30.740  1.00  0.00     0.011 C
ENDBRANCH   1  29
TORSDOF 5
ENDMDL