MODEL 5
REMARK VINA RESULT: -6.827328999      3.002      4.156
REMARK  6 active torsions:
REMARK  status: ('A' for Active; 'I' for Inactive)
REMARK    1  A    between atoms: C2_2  and  N1_3
REMARK    2  A    between atoms: N1_3  and  C3_4
REMARK    3  A    between atoms: N1_3  and  C5_7
REMARK    4  A    between atoms: C3_4  and  O1_5
REMARK    5  A    between atoms: C5_7  and  C6_8
REMARK    6  A    between atoms: C10_15  and  N3_16
ROOT
HETATM    1  C6  UNL     1       8.427  19.772  27.631  1.00  0.00     0.039 A
HETATM    2  C7  UNL     1       7.710  19.345  26.508  1.00  0.00     0.048 A
HETATM    3  C8  UNL     1       8.273  18.480  25.591  1.00  0.00     0.042 A
HETATM    4 BR1  UNL     1       7.337  17.872  24.052  1.00  0.00    -0.049 Br
HETATM    5  C9  UNL     1       9.560  18.029  25.783  1.00  0.00     0.099 A
HETATM    6  N2  UNL     1      10.148  17.172  24.898  1.00  0.00    -0.188 N
ATOM      7  H2  UNL     1       9.624  16.861  24.080  1.00  0.00     0.184 HD
HETATM    8  C10 UNL     1      11.403  16.731  25.086  1.00  0.00     0.679 A
HETATM    9  N4  UNL     1      12.070  17.156  26.170  1.00  0.00    -0.154 N
ATOM     10  H4  UNL     1      13.023  16.823  26.314  1.00  0.00     0.187 HD
HETATM   11  C11 UNL     1      11.540  18.004  27.080  1.00  0.00     0.288 A
HETATM   12  O2  UNL     1      12.158  18.403  28.095  1.00  0.00    -0.265 OA
HETATM   13  C12 UNL     1      10.259  18.457  26.896  1.00  0.00     0.130 A
HETATM   14  N5  UNL     1       9.662  19.290  27.740  1.00  0.00    -0.352 N
ATOM     15  H5  UNL     1      10.202  19.589  28.552  1.00  0.00     0.166 HD
ENDROOT
BRANCH   1  16
HETATM   16  C5  UNL     1       7.738  20.687  28.534  1.00  0.00     0.332 C
BRANCH  16  17
HETATM   17  N1  UNL     1       8.353  20.950  29.781  1.00  0.00     0.116 N
BRANCH  17  18
HETATM   18  C2  UNL     1       7.617  20.682  30.960  1.00  0.00     0.271 C
HETATM   19  C1  UNL     1       6.634  19.538  30.824  1.00  0.00     0.037 C
ENDBRANCH  17  18
BRANCH  17  20
HETATM   20  C3  UNL     1       8.920  22.263  29.805  1.00  0.00     0.440 C
BRANCH  20  21
HETATM   21  O1  UNL     1      10.055  22.364  28.995  1.00  0.00    -0.367 OA
HETATM   22  C4  UNL     1       9.807  23.302  27.982  1.00  0.00     0.204 C
ENDBRANCH  20  21
ENDBRANCH  17  20
ENDBRANCH  16  17
ENDBRANCH   1  16
BRANCH   8  23
HETATM   23  N3  UNL     1      11.961  15.910  24.236  1.00  0.00    -0.234 N
ATOM     24  H32 UNL     1      12.955  15.690  24.300  1.00  0.00     0.174 HD
ATOM     25  H31 UNL     1      11.417  15.472  23.494  1.00  0.00     0.174 HD
ENDBRANCH   8  23
TORSDOF 6
ENDMDL