MODEL 1
REMARK VINA RESULT: -7.495338860      0.000      0.000
REMARK  7 active torsions:
REMARK  status: ('A' for Active; 'I' for Inactive)
REMARK    1  A    between atoms: C2_2  and  C3_3
REMARK    2  A    between atoms: C3_3  and  C4_4
REMARK    3  A    between atoms: C4_4  and  N1_5
REMARK    4  A    between atoms: C7_12  and  N4_13
REMARK    5  A    between atoms: C8_16  and  N5_17
REMARK    6  A    between atoms: N5_17  and  C9_19
REMARK    7  A    between atoms: C9_19  and  C10_20
ROOT
HETATM    1  N1  UNL     1       9.199  19.430  26.761  1.00  0.00    -0.308 N
HETATM    2  C5  UNL     1      10.295  20.119  27.114  1.00  0.00     0.187 A
HETATM    3  N2  UNL     1      11.539  19.712  26.884  1.00  0.00    -0.336 N
ATOM      4  H2  UNL     1      12.328  20.288  27.179  1.00  0.00     0.168 HD
HETATM    5  C6  UNL     1      11.758  18.537  26.262  1.00  0.00     0.140 A
HETATM    6  N3  UNL     1      13.017  18.116  26.025  1.00  0.00    -0.324 N
ATOM      7  H3  UNL     1      13.820  18.676  26.311  1.00  0.00     0.169 HD
HETATM    8  C7  UNL     1      13.187  16.922  25.392  1.00  0.00     0.145 A
HETATM    9  C8  UNL     1      12.135  16.150  24.997  1.00  0.00     0.146 A
HETATM   10  N6  UNL     1      10.867  16.635  25.267  1.00  0.00    -0.332 N
ATOM     11  H6  UNL     1      10.058  16.082  24.983  1.00  0.00     0.168 HD
HETATM   12  C11 UNL     1      10.666  17.791  25.879  1.00  0.00     0.147 A
HETATM   13  C12 UNL     1       9.379  18.261  26.142  1.00  0.00     0.279 A
HETATM   14  O1  UNL     1       8.392  17.593  25.800  1.00  0.00    -0.265 OA
ENDROOT
BRANCH   9  15
HETATM   15  N5  UNL     1      12.195  15.054  24.417  1.00  0.00    -0.372 N
ATOM     16  H5  UNL     1      11.300  14.573  24.509  1.00  0.00     0.161 HD
BRANCH  15  17
HETATM   17  C9  UNL     1      13.067  14.266  23.687  1.00  0.00     0.132 C
BRANCH  17  18
HETATM   18  C10 UNL     1      13.572  13.053  24.484  1.00  0.00     0.104 C
HETATM   19 BR1  UNL     1      14.686  11.929  23.406  1.00  0.00    -0.095 Br
ENDBRANCH  17  18
ENDBRANCH  15  17
ENDBRANCH   9  15
BRANCH   8  20
HETATM   20  N4  UNL     1      14.383  16.590  25.204  1.00  0.00    -0.382 N
ATOM     21  H42 UNL     1      14.924  16.063  25.888  1.00  0.00     0.157 HD
ATOM     22  H41 UNL     1      14.774  16.890  24.312  1.00  0.00     0.157 HD
ENDBRANCH   8  20
BRANCH   1  23
HETATM   23  C4  UNL     1       7.913  19.992  27.073  1.00  0.00     0.133 C
BRANCH  23  24
HETATM   24  C3  UNL     1       7.819  20.545  28.461  1.00  0.00     0.020 C
BRANCH  24  25
HETATM   25  C2  UNL     1       7.170  19.454  29.326  1.00  0.00    -0.003 C
HETATM   26  C1  UNL     1       7.155  19.850  30.774  1.00  0.00     0.005 C
ENDBRANCH  24  25
ENDBRANCH  23  24
ENDBRANCH   1  23
TORSDOF 7
ENDMDL