MODEL 1
REMARK VINA RESULT: -6.603638135      0.000      0.000
REMARK  5 active torsions:
REMARK  status: ('A' for Active; 'I' for Inactive)
REMARK    1  A    between atoms: S1_2  and  N1_4
REMARK    2  A    between atoms: N1_4  and  C2_6
REMARK    3  A    between atoms: C2_6  and  C3_7
REMARK    4  A    between atoms: N4_14  and  C6_16
REMARK    5  A    between atoms: C6_16  and  C7_17
ROOT
HETATM    1  C3  UNL     1      12.836  17.867  26.756  1.00  0.00     0.073 A
HETATM    2  N2  UNL     1      13.610  18.736  27.377  1.00  0.00    -0.336 N
ATOM      3  H2  UNL     1      13.320  19.711  27.447  1.00  0.00     0.168 HD
HETATM    4  C4  UNL     1      14.737  18.361  27.899  1.00  0.00     0.156 A
HETATM    5  N3  UNL     1      15.777  18.931  28.593  1.00  0.00    -0.174 N
ATOM      6  H3  UNL     1      15.841  19.915  28.856  1.00  0.00     0.186 HD
HETATM    7  C5  UNL     1      16.696  17.992  28.870  1.00  0.00     0.680 A
HETATM    8  N4  UNL     1      17.802  18.246  29.527  1.00  0.00    -0.225 N
ATOM      9  H4  UNL     1      17.986  19.195  29.849  1.00  0.00     0.177 HD
HETATM   10  N5  UNL     1      16.290  16.815  28.377  1.00  0.00    -0.182 N
ATOM     11  H5  UNL     1      16.785  15.925  28.436  1.00  0.00     0.185 HD
HETATM   12  C8  UNL     1      15.089  17.043  27.781  1.00  0.00     0.136 A
HETATM   13  S2  UNL     1      13.750  16.425  26.915  1.00  0.00    -0.053 SA
ENDROOT
BRANCH   1  14
HETATM   14  C2  UNL     1      11.504  18.081  26.087  1.00  0.00     0.194 C
BRANCH  14  15
HETATM   15  N1  UNL     1      11.236  19.524  26.021  1.00  0.00    -0.335 N
ATOM     16  H1  UNL     1      11.655  20.187  25.368  1.00  0.00     0.170 HD
BRANCH  15  17
HETATM   17  S1  UNL     1      10.080  19.892  27.251  1.00  0.00     0.106 S
HETATM   18  C1  UNL     1       8.815  18.626  27.171  1.00  0.00     0.152 C
HETATM   19  O1  UNL     1      10.854  19.786  28.736  1.00  0.00    -0.236 OA
ENDBRANCH  15  17
ENDBRANCH  14  15
ENDBRANCH   1  14
BRANCH   8  20
HETATM   20  C6  UNL     1      18.766  17.202  29.804  1.00  0.00     0.149 C
BRANCH  20  21
HETATM   21  C7  UNL     1      18.628  16.859  31.274  1.00  0.00     0.105 C
HETATM   22 BR1  UNL     1      20.098  17.692  32.202  1.00  0.00    -0.095 Br
ENDBRANCH  20  21
ENDBRANCH   8  20
TORSDOF 5
ENDMDL