MODEL 3
REMARK VINA RESULT: -6.266312936      1.765      1.957
REMARK  7 active torsions:
REMARK  status: ('A' for Active; 'I' for Inactive)
REMARK    1  A    between atoms: C2_2  and  N1_3
REMARK       I    between atoms: N1_3  and  C3_4
REMARK    2  A    between atoms: C3_4  and  C4_6
REMARK    3  A    between atoms: C4_6  and  C5_7
REMARK    4  A    between atoms: C10_13  and  O3_14
REMARK    5  A    between atoms: C11_16  and  C12_17
REMARK    6  A    between atoms: C11_16  and  C14_19
REMARK    7  A    between atoms: C15_22  and  O5_23
ROOT
HETATM    1  C5  UNL     1      13.610  16.595  26.688  1.00  0.00     0.139 C
HETATM    2  O2  UNL     1      12.834  15.523  26.269  1.00  0.00    -0.369 OA
HETATM    3  C6  UNL     1      13.479  14.952  25.187  1.00  0.00     0.108 C
HETATM    4  C7  UNL     1      12.653  15.121  23.935  1.00  0.00     0.051 C
HETATM    5  C8  UNL     1      14.782  15.746  24.972  1.00  0.00     0.052 C
HETATM    6  C9  UNL     1      15.017  16.113  26.456  1.00  0.00     0.050 C
HETATM    7  C10 UNL     1      15.302  14.917  27.285  1.00  0.00     0.160 C
HETATM    8  C11 UNL     1      15.911  13.747  26.600  1.00  0.00     0.102 C
HETATM    9  O4  UNL     1      15.284  13.383  25.394  1.00  0.00    -0.344 OA
HETATM   10  C15 UNL     1      13.895  13.545  25.469  1.00  0.00     0.294 C
ENDROOT
BRANCH   1  11
HETATM   11  C4  UNL     1      13.270  17.172  27.990  1.00  0.00     0.151 C
BRANCH  11  12
HETATM   12  C3  UNL     1      12.741  18.571  27.731  1.00  0.00     0.288 C
HETATM   13  N1  UNL     1      11.650  18.695  26.891  1.00  0.00    -0.416 NA
HETATM   14  O1  UNL     1      13.340  19.486  28.307  1.00  0.00    -0.258 OA
BRANCH  13  15
HETATM   15  C2  UNL     1      10.583  18.816  26.071  1.00  0.00     0.217 C
HETATM   16  C1  UNL     1      10.050  17.451  25.625  1.00  0.00     0.041 C
ENDBRANCH  13  15
ENDBRANCH  11  12
ENDBRANCH   1  11
BRANCH   7  17
HETATM   17  O3  UNL     1      16.264  15.340  28.248  1.00  0.00    -0.392 OA
ATOM     18  H3  UNL     1      17.105  15.063  27.905  1.00  0.00     0.210 HD
ENDBRANCH   7  17
BRANCH  10  19
HETATM   19  O5  UNL     1      13.267  12.646  24.571  1.00  0.00    -0.363 OA
HETATM   20  C16 UNL     1      14.221  11.887  23.891  1.00  0.00     0.204 C
ENDBRANCH  10  19
BRANCH   8  21
HETATM   21  C12 UNL     1      15.823  12.537  27.497  1.00  0.00     0.037 C
HETATM   22  C13 UNL     1      17.106  11.876  27.830  1.00  0.00     0.008 C
ENDBRANCH   8  21
BRANCH   8  23
HETATM   23  C14 UNL     1      17.385  13.929  26.300  1.00  0.00     0.155 C
HETATM   24 CL1  UNL     1      17.587  13.494  24.563  1.00  0.00    -0.127 Cl
ENDBRANCH   8  23
TORSDOF 7
ENDMDL