MODEL 4
REMARK VINA RESULT: -7.167599105      4.388      7.301
REMARK  5 active torsions:
REMARK  status: ('A' for Active; 'I' for Inactive)
REMARK    1  A    between atoms: N5_12  and  C6_13
REMARK    2  A    between atoms: C6_13  and  C7_14
REMARK    3  A    between atoms: C7_14  and  C8_15
REMARK    4  A    between atoms: C8_15  and  C9_16
REMARK    5  A    between atoms: C9_16  and  C10_17
ROOT
HETATM    1  C1  UNL     1       8.251  17.353  26.054  1.00  0.00     0.063 C
HETATM    2  C2  UNL     1       8.569  18.717  26.645  1.00  0.00     0.102 C
HETATM    3  C3  UNL     1       8.185  19.788  25.624  1.00  0.00     0.063 C
HETATM    4  N1  UNL     1       7.720  18.904  27.801  1.00  0.00    -0.338 N
ATOM      5  H1  UNL     1       6.729  18.696  27.678  1.00  0.00     0.164 HD
HETATM    6  C4  UNL     1       8.079  19.300  28.956  1.00  0.00     0.192 C
HETATM    7  N2  UNL     1       7.143  19.456  30.043  1.00  0.00    -0.063 NA
HETATM    8  N3  UNL     1       9.473  19.547  29.168  1.00  0.00    -0.305 N
ATOM      9  H3  UNL     1       9.788  19.871  30.083  1.00  0.00     0.171 HD
HETATM   10  C5  UNL     1      10.339  19.370  28.234  1.00  0.00     0.194 C
HETATM   11  N4  UNL     1      11.706  19.641  28.514  1.00  0.00    -0.063 NA
HETATM   12  N5  UNL     1       9.976  18.854  26.927  1.00  0.00    -0.329 N
ENDROOT
BRANCH  12  13
HETATM   13  C6  UNL     1      11.046  18.505  26.050  1.00  0.00     0.128 C
BRANCH  13  14
HETATM   14  C7  UNL     1      11.368  17.067  25.900  1.00  0.00     0.020 C
BRANCH  14  15
HETATM   15  C8  UNL     1      12.847  16.957  25.499  1.00  0.00     0.007 C
BRANCH  15  16
HETATM   16  C9  UNL     1      13.584  16.151  26.546  1.00  0.00     0.057 C
BRANCH  16  17
HETATM   17  C10 UNL     1      14.470  17.035  27.343  1.00  0.00     0.010 A
HETATM   18  C11 UNL     1      15.662  16.694  27.925  1.00  0.00     0.045 A
HETATM   19  C12 UNL     1      16.188  17.809  28.588  1.00  0.00     0.028 A
HETATM   20 BR1  UNL     1      17.813  17.941  29.574  1.00  0.00    -0.050 Br
HETATM   21  C13 UNL     1      15.268  18.814  28.375  1.00  0.00     0.107 A
HETATM   22  N6  UNL     1      14.265  18.322  27.637  1.00  0.00    -0.368 N
ATOM     23  H6  UNL     1      13.452  18.859  27.337  1.00  0.00     0.165 HD
ENDBRANCH  16  17
ENDBRANCH  15  16
ENDBRANCH  14  15
ENDBRANCH  13  14
ENDBRANCH  12  13
TORSDOF 5
ENDMDL