MODEL 4
REMARK VINA RESULT: -7.285731678      4.130      7.851
REMARK  8 active torsions:
REMARK  status: ('A' for Active; 'I' for Inactive)
REMARK    1  A    between atoms: C2_2  and  N1_4
REMARK    2  A    between atoms: N1_4  and  C4_6
REMARK    3  A    between atoms: C6_10  and  C7_11
REMARK    4  A    between atoms: C7_11  and  C8_12
REMARK    5  A    between atoms: C8_12  and  N3_13
REMARK    6  A    between atoms: N3_13  and  C9_15
REMARK    7  A    between atoms: C11_22  and  N6_23
REMARK    8  A    between atoms: N6_23  and  C12_25
ROOT
HETATM    1  N3  UNL     1       7.488  19.430  23.289  1.00  0.00    -0.225 N
ATOM      2  H3  UNL     1       7.933  20.330  23.103  1.00  0.00     0.177 HD
ENDROOT
BRANCH   1   3
HETATM    3  C8  UNL     1       7.078  19.062  24.637  1.00  0.00     0.143 C
BRANCH   3   4
HETATM    4  C7  UNL     1       7.881  19.729  25.690  1.00  0.00     0.068 C
BRANCH   4   5
HETATM    5  C6  UNL     1       9.261  19.137  25.810  1.00  0.00     0.003 A
HETATM    6  C5  UNL     1      10.464  19.745  26.031  1.00  0.00     0.105 A
HETATM    7  N2  UNL     1      11.535  18.989  26.100  1.00  0.00    -0.346 N
HETATM    8  C4  UNL     1      11.393  17.673  25.952  1.00  0.00     0.145 A
ATOM      9  H2  UNL     1      12.455  19.400  26.264  1.00  0.00     0.167 HD
HETATM   10  S1  UNL     1       9.719  17.484  25.707  1.00  0.00    -0.057 SA
BRANCH   8  11
HETATM   11  N1  UNL     1      12.315  16.745  25.984  1.00  0.00    -0.367 N
ATOM     12  H1  UNL     1      12.450  16.242  26.861  1.00  0.00     0.162 HD
BRANCH  11  13
HETATM   13  C2  UNL     1      13.139  16.390  24.888  1.00  0.00     0.075 C
HETATM   14  C1  UNL     1      12.410  15.469  23.945  1.00  0.00     0.032 C
HETATM   15  C3  UNL     1      14.478  15.820  25.273  1.00  0.00     0.032 C
ENDBRANCH  11  13
ENDBRANCH   8  11
ENDBRANCH   4   5
ENDBRANCH   3   4
ENDBRANCH   1   3
BRANCH   1  16
HETATM   16  C9  UNL     1       7.273  18.587  22.336  1.00  0.00     0.695 A
HETATM   17  N4  UNL     1       7.904  18.641  21.150  1.00  0.00    -0.165 N
HETATM   18  C10 UNL     1       7.666  17.752  20.171  1.00  0.00     0.208 A
ATOM     19  H4  UNL     1       8.585  19.383  20.987  1.00  0.00     0.186 HD
HETATM   20 CL1  UNL     1       8.479  17.815  18.627  1.00  0.00    -0.044 Cl
HETATM   21  N5  UNL     1       6.755  16.780  20.419  1.00  0.00    -0.164 N
HETATM   22  C11 UNL     1       6.111  16.700  21.590  1.00  0.00     0.701 A
ATOM     23  H5  UNL     1       6.554  16.092  19.695  1.00  0.00     0.186 HD
HETATM   24  N7  UNL     1       6.370  17.602  22.547  1.00  0.00    -0.022 N
ATOM     25  H7  UNL     1       5.881  17.546  23.441  1.00  0.00     0.203 HD
BRANCH  22  26
HETATM   26  N6  UNL     1       5.257  15.785  21.816  1.00  0.00    -0.167 N
ATOM     27  H6  UNL     1       5.063  15.117  21.070  1.00  0.00     0.186 HD
BRANCH  26  28
HETATM   28  C12 UNL     1       4.557  15.637  23.043  1.00  0.00     0.368 C
HETATM   29  O1  UNL     1       3.652  14.792  23.237  1.00  0.00    -0.283 OA
ENDBRANCH  26  28
ENDBRANCH  22  26
ENDBRANCH   1  16
TORSDOF 8
ENDMDL