MODEL 5
REMARK VINA RESULT: -4.981310083      2.397      3.876
REMARK  4 active torsions:
REMARK  status: ('A' for Active; 'I' for Inactive)
REMARK    1  A    between atoms: N1_1  and  N2_4
REMARK    2  A    between atoms: N2_4  and  N3_5
REMARK    3  A    between atoms: N3_5  and  C1_7
REMARK    4  A    between atoms: C9_15  and  O1_16
ROOT
HETATM    1  C1  UNL     1      25.298 -11.775   7.198  1.00  0.00     0.167 C
HETATM    2  C2  UNL     1      24.978 -10.970   5.974  1.00  0.00     0.064 C
HETATM    3  C3  UNL     1      25.368 -11.647   4.690  1.00  0.00     0.005 C
HETATM    4  C4  UNL     1      26.815 -12.026   4.620  1.00  0.00     0.001 C
HETATM    5  C5  UNL     1      27.360 -12.294   6.023  1.00  0.00     0.009 C
HETATM    6  C6  UNL     1      26.188 -12.925   6.769  1.00  0.00     0.044 C
HETATM    7  C7  UNL     1      26.620 -13.794   7.898  1.00  0.00     0.014 C
HETATM    8  C8  UNL     1      25.402 -14.038   8.788  1.00  0.00     0.061 C
HETATM    9  C9  UNL     1      24.135 -13.573   8.074  1.00  0.00     0.260 C
HETATM   10  O2  UNL     1      24.167 -12.211   7.847  1.00  0.00    -0.329 OA
ENDROOT
BRANCH   1  11
HETATM   11  N3  UNL     1      26.118 -10.915   8.063  1.00  0.00    -0.216 N
ATOM     12  H3  UNL     1      26.461 -11.263   8.958  1.00  0.00     0.200 HD
BRANCH  11  13
HETATM   13  N2  UNL     1      26.390  -9.757   7.693  1.00  0.00    -0.246 NA
BRANCH  13  14
HETATM   14  N1  UNL     1      26.993  -8.686   7.524  1.00  0.00    -0.261 N
ATOM     15  H12 UNL     1      26.426  -8.147   8.177  1.00  0.00     0.193 HD
ATOM     16  H11 UNL     1      27.660  -7.994   7.181  1.00  0.00     0.193 HD
ENDBRANCH  13  14
ENDBRANCH  11  13
ENDBRANCH   1  11
BRANCH   9  17
HETATM   17  O1  UNL     1      23.083 -13.811   8.983  1.00  0.00    -0.371 OA
ATOM     18  H1  UNL     1      22.823 -14.714   8.837  1.00  0.00     0.212 HD
ENDBRANCH   9  17
TORSDOF 4
ENDMDL