MODEL 5
REMARK VINA RESULT: -5.905933461      1.369      6.648
REMARK  3 active torsions:
REMARK  status: ('A' for Active; 'I' for Inactive)
REMARK    1  A    between atoms: C2_2  and  N1_4
REMARK       I    between atoms: N1_4  and  C4_6
REMARK    2  A    between atoms: C4_6  and  O2_8
REMARK    3  A    between atoms: O2_8  and  N2_9
ROOT
HETATM    1  O2  UNL     1      23.242 -11.649   6.562  1.00  0.00    -0.181 OA
ENDROOT
BRANCH   1   2
HETATM    2  C4  UNL     1      24.444 -12.198   7.039  1.00  0.00     0.382 C
HETATM    3  N1  UNL     1      24.469 -13.350   7.861  1.00  0.00    -0.332 N
ATOM      4  H1  UNL     1      23.595 -13.806   8.123  1.00  0.00     0.165 HD
HETATM    5  O1  UNL     1      25.487 -11.589   6.680  1.00  0.00    -0.236 OA
BRANCH   3   6
HETATM    6  C2  UNL     1      25.707 -13.874   8.324  1.00  0.00     0.078 C
HETATM    7  C1  UNL     1      26.080 -13.394   9.712  1.00  0.00     0.032 C
HETATM    8  C3  UNL     1      25.588 -15.399   8.429  1.00  0.00     0.032 C
ENDBRANCH   3   6
ENDBRANCH   1   2
BRANCH   1   9
HETATM    9  N2  UNL     1      23.209 -10.803   5.512  1.00  0.00    -0.264 N
HETATM   10  C5  UNL     1      22.250  -9.995   5.235  1.00  0.00     0.010 C
HETATM   11  C6  UNL     1      22.272  -9.095   4.073  1.00  0.00     0.054 C
HETATM   12  C10 UNL     1      21.070  -9.969   6.124  1.00  0.00     0.054 C
HETATM   13  C7  UNL     1      21.369  -7.891   4.258  1.00  0.00     0.006 C
HETATM   14  C8  UNL     1      19.983  -8.251   4.675  1.00  0.00     0.001 C
HETATM   15  C9  UNL     1      19.854  -9.600   5.307  1.00  0.00     0.006 C
ATOM     16  H2  UNL     1      24.014 -10.805   4.885  1.00  0.00     0.194 HD
ENDBRANCH   1   9
TORSDOF 3
ENDMDL