MODEL 1
REMARK VINA RESULT: -5.211702070      0.000      0.000
REMARK  3 active torsions:
REMARK  status: ('A' for Active; 'I' for Inactive)
REMARK       I    between atoms: C2_2  and  N1_4
REMARK    1  A    between atoms: N1_4  and  C3_6
REMARK    2  A    between atoms: C3_6  and  S2_8
REMARK    3  A    between atoms: S2_8  and  C4_9
ROOT
HETATM    1  C3  UNL     1      25.265 -11.030   5.511  1.00  0.00     0.141 C
HETATM    2  S1  UNL     1      25.807 -11.873   4.239  1.00  0.00    -0.052 SA
ENDROOT
BRANCH   1   3
HETATM    3  N1  UNL     1      24.221 -10.082   5.342  1.00  0.00    -0.313 N
HETATM    4  C2  UNL     1      22.911 -10.348   5.781  1.00  0.00     0.219 C
HETATM    5  C1  UNL     1      21.840  -9.308   5.577  1.00  0.00     0.117 C
HETATM    6  O1  UNL     1      22.637 -11.434   6.333  1.00  0.00    -0.274 OA
ATOM      7  H1  UNL     1      24.426  -9.189   4.893  1.00  0.00     0.170 HD
ENDBRANCH   1   3
BRANCH   1   8
HETATM    8  S2  UNL     1      25.986 -11.300   7.118  1.00  0.00    -0.096 SA
BRANCH   8   9
HETATM    9  C4  UNL     1      25.732 -13.002   7.603  1.00  0.00     0.054 C
HETATM   10  C5  UNL     1      27.066 -13.735   7.716  1.00  0.00     0.015 C
HETATM   11  C6  UNL     1      26.632 -14.933   8.570  1.00  0.00     0.001 C
HETATM   12  C7  UNL     1      25.943 -14.200   9.702  1.00  0.00     0.001 C
HETATM   13  C8  UNL     1      25.126 -13.152   8.979  1.00  0.00     0.015 C
ENDBRANCH   8   9
ENDBRANCH   1   8
TORSDOF 3
ENDMDL