MODEL 3
REMARK VINA RESULT: -5.120211316      3.776      5.594
REMARK  1 active torsions:
REMARK  status: ('A' for Active; 'I' for Inactive)
REMARK    1  A    between atoms: C2_3  and  N2_4
ROOT
HETATM    1  N1  UNL     1      22.540 -11.057   6.337  1.00  0.00    -0.105 NA
HETATM    2  C1  UNL     1      23.867 -11.337   5.833  1.00  0.00     0.053 C
HETATM    3  C2  UNL     1      24.637 -12.226   6.459  1.00  0.00     0.100 C
HETATM    4  C3  UNL     1      25.994 -12.611   6.069  1.00  0.00     0.065 C
HETATM    5  C4  UNL     1      27.063 -11.664   6.552  1.00  0.00     0.006 C
HETATM    6  C5  UNL     1      27.969 -11.224   5.424  1.00  0.00     0.000 C
HETATM    7  C6  UNL     1      28.387  -9.789   5.531  1.00  0.00     0.000 C
HETATM    8  C7  UNL     1      27.259  -8.819   5.491  1.00  0.00     0.000 C
HETATM    9  C8  UNL     1      26.292  -9.032   4.367  1.00  0.00     0.000 C
HETATM   10  C9  UNL     1      24.925  -9.257   4.963  1.00  0.00     0.006 C
HETATM   11  C10 UNL     1      24.369 -10.633   4.621  1.00  0.00     0.056 C
ENDROOT
BRANCH   3  12
HETATM   12  N2  UNL     1      24.049 -12.847   7.623  1.00  0.00    -0.118 N
HETATM   13  O1  UNL     1      23.133 -13.662   7.552  1.00  0.00    -0.532 OA
HETATM   14  O2  UNL     1      24.598 -12.455   8.836  1.00  0.00    -0.532 OA
ENDBRANCH   3  12
TORSDOF 1
ENDMDL