MODEL 1
REMARK VINA RESULT: -6.093133468      0.000      0.000
REMARK  2 active torsions:
REMARK  status: ('A' for Active; 'I' for Inactive)
REMARK    1  A    between atoms: C2_2  and  N1_5
REMARK    2  A    between atoms: N1_5  and  N2_7
ROOT
HETATM    1  N2  UNL     1      24.132 -11.442   6.306  1.00  0.00    -0.287 N
ATOM      2  H2  UNL     1      23.117 -11.343   6.272  1.00  0.00     0.188 HD
HETATM    3  C5  UNL     1      24.671 -12.279   7.118  1.00  0.00     0.132 C
HETATM    4  C6  UNL     1      26.129 -12.283   7.024  1.00  0.00     0.085 C
HETATM    5  C7  UNL     1      26.773 -13.540   7.561  1.00  0.00     0.008 C
HETATM    6  C8  UNL     1      26.650 -13.697   9.031  1.00  0.00     0.001 C
HETATM    7  C9  UNL     1      25.816 -14.860   9.473  1.00  0.00     0.002 C
HETATM    8  C10 UNL     1      24.481 -14.948   8.796  1.00  0.00     0.027 C
HETATM    9  C11 UNL     1      23.668 -13.677   9.061  1.00  0.00     0.177 C
HETATM   10  O1  UNL     1      23.694 -12.935   7.848  1.00  0.00    -0.338 OA
ENDROOT
BRANCH   1  11
HETATM   11  N1  UNL     1      24.935 -10.673   5.473  1.00  0.00    -0.326 N
ATOM     12  H1  UNL     1      25.735 -10.155   5.836  1.00  0.00     0.181 HD
BRANCH  11  13
HETATM   13  C2  UNL     1      24.584 -10.640   4.049  1.00  0.00     0.035 C
HETATM   14  C1  UNL     1      23.094 -10.443   3.918  1.00  0.00     0.039 C
HETATM   15  C3  UNL     1      25.359  -9.509   3.434  1.00  0.00     0.039 C
HETATM   16  C4  UNL     1      24.985 -11.930   3.366  1.00  0.00     0.039 C
ENDBRANCH  11  13
ENDBRANCH   1  11
TORSDOF 2
ENDMDL