MODEL 4
REMARK VINA RESULT: -4.745833938      7.539      9.110
REMARK  1 active torsions:
REMARK  status: ('A' for Active; 'I' for Inactive)
REMARK    1  A    between atoms: N1_2  and  C1_4
ROOT
HETATM    1  C1  UNL     1      27.862  -7.233   7.048  1.00  0.00     0.155 C
HETATM    2  C2  UNL     1      29.132  -6.438   6.987  1.00  0.00     0.032 C
HETATM    3  C3  UNL     1      30.132  -6.811   8.030  1.00  0.00     0.002 C
HETATM    4  C4  UNL     1      31.481  -7.174   7.430  1.00  0.00     0.000 C
HETATM    5  C5  UNL     1      31.933  -8.552   7.817  1.00  0.00     0.000 C
HETATM    6  C6  UNL     1      32.494  -9.328   6.648  1.00  0.00     0.000 C
HETATM    7  C7  UNL     1      31.553 -10.351   6.105  1.00  0.00     0.000 C
HETATM    8  C8  UNL     1      30.699  -9.862   4.972  1.00  0.00     0.000 C
HETATM    9  C9  UNL     1      29.257 -10.230   5.229  1.00  0.00     0.000 C
HETATM   10  C10 UNL     1      28.377  -9.014   5.360  1.00  0.00     0.002 C
HETATM   11  C11 UNL     1      28.063  -8.701   6.793  1.00  0.00     0.032 C
ENDROOT
BRANCH   1  12
HETATM   12  N1  UNL     1      27.179  -7.080   8.297  1.00  0.00    -0.151 N
HETATM   13  O1  UNL     1      26.965  -8.053   9.030  1.00  0.00    -0.536 OA
HETATM   14  O2  UNL     1      26.753  -5.846   8.700  1.00  0.00    -0.536 OA
ENDBRANCH   1  12
TORSDOF 1
ENDMDL