MODEL 3
REMARK VINA RESULT: -4.400388037      4.895      7.034
REMARK  1 active torsions:
REMARK  status: ('A' for Active; 'I' for Inactive)
REMARK    1  A    between atoms: C2_2  and  C5_5
ROOT
HETATM    1  C5  UNL     1      21.864  -8.325   3.938  1.00  0.00     0.098 C
HETATM    2  C6  UNL     1      22.850  -9.408   3.593  1.00  0.00     0.020 C
HETATM    3  C7  UNL     1      22.642 -10.249   4.909  1.00  0.00     0.027 C
HETATM    4  C8  UNL     1      21.185  -9.821   5.402  1.00  0.00     0.126 C
HETATM    5  N1  UNL     1      20.825  -9.365   4.127  1.00  0.00    -0.356 N
HETATM    6  C9  UNL     1      20.029  -9.695   3.052  1.00  0.00     0.136 C
HETATM    7  N2  UNL     1      18.805  -9.758   2.962  1.00  0.00    -0.380 N
ATOM      8  H21 UNL     1      18.216 -10.002   2.166  1.00  0.00     0.158 HD
ATOM      9  H22 UNL     1      18.262  -9.513   3.791  1.00  0.00     0.158 HD
HETATM   10  S1  UNL     1      21.033 -10.148   1.519  1.00  0.00    -0.094 SA
HETATM   11  C10 UNL     1      22.666 -10.222   2.399  1.00  0.00     0.089 C
ENDROOT
BRANCH   1  12
HETATM   12  C2  UNL     1      21.644  -7.124   3.275  1.00  0.00    -0.030 C
HETATM   13  C1  UNL     1      22.632  -6.070   3.848  1.00  0.00     0.016 C
HETATM   14  C3  UNL     1      20.289  -6.532   3.799  1.00  0.00     0.016 C
HETATM   15  C4  UNL     1      21.596  -6.842   1.836  1.00  0.00     0.016 C
ENDBRANCH   1  12
TORSDOF 1
ENDMDL