MODEL 5
REMARK VINA RESULT: -5.426633145      2.197      3.101
REMARK  2 active torsions:
REMARK  status: ('A' for Active; 'I' for Inactive)
REMARK    1  A    between atoms: N1_6  and  O1_8
REMARK    2  A    between atoms: C8_12  and  C9_13
ROOT
HETATM    1  C9  UNL     1      23.452  -9.994   4.827  1.00  0.00     0.129 C
HETATM    2  C10 UNL     1      23.560 -11.011   5.864  1.00  0.00     0.059 C
HETATM    3  N2  UNL     1      23.645 -11.801   6.705  1.00  0.00    -0.197 NA
ENDROOT
BRANCH   1   4
HETATM    4  C8  UNL     1      22.330 -10.246   3.853  1.00  0.00     0.013 C
HETATM    5  C6  UNL     1      21.323  -9.175   3.719  1.00  0.00     0.008 C
HETATM    6  C2  UNL     1      21.215  -8.856   2.257  1.00  0.00    -0.031 C
HETATM    7  C5  UNL     1      20.008  -9.753   4.090  1.00  0.00     0.019 C
HETATM    8  C7  UNL     1      21.512  -7.954   4.573  1.00  0.00     0.023 C
HETATM    9  C1  UNL     1      21.841  -7.579   1.829  1.00  0.00     0.016 C
HETATM   10  C3  UNL     1      19.733  -8.816   1.974  1.00  0.00     0.016 C
HETATM   11  C12 UNL     1      21.874 -10.000   1.538  1.00  0.00     0.011 C
HETATM   12  C4  UNL     1      19.240  -9.961   2.860  1.00  0.00     0.056 C
HETATM   13  C11 UNL     1      22.870 -10.579   2.477  1.00  0.00     0.007 C
HETATM   14  N1  UNL     1      19.639 -10.011   5.281  1.00  0.00    -0.277 N
ATOM     15  H1  UNL     1      20.303  -9.803   6.027  1.00  0.00     0.193 HD
BRANCH  14  16
HETATM   16  O1  UNL     1      18.447 -10.537   5.650  1.00  0.00    -0.290 OA
ATOM     17  H1  UNL     1      17.602 -10.329   5.269  1.00  0.00     0.244 HD
ENDBRANCH  14  16
ENDBRANCH   1   4
TORSDOF 2
ENDMDL