MODEL 4
REMARK VINA RESULT: -5.470095708      2.982      4.859
REMARK  2 active torsions:
REMARK  status: ('A' for Active; 'I' for Inactive)
REMARK    1  A    between atoms: N1_5  and  O2_7
REMARK    2  A    between atoms: C6_11  and  C7_12
ROOT
HETATM    1  O1  UNL     1      22.838 -11.298   6.390  1.00  0.00    -0.297 OA
HETATM    2  C1  UNL     1      23.927 -11.868   6.526  1.00  0.00     0.136 C
HETATM    3  C2  UNL     1      23.940 -13.072   7.393  1.00  0.00     0.133 C
HETATM    4  C3  UNL     1      25.256 -13.063   8.120  1.00  0.00     0.017 C
HETATM    5  N1  UNL     1      25.259 -13.237   9.380  1.00  0.00    -0.277 N
ATOM      6  H1  UNL     1      24.368 -13.376   9.856  1.00  0.00     0.193 HD
HETATM    7  C4  UNL     1      26.458 -12.849   7.289  1.00  0.00     0.056 C
HETATM    8  C5  UNL     1      26.394 -11.517   6.563  1.00  0.00     0.018 C
HETATM    9  C6  UNL     1      25.100 -11.320   5.832  1.00  0.00     0.060 C
ENDROOT
BRANCH   9  10
HETATM   10  C7  UNL     1      25.224 -11.965   4.472  1.00  0.00    -0.003 C
HETATM   11  C8  UNL     1      26.552 -11.664   3.844  1.00  0.00     0.005 C
HETATM   12  C9  UNL     1      26.313 -11.379   2.384  1.00  0.00     0.000 C
HETATM   13  C10 UNL     1      24.884 -11.886   2.160  1.00  0.00     0.000 C
HETATM   14  C11 UNL     1      24.239 -11.443   3.480  1.00  0.00     0.005 C
ENDBRANCH   9  10
BRANCH   5  15
HETATM   15  O2  UNL     1      26.400 -13.246  10.121  1.00  0.00    -0.290 OA
ATOM     16  H2  UNL     1      27.096 -13.879   9.989  1.00  0.00     0.244 HD
ENDBRANCH   5  15
TORSDOF 2
ENDMDL