MODEL 4
REMARK VINA RESULT: -5.474246057      1.999      2.929
REMARK  2 active torsions:
REMARK  status: ('A' for Active; 'I' for Inactive)
REMARK    1  A    between atoms: C6_7  and  C7_8
REMARK    2  A    between atoms: N2_14  and  N3_16
ROOT
HETATM    1  C7  UNL     1      24.759 -12.561   7.154  1.00  0.00     0.057 C
HETATM    2  C8  UNL     1      23.700 -13.529   7.533  1.00  0.00     0.014 C
HETATM    3  C9  UNL     1      24.023 -14.069   8.943  1.00  0.00     0.001 C
HETATM    4  C10 UNL     1      25.338 -14.835   8.884  1.00  0.00     0.006 C
HETATM    5  C11 UNL     1      26.411 -13.781   8.701  1.00  0.00     0.054 C
HETATM    6  C12 UNL     1      26.136 -13.107   7.409  1.00  0.00     0.011 C
HETATM    7  N2  UNL     1      27.075 -13.003   6.534  1.00  0.00    -0.315 N
ATOM      8  H2  UNL     1      26.888 -12.539   5.645  1.00  0.00     0.185 HD
ENDROOT
BRANCH   1   9
HETATM    9  C6  UNL     1      24.720 -11.984   5.827  1.00  0.00     0.008 C
HETATM   10  C5  UNL     1      23.853 -11.142   5.307  1.00  0.00     0.003 C
HETATM   11  N1  UNL     1      23.923 -10.635   3.959  1.00  0.00    -0.389 N
HETATM   12  C4  UNL     1      22.645 -10.505   5.881  1.00  0.00     0.058 C
HETATM   13  C1  UNL     1      25.148 -10.625   3.160  1.00  0.00     0.149 C
HETATM   14  C2  UNL     1      22.597 -10.161   3.574  1.00  0.00     0.122 C
HETATM   15  C3  UNL     1      22.177  -9.493   4.863  1.00  0.00     0.026 C
ENDBRANCH   1   9
BRANCH   7  16
HETATM   16  N3  UNL     1      28.346 -13.519   6.791  1.00  0.00    -0.345 N
ATOM     17  H32 UNL     1      28.613 -13.704   7.758  1.00  0.00     0.176 HD
ATOM     18  H31 UNL     1      28.995 -13.705   6.026  1.00  0.00     0.176 HD
ENDBRANCH   7  16
TORSDOF 2
ENDMDL