MODEL 5
REMARK VINA RESULT: -7.178926751      1.364      1.850
REMARK  5 active torsions:
REMARK  status: ('A' for Active; 'I' for Inactive)
REMARK    1  A    between atoms: C2_2  and  C3_3
REMARK    2  A    between atoms: C3_3  and  C4_4
REMARK    3  A    between atoms: C7_7  and  N1_8
REMARK    4  A    between atoms: C10_11  and  C11_12
REMARK    5  A    between atoms: C12_15  and  C13_16
ROOT
HETATM    1  C11 UNL     1      29.535  58.315  -0.213  1.00  0.00     0.085 A
HETATM    2  N2  UNL     1      29.446  58.631  -1.514  1.00  0.00    -0.344 N
ATOM      3  H2  UNL     1      28.973  59.461  -1.871  1.00  0.00     0.167 HD
HETATM    4  C12 UNL     1      30.057  57.723  -2.286  1.00  0.00     0.061 A
HETATM    5  C19 UNL     1      30.562  56.775  -1.416  1.00  0.00     0.119 A
HETATM    6  N4  UNL     1      30.229  57.162  -0.167  1.00  0.00    -0.353 N
ATOM      7  H4  UNL     1      30.468  56.656   0.686  1.00  0.00     0.166 HD
ENDROOT
BRANCH   1   8
HETATM    8  C10 UNL     1      29.012  59.030   0.972  1.00  0.00     0.057 C
HETATM    9  C9  UNL     1      30.078  59.309   2.016  1.00  0.00     0.042 C
HETATM   10  C8  UNL     1      29.472  60.116   3.100  1.00  0.00     0.273 C
HETATM   11  N1  UNL     1      28.089  60.229   3.158  1.00  0.00     0.093 N
HETATM   12  C21 UNL     1      27.270  59.202   2.632  1.00  0.00     0.273 C
HETATM   13  C20 UNL     1      27.957  58.232   1.712  1.00  0.00     0.042 C
BRANCH  11  14
HETATM   14  C7  UNL     1      27.587  60.529   4.512  1.00  0.00     0.223 C
HETATM   15  C6  UNL     1      28.275  59.656   5.465  1.00  0.00     0.036 C
HETATM   16  C5  UNL     1      27.394  58.755   6.288  1.00  0.00     0.007 C
HETATM   17  C4  UNL     1      26.134  59.518   6.680  1.00  0.00    -0.014 C
HETATM   18  C23 UNL     1      25.364  59.669   5.396  1.00  0.00     0.007 C
HETATM   19  C22 UNL     1      26.121  60.553   4.472  1.00  0.00     0.036 C
BRANCH  17  20
HETATM   20  C3  UNL     1      25.403  58.717   7.720  1.00  0.00     0.004 C
BRANCH  20  21
HETATM   21  C2  UNL     1      26.040  57.359   7.946  1.00  0.00    -0.004 C
HETATM   22  C1  UNL     1      24.939  56.319   7.703  1.00  0.00     0.005 C
ENDBRANCH  20  21
ENDBRANCH  17  20
ENDBRANCH  11  14
ENDBRANCH   1   8
BRANCH   4  23
HETATM   23  C13 UNL     1      30.188  57.701  -3.755  1.00  0.00     0.024 A
HETATM   24  C14 UNL     1      31.286  58.234  -4.402  1.00  0.00    -0.032 A
HETATM   25  C15 UNL     1      32.344  58.839  -3.554  1.00  0.00     0.050 C
HETATM   26  C16 UNL     1      31.372  58.192  -5.787  1.00  0.00     0.097 A
HETATM   27  N3  UNL     1      30.374  57.625  -6.499  1.00  0.00    -0.355 N
HETATM   28  C17 UNL     1      29.285  57.093  -5.914  1.00  0.00     0.126 A
ATOM     29  H3  UNL     1      30.448  57.599  -7.517  1.00  0.00     0.166 HD
HETATM   30 CL1  UNL     1      27.999  56.359  -6.885  1.00  0.00    -0.063 Cl
HETATM   31  C18 UNL     1      29.204  57.138  -4.540  1.00  0.00     0.085 A
HETATM   32 CL2  UNL     1      27.798  56.453  -3.736  1.00  0.00    -0.080 Cl
ENDBRANCH   4  23
TORSDOF 5
ENDMDL