MODEL 5
REMARK VINA RESULT: -6.967479334      1.826      2.528
REMARK  5 active torsions:
REMARK  status: ('A' for Active; 'I' for Inactive)
REMARK    1  A    between atoms: O1_2  and  C2_3
REMARK    2  A    between atoms: C9_12  and  O2_13
REMARK    3  A    between atoms: O2_13  and  C10_14
REMARK    4  A    between atoms: N2_22  and  C18_23
REMARK    5  A    between atoms: C18_23  and  C19_24
ROOT
HETATM    1  C2  UNL     1      30.479  58.801  -1.226  1.00  0.00     0.102 A
HETATM    2  C3  UNL     1      30.655  58.829   0.136  1.00  0.00     0.054 A
HETATM    3  C4  UNL     1      29.819  59.631   0.900  1.00  0.00     0.002 A
HETATM    4  C5  UNL     1      29.713  59.894   2.237  1.00  0.00    -0.019 A
HETATM    5  C6  UNL     1      28.675  60.801   2.488  1.00  0.00     0.050 A
HETATM    6  N1  UNL     1      28.155  61.085   1.293  1.00  0.00    -0.357 N
ATOM      7  H1  UNL     1      27.375  61.722   1.130  1.00  0.00     0.166 HD
HETATM    8  C7  UNL     1      28.818  60.400   0.327  1.00  0.00     0.046 A
HETATM    9  C8  UNL     1      28.690  60.329  -1.060  1.00  0.00     0.070 A
HETATM   10  C9  UNL     1      29.494  59.549  -1.855  1.00  0.00     0.104 A
HETATM   11  C16 UNL     1      28.499  61.153   3.901  1.00  0.00     0.269 C
HETATM   12  C17 UNL     1      27.299  62.073   4.088  1.00  0.00     0.049 C
HETATM   13  N2  UNL     1      28.373  60.001   4.796  1.00  0.00     0.103 N
HETATM   14  C25 UNL     1      29.314  58.955   4.395  1.00  0.00     0.278 C
HETATM   15  C26 UNL     1      30.410  59.446   3.472  1.00  0.00     0.072 C
ENDROOT
BRANCH  13  16
HETATM   16  C18 UNL     1      28.785  60.487   6.087  1.00  0.00     0.318 C
BRANCH  16  17
HETATM   17  C19 UNL     1      27.884  60.245   7.221  1.00  0.00     0.047 A
HETATM   18  C20 UNL     1      27.516  61.409   7.928  1.00  0.00     0.127 A
HETATM   19  F1  UNL     1      28.031  62.632   7.561  1.00  0.00    -0.205 F
HETATM   20  C21 UNL     1      26.657  61.378   8.984  1.00  0.00     0.043 A
HETATM   21  C22 UNL     1      26.134  60.173   9.367  1.00  0.00     0.006 A
HETATM   22  C23 UNL     1      26.475  59.031   8.696  1.00  0.00     0.043 A
HETATM   23  C24 UNL     1      27.354  59.059   7.614  1.00  0.00     0.127 A
HETATM   24  F2  UNL     1      27.610  57.889   6.968  1.00  0.00    -0.205 F
ENDBRANCH  16  17
ENDBRANCH  13  16
BRANCH   1  25
HETATM   25  O1  UNL     1      31.311  57.997  -2.027  1.00  0.00    -0.353 OA
HETATM   26  C1  UNL     1      31.354  56.608  -1.917  1.00  0.00     0.210 C
ENDBRANCH   1  25
BRANCH  10  27
HETATM   27  O2  UNL     1      29.382  59.470  -3.214  1.00  0.00    -0.343 OA
BRANCH  27  28
HETATM   28  C10 UNL     1      28.574  58.654  -3.987  1.00  0.00     0.129 C
HETATM   29  C11 UNL     1      27.748  57.681  -3.195  1.00  0.00     0.032 C
HETATM   30  C12 UNL     1      28.036  56.234  -3.512  1.00  0.00     0.002 C
HETATM   31  C13 UNL     1      27.985  55.939  -4.993  1.00  0.00     0.000 C
HETATM   32  C14 UNL     1      28.756  56.940  -5.805  1.00  0.00     0.002 C
HETATM   33  C15 UNL     1      29.524  57.911  -4.941  1.00  0.00     0.032 C
ENDBRANCH  27  28
ENDBRANCH  10  27
TORSDOF 5
ENDMDL