MODEL 1
REMARK VINA RESULT: -6.688238253      0.000      0.000
REMARK  6 active torsions:
REMARK  status: ('A' for Active; 'I' for Inactive)
REMARK    1  A    between atoms: O1_2  and  C2_3
REMARK    2  A    between atoms: C17_18  and  O2_19
REMARK    3  A    between atoms: C17_18  and  C18_21
REMARK    4  A    between atoms: C19_22  and  C20_23
REMARK    5  A    between atoms: C20_23  and  C21_24
REMARK    6  A    between atoms: C21_24  and  C22_25
ROOT
HETATM    1  C2  UNL     1      27.586  62.371   7.376  1.00  0.00     0.259 C
HETATM    2  C3  UNL     1      27.187  61.593   8.628  1.00  0.00     0.061 C
HETATM    3  C4  UNL     1      25.917  60.794   8.402  1.00  0.00     0.015 C
HETATM    4  C5  UNL     1      26.187  59.493   7.785  1.00  0.00    -0.032 A
HETATM    5  C6  UNL     1      27.370  58.657   8.075  1.00  0.00     0.011 A
HETATM    6  C7  UNL     1      26.523  57.392   7.938  1.00  0.00     0.006 A
HETATM    7  C8  UNL     1      25.337  58.316   7.783  1.00  0.00    -0.001 A
HETATM    8  C9  UNL     1      25.240  59.220   6.677  1.00  0.00    -0.001 A
HETATM    9  C10 UNL     1      26.033  59.137   5.390  1.00  0.00     0.007 C
HETATM   10  C11 UNL     1      25.918  60.384   4.625  1.00  0.00     0.015 C
HETATM   11  C12 UNL     1      27.085  61.049   4.073  1.00  0.00     0.017 C
HETATM   12  C13 UNL     1      26.625  61.862   2.852  1.00  0.00     0.021 C
HETATM   13  C14 UNL     1      27.575  62.141   5.059  1.00  0.00     0.136 C
HETATM   14  C15 UNL     1      28.927  62.526   4.471  1.00  0.00     0.036 C
HETATM   15  C16 UNL     1      29.200  61.571   3.328  1.00  0.00     0.045 C
HETATM   16  C17 UNL     1      28.337  60.377   3.801  1.00  0.00     0.085 C
HETATM   17  O3  UNL     1      27.665  61.547   6.271  1.00  0.00    -0.355 OA
ENDROOT
BRANCH  16  18
HETATM   18  O2  UNL     1      29.050  60.007   4.969  1.00  0.00    -0.385 OA
ATOM     19  H2  UNL     1      29.987  59.923   4.833  1.00  0.00     0.211 HD
ENDBRANCH  16  18
BRANCH  16  20
HETATM   20  C18 UNL     1      28.457  59.333   2.829  1.00  0.00     0.007 C
HETATM   21  C19 UNL     1      29.167  59.294   1.722  1.00  0.00    -0.027 C
BRANCH  21  22
HETATM   22  C20 UNL     1      29.178  58.114   0.813  1.00  0.00     0.030 C
BRANCH  22  23
HETATM   23  C21 UNL     1      28.616  58.503  -0.546  1.00  0.00     0.045 C
BRANCH  23  24
HETATM   24  C22 UNL     1      29.405  57.895  -1.671  1.00  0.00     0.110 C
HETATM   25  C23 UNL     1      30.288  58.935  -2.332  1.00  0.00     0.050 C
HETATM   26 CL1  UNL     1      28.382  57.127  -2.885  1.00  0.00    -0.102 Cl
HETATM   27 CL2  UNL     1      30.474  56.652  -0.936  1.00  0.00    -0.102 Cl
ENDBRANCH  23  24
ENDBRANCH  22  23
ENDBRANCH  21  22
ENDBRANCH  16  20
BRANCH   1  28
HETATM   28  O1  UNL     1      26.772  63.475   7.201  1.00  0.00    -0.366 OA
HETATM   29  C1  UNL     1      27.012  64.392   8.220  1.00  0.00     0.204 C
ENDBRANCH   1  28
TORSDOF 6
ENDMDL