MODEL 4
REMARK VINA RESULT: -6.847994426      3.440      6.071
REMARK  5 active torsions:
REMARK  status: ('A' for Active; 'I' for Inactive)
REMARK    1  A    between atoms: C5_6  and  C6_7
REMARK    2  A    between atoms: C6_7  and  C7_8
REMARK    3  A    between atoms: C6_7  and  C13_14
REMARK    4  A    between atoms: C16_17  and  O1_18
REMARK    5  A    between atoms: O1_18  and  C17_19
ROOT
HETATM    1 CL1  UNL     1      23.662  64.923   8.082  1.00  0.00    -0.083 Cl
HETATM    2  C1  UNL     1      25.016  63.892   7.668  1.00  0.00     0.056 A
HETATM    3  C2  UNL     1      24.936  62.846   6.774  1.00  0.00     0.026 A
HETATM    4  C3  UNL     1      26.038  62.064   6.490  1.00  0.00     0.015 A
HETATM    5  C4  UNL     1      27.252  62.294   7.082  1.00  0.00    -0.008 A
HETATM    6  C5  UNL     1      28.330  61.468   6.703  1.00  0.00     0.029 A
HETATM    7  C16 UNL     1      29.515  61.839   7.347  1.00  0.00     0.154 A
HETATM    8  N2  UNL     1      29.600  62.865   8.220  1.00  0.00    -0.345 N
ATOM      9  H2  UNL     1      30.502  63.075   8.647  1.00  0.00     0.167 HD
HETATM   10  C22 UNL     1      28.555  63.604   8.538  1.00  0.00     0.104 A
HETATM   11  C23 UNL     1      27.357  63.327   7.970  1.00  0.00     0.014 A
HETATM   12  C24 UNL     1      26.254  64.126   8.269  1.00  0.00     0.068 A
HETATM   13 CL2  UNL     1      26.414  65.444   9.409  1.00  0.00    -0.082 Cl
ENDROOT
BRANCH   6  14
HETATM   14  C6  UNL     1      28.135  60.290   5.876  1.00  0.00    -0.056 C
BRANCH  14  15
HETATM   15  C7  UNL     1      27.810  58.986   6.540  1.00  0.00     0.016 C
HETATM   16  C8  UNL     1      26.427  58.490   6.181  1.00  0.00     0.009 C
HETATM   17  C9  UNL     1      26.080  57.335   7.112  1.00  0.00     0.001 C
HETATM   18  C10 UNL     1      25.738  57.946   8.463  1.00  0.00     0.000 C
HETATM   19  C11 UNL     1      26.753  58.983   8.832  1.00  0.00     0.001 C
HETATM   20  C12 UNL     1      28.017  58.865   7.998  1.00  0.00     0.009 C
ENDBRANCH  14  15
BRANCH  14  21
HETATM   21  C13 UNL     1      28.600  60.269   4.471  1.00  0.00     0.016 A
HETATM   22  C14 UNL     1      27.535  60.624   3.369  1.00  0.00     0.010 A
HETATM   23  C15 UNL     1      28.775  61.392   3.563  1.00  0.00     0.010 A
ENDBRANCH  14  21
ENDBRANCH   6  14
BRANCH   7  24
HETATM   24  O1  UNL     1      30.656  61.115   7.089  1.00  0.00    -0.330 OA
BRANCH  24  25
HETATM   25  C17 UNL     1      31.566  61.428   6.061  1.00  0.00     0.133 C
HETATM   26  C18 UNL     1      32.693  62.319   6.583  1.00  0.00     0.060 C
HETATM   27  C19 UNL     1      33.506  62.651   5.329  1.00  0.00     0.235 C
HETATM   28  N1  UNL     1      34.087  61.426   4.804  1.00  0.00    -0.075 N
HETATM   29  C20 UNL     1      33.043  60.533   4.333  1.00  0.00     0.235 C
ATOM     30  H12 UNL     1      34.781  61.613   4.081  1.00  0.00     0.277 HD
ATOM     31  H11 UNL     1      34.696  60.972   5.484  1.00  0.00     0.277 HD
HETATM   32  C21 UNL     1      32.112  60.176   5.458  1.00  0.00     0.060 C
ENDBRANCH  24  25
ENDBRANCH   7  24
TORSDOF 5
ENDMDL