MODEL 1
REMARK VINA RESULT: -6.333215529      0.000      0.000
REMARK  6 active torsions:
REMARK  status: ('A' for Active; 'I' for Inactive)
REMARK    1  A    between atoms: C5_6  and  N1_7
REMARK    2  A    between atoms: N1_7  and  C6_8
REMARK    3  A    between atoms: C11_13  and  C12_14
REMARK    4  A    between atoms: C12_14  and  N2_15
REMARK    5  A    between atoms: N2_15  and  C13_18
REMARK    6  A    between atoms: C18_23  and  C19_24
ROOT
HETATM    1  N2  UNL     1      25.278  61.838   7.830  1.00  0.00    -0.070 N
ATOM      2  H21 UNL     1      24.318  62.067   8.088  1.00  0.00     0.277 HD
ATOM      3  H22 UNL     1      25.115  61.528   6.873  1.00  0.00     0.277 HD
ENDROOT
BRANCH   1   4
HETATM    4  C12 UNL     1      25.795  60.787   8.636  1.00  0.00     0.240 C
BRANCH   4   5
HETATM    5  C11 UNL     1      26.704  59.812   7.965  1.00  0.00     0.047 C
HETATM    6  C6  UNL     1      26.563  59.662   6.482  1.00  0.00     0.169 C
HETATM    7  C7  UNL     1      26.023  58.286   6.101  1.00  0.00     0.040 C
HETATM    8  C8  UNL     1      25.198  57.624   7.128  1.00  0.00     0.003 C
HETATM    9  C9  UNL     1      25.791  57.547   8.506  1.00  0.00     0.001 C
HETATM   10  C10 UNL     1      26.893  58.521   8.724  1.00  0.00     0.009 C
BRANCH   6  11
HETATM   11  N1  UNL     1      27.688  59.902   5.751  1.00  0.00    -0.443 NA
BRANCH  11  12
HETATM   12  C5  UNL     1      28.759  59.907   5.254  1.00  0.00     0.123 C
HETATM   13  C1  UNL     1      30.040  59.478   5.899  1.00  0.00     0.185 C
HETATM   14  O1  UNL     1      30.118  59.244   7.143  1.00  0.00    -0.290 OA
HETATM   15  C2  UNL     1      31.109  59.384   4.886  1.00  0.00     0.086 C
HETATM   16  C3  UNL     1      30.368  59.381   3.582  1.00  0.00     0.015 C
HETATM   17  C4  UNL     1      29.194  60.314   3.862  1.00  0.00     0.076 C
ENDBRANCH  11  12
ENDBRANCH   6  11
ENDBRANCH   4   5
ENDBRANCH   1   4
BRANCH   1  18
HETATM   18  C13 UNL     1      26.121  62.997   7.869  1.00  0.00     0.194 C
HETATM   19  C14 UNL     1      25.227  64.147   8.375  1.00  0.00     0.034 C
HETATM   20  C15 UNL     1      26.117  65.297   8.725  1.00  0.00     0.002 C
HETATM   21  C16 UNL     1      26.781  65.790   7.454  1.00  0.00     0.001 C
HETATM   22  C17 UNL     1      26.491  64.883   6.278  1.00  0.00     0.011 C
HETATM   23  C18 UNL     1      26.809  63.422   6.645  1.00  0.00     0.049 C
BRANCH  23  24
HETATM   24  C19 UNL     1      28.301  63.252   6.663  1.00  0.00    -0.050 A
HETATM   25  C20 UNL     1      28.914  62.808   7.817  1.00  0.00     0.009 A
HETATM   26  C21 UNL     1      30.290  62.630   7.922  1.00  0.00     0.026 A
HETATM   27  C22 UNL     1      31.100  62.903   6.839  1.00  0.00     0.055 A
HETATM   28 CL1  UNL     1      32.816  62.680   6.971  1.00  0.00    -0.083 Cl
HETATM   29  C23 UNL     1      30.482  63.347   5.690  1.00  0.00     0.056 A
HETATM   30 CL2  UNL     1      31.498  63.711   4.289  1.00  0.00    -0.083 Cl
HETATM   31  C24 UNL     1      29.116  63.518   5.603  1.00  0.00     0.033 A
ENDBRANCH  23  24
ENDBRANCH   1  18
TORSDOF 6
ENDMDL