MODEL 3
REMARK VINA RESULT: -6.446937550      2.610      5.029
REMARK  6 active torsions:
REMARK  status: ('A' for Active; 'I' for Inactive)
REMARK    1  A    between atoms: C4_4  and  C6_6
REMARK    2  A    between atoms: C8_10  and  C9_11
REMARK    3  A    between atoms: C16_18  and  C17_19
REMARK    4  A    between atoms: C17_19  and  C19_21
REMARK    5  A    between atoms: C17_19  and  C23_28
REMARK    6  A    between atoms: C19_21  and  N1_22
ROOT
HETATM    1  C9  UNL     1      28.399  62.484   5.080  1.00  0.00    -0.014 C
HETATM    2  C10 UNL     1      27.748  63.564   4.137  1.00  0.00     0.020 C
HETATM    3  C11 UNL     1      29.772  63.182   5.157  1.00  0.00     0.014 C
HETATM    4  C12 UNL     1      29.823  64.272   6.194  1.00  0.00     0.005 C
HETATM    5  C13 UNL     1      29.765  63.391   7.432  1.00  0.00     0.034 C
HETATM    6  C14 UNL     1      28.299  63.091   7.406  1.00  0.00    -0.079 C
HETATM    7  C15 UNL     1      27.719  63.481   8.730  1.00  0.00     0.043 C
HETATM    8  C16 UNL     1      27.630  62.651   6.302  1.00  0.00    -0.049 C
ENDROOT
BRANCH   1   9
HETATM    9  C8  UNL     1      28.644  61.320   4.208  1.00  0.00     0.016 C
HETATM   10  C4  UNL     1      29.488  60.150   4.421  1.00  0.00     0.044 C
HETATM   11  C3  UNL     1      29.357  59.220   3.253  1.00  0.00    -0.009 C
HETATM   12  C5  UNL     1      31.041  60.466   4.215  1.00  0.00     0.026 C
HETATM   13  C2  UNL     1      28.301  58.985   2.519  1.00  0.00    -0.087 C
HETATM   14  C1  UNL     1      28.243  58.044   1.372  1.00  0.00     0.043 C
HETATM   15  C25 UNL     1      27.111  59.739   2.872  1.00  0.00     0.034 C
HETATM   16  C24 UNL     1      27.583  61.167   3.098  1.00  0.00     0.011 C
BRANCH  10  17
HETATM   17  C6  UNL     1      29.551  59.238   5.568  1.00  0.00     0.251 C
HETATM   18  C7  UNL     1      29.965  59.641   6.906  1.00  0.00     0.091 C
HETATM   19  F1  UNL     1      28.234  58.705   5.808  1.00  0.00    -0.206 F
HETATM   20  F2  UNL     1      30.192  58.035   5.292  1.00  0.00    -0.206 F
ENDBRANCH  10  17
ENDBRANCH   1   9
BRANCH   8  21
HETATM   21  C17 UNL     1      26.198  62.489   6.648  1.00  0.00     0.085 C
HETATM   22  C18 UNL     1      25.433  61.564   5.764  1.00  0.00     0.033 C
BRANCH  21  23
HETATM   23  C19 UNL     1      25.955  61.873   8.036  1.00  0.00     0.154 C
BRANCH  23  24
HETATM   24  N1  UNL     1      26.066  60.457   8.138  1.00  0.00    -0.350 N
HETATM   25  C20 UNL     1      25.392  59.466   7.524  1.00  0.00     0.108 A
HETATM   26  C21 UNL     1      25.873  58.222   7.900  1.00  0.00     0.106 A
HETATM   27  N2  UNL     1      26.858  58.486   8.761  1.00  0.00    -0.361 N
HETATM   28  C22 UNL     1      26.968  59.814   8.898  1.00  0.00     0.182 A
ATOM     29  H2  UNL     1      27.433  57.791   9.237  1.00  0.00     0.166 HD
ENDBRANCH  23  24
ENDBRANCH  21  23
BRANCH  21  30
HETATM   30  C23 UNL     1      25.414  63.700   6.901  1.00  0.00     0.187 C
HETATM   31  O1  UNL     1      24.542  63.683   7.838  1.00  0.00    -0.647 OA
HETATM   32  O2  UNL     1      25.491  64.907   6.227  1.00  0.00    -0.647 OA
ENDBRANCH  21  30
ENDBRANCH   8  21
TORSDOF 6
ENDMDL