MODEL 1
REMARK VINA RESULT: -7.036095491      0.000      0.000
REMARK  6 active torsions:
REMARK  status: ('A' for Active; 'I' for Inactive)
REMARK    1  A    between atoms: S1_2  and  C2_3
REMARK    2  A    between atoms: C4_5  and  C5_6
REMARK    3  A    between atoms: N1_14  and  C12_15
REMARK    4  A    between atoms: C12_15  and  C13_16
REMARK    5  A    between atoms: C13_16  and  C14_17
REMARK    6  A    between atoms: C14_17  and  O1_18
ROOT
HETATM    1  C5  UNL     1      27.622  59.485   0.763  1.00  0.00     0.023 C
HETATM    2  C6  UNL     1      27.901  58.542   1.887  1.00  0.00     0.045 C
HETATM    3  C7  UNL     1      27.567  59.178   3.221  1.00  0.00     0.225 C
HETATM    4  C8  UNL     1      28.859  59.418   3.948  1.00  0.00     0.058 C
HETATM    5  C9  UNL     1      29.384  60.667   3.283  1.00  0.00     0.117 C
HETATM    6 CL1  UNL     1      29.964  61.860   4.434  1.00  0.00    -0.123 Cl
HETATM    7  C10 UNL     1      28.233  61.165   2.433  1.00  0.00     0.242 C
HETATM    8  C11 UNL     1      28.390  60.793   0.989  1.00  0.00     0.046 C
HETATM    9  N1  UNL     1      27.063  60.485   2.970  1.00  0.00     0.099 N
ENDROOT
BRANCH   9  10
HETATM   10  C12 UNL     1      26.596  61.223   4.096  1.00  0.00     0.276 C
BRANCH  10  11
HETATM   11  C13 UNL     1      25.415  60.603   4.780  1.00  0.00     0.068 C
BRANCH  11  12
HETATM   12  C14 UNL     1      25.739  60.146   6.172  1.00  0.00     0.059 C
HETATM   13  C15 UNL     1      26.947  60.783   6.760  1.00  0.00     0.038 C
HETATM   14  C16 UNL     1      27.802  59.835   7.589  1.00  0.00     0.003 C
HETATM   15  C17 UNL     1      26.971  59.453   8.794  1.00  0.00     0.000 C
HETATM   16  C18 UNL     1      26.442  58.060   8.540  1.00  0.00     0.000 C
HETATM   17  C19 UNL     1      25.329  58.061   7.519  1.00  0.00     0.003 C
HETATM   18  C20 UNL     1      25.740  58.646   6.205  1.00  0.00     0.038 C
BRANCH  12  19
HETATM   19  O1  UNL     1      24.641  60.566   6.964  1.00  0.00    -0.390 OA
ATOM     20  H1  UNL     1      24.741  60.107   7.791  1.00  0.00     0.210 HD
ENDBRANCH  12  19
ENDBRANCH  11  12
ENDBRANCH  10  11
ENDBRANCH   9  10
BRANCH   1  21
HETATM   21  C4  UNL     1      28.037  58.967  -0.539  1.00  0.00    -0.052 A
HETATM   22  C3  UNL     1      29.109  58.134  -0.710  1.00  0.00     0.027 A
HETATM   23  C2  UNL     1      29.473  57.667  -1.961  1.00  0.00     0.022 A
HETATM   24  C23 UNL     1      28.759  58.031  -3.081  1.00  0.00     0.050 A
HETATM   25  C22 UNL     1      27.680  58.868  -2.930  1.00  0.00     0.026 A
HETATM   26 CL2  UNL     1      29.254  57.416  -4.653  1.00  0.00    -0.083 Cl
HETATM   27  C21 UNL     1      27.328  59.327  -1.665  1.00  0.00     0.009 A
BRANCH  23  28
HETATM   28  S1  UNL     1      30.876  56.588  -2.083  1.00  0.00    -0.133 SA
HETATM   29  C1  UNL     1      32.356  57.585  -1.697  1.00  0.00     0.095 C
ENDBRANCH  23  28
ENDBRANCH   1  21
TORSDOF 6
ENDMDL