MODEL 2
REMARK VINA RESULT: -8.213342037      2.134      3.412
REMARK  5 active torsions:
REMARK  status: ('A' for Active; 'I' for Inactive)
REMARK    1  A    between atoms: C7_12  and  C8_13
REMARK    2  A    between atoms: C11_16  and  O1_17
REMARK    3  A    between atoms: O1_17  and  C12_18
REMARK    4  A    between atoms: C17_23  and  O2_24
REMARK    5  A    between atoms: O2_24  and  C18_25
ROOT
HETATM    1  C8  UNL     1      27.498  60.164   2.035  1.00  0.00    -0.023 A
HETATM    2  C9  UNL     1      27.475  61.537   2.040  1.00  0.00     0.015 A
HETATM    3  C10 UNL     1      26.882  62.241   3.071  1.00  0.00     0.040 A
HETATM    4  C11 UNL     1      26.289  61.630   4.139  1.00  0.00     0.102 A
HETATM    5  C17 UNL     1      26.304  60.219   4.149  1.00  0.00     0.103 A
HETATM    6  C23 UNL     1      26.896  59.519   3.120  1.00  0.00     0.052 A
ENDROOT
BRANCH   1   7
HETATM    7  C7  UNL     1      28.112  59.391   0.963  1.00  0.00    -0.025 A
HETATM    8  C6  UNL     1      27.674  59.526  -0.337  1.00  0.00     0.022 A
HETATM    9  C5  UNL     1      28.249  58.802  -1.377  1.00  0.00    -0.020 A
HETATM   10  C4  UNL     1      27.608  59.120  -2.651  1.00  0.00     0.271 C
HETATM   11  C26 UNL     1      29.281  57.923  -1.136  1.00  0.00     0.021 A
HETATM   12  N1  UNL     1      28.547  59.312  -3.735  1.00  0.00    -0.071 N
HETATM   13  C3  UNL     1      29.161  58.106  -4.194  1.00  0.00     0.239 C
ATOM     14  H12 UNL     1      29.256  59.999  -3.477  1.00  0.00     0.277 HD
ATOM     15  H11 UNL     1      28.104  59.806  -4.510  1.00  0.00     0.277 HD
HETATM   16  C2  UNL     1      30.372  57.817  -3.362  1.00  0.00     0.112 C
HETATM   17  C1  UNL     1      30.008  57.090  -2.086  1.00  0.00     0.273 C
HETATM   18  F1  UNL     1      31.210  56.697  -1.499  1.00  0.00    -0.201 F
HETATM   19  F2  UNL     1      29.319  55.934  -2.426  1.00  0.00    -0.201 F
HETATM   20  C25 UNL     1      29.733  57.773   0.155  1.00  0.00     0.014 A
HETATM   21  C24 UNL     1      29.161  58.493   1.191  1.00  0.00     0.013 A
ENDBRANCH   1   7
BRANCH   5  22
HETATM   22  O2  UNL     1      25.705  59.617   5.225  1.00  0.00    -0.343 OA
BRANCH  22  23
HETATM   23  C18 UNL     1      26.333  58.876   6.214  1.00  0.00     0.129 C
HETATM   24  C19 UNL     1      27.799  59.320   6.398  1.00  0.00     0.032 C
HETATM   25  C20 UNL     1      28.129  58.888   7.806  1.00  0.00     0.002 C
HETATM   26  C21 UNL     1      26.855  59.093   8.580  1.00  0.00     0.002 C
HETATM   27  C22 UNL     1      25.724  59.126   7.588  1.00  0.00     0.032 C
ENDBRANCH  22  23
ENDBRANCH   5  22
BRANCH   4  28
HETATM   28  O1  UNL     1      25.690  62.264   5.183  1.00  0.00    -0.343 OA
BRANCH  28  29
HETATM   29  C12 UNL     1      26.207  63.008   6.219  1.00  0.00     0.129 C
HETATM   30  C13 UNL     1      25.609  62.765   7.555  1.00  0.00     0.032 C
HETATM   31  C14 UNL     1      26.653  63.322   8.506  1.00  0.00     0.002 C
HETATM   32  C15 UNL     1      27.902  62.647   7.906  1.00  0.00     0.002 C
HETATM   33  C16 UNL     1      27.697  62.855   6.398  1.00  0.00     0.032 C
ENDBRANCH  28  29
ENDBRANCH   4  28
TORSDOF 5
ENDMDL