MODEL 1
REMARK VINA RESULT: -6.197162714      0.000      0.000
REMARK  7 active torsions:
REMARK  status: ('A' for Active; 'I' for Inactive)
REMARK    1  A    between atoms: O1_2  and  C2_3
REMARK    2  A    between atoms: C5_6  and  C6_7
REMARK    3  A    between atoms: C6_7  and  N1_9
REMARK    4  A    between atoms: N1_9  and  C8_11
REMARK    5  A    between atoms: C8_11  and  O2_12
REMARK    6  A    between atoms: C8_11  and  C9_14
REMARK    7  A    between atoms: C22_29  and  O3_30
ROOT
HETATM    1  C8  UNL     1      27.260  63.442   5.184  1.00  0.00     0.119 C
ENDROOT
BRANCH   1   2
HETATM    2  N1  UNL     1      27.327  64.362   6.235  1.00  0.00    -0.343 N
ATOM      3  H1  UNL     1      28.060  65.071   6.248  1.00  0.00     0.167 HD
BRANCH   2   4
HETATM    4  C6  UNL     1      26.349  64.304   7.307  1.00  0.00     0.020 C
HETATM    5  C7  UNL     1      24.928  64.116   6.958  1.00  0.00     0.069 C
BRANCH   4   6
HETATM    6  C5  UNL     1      26.862  63.952   8.615  1.00  0.00     0.028 A
HETATM    7  C4  UNL     1      26.906  62.665   9.110  1.00  0.00     0.019 A
HETATM    8  C3  UNL     1      27.266  62.354  10.415  1.00  0.00     0.041 A
HETATM    9  C2  UNL     1      27.622  63.397  11.299  1.00  0.00     0.104 A
HETATM   10  C22 UNL     1      27.587  64.712  10.792  1.00  0.00     0.141 A
HETATM   11  C21 UNL     1      27.218  64.965   9.512  1.00  0.00     0.164 A
HETATM   12  F1  UNL     1      27.171  66.231   9.047  1.00  0.00    -0.202 F
BRANCH   9  13
HETATM   13  O1  UNL     1      27.960  63.121  12.534  1.00  0.00    -0.353 OA
HETATM   14  C1  UNL     1      27.642  62.954  13.810  1.00  0.00     0.210 C
ENDBRANCH   9  13
BRANCH  10  15
HETATM   15  O3  UNL     1      27.955  65.780  11.640  1.00  0.00    -0.350 OA
HETATM   16  C23 UNL     1      26.775  66.366  12.282  1.00  0.00     0.210 C
ENDBRANCH  10  15
ENDBRANCH   4   6
ENDBRANCH   2   4
ENDBRANCH   1   2
BRANCH   1  17
HETATM   17  O2  UNL     1      27.002  64.008   4.020  1.00  0.00    -0.349 OA
ATOM     18  H2  UNL     1      26.206  63.681   3.616  1.00  0.00     0.219 HD
ENDBRANCH   1  17
BRANCH   1  19
HETATM   19  C9  UNL     1      27.449  61.993   5.208  1.00  0.00     0.062 C
HETATM   20  C10 UNL     1      26.462  61.397   4.232  1.00  0.00     0.013 C
HETATM   21  C11 UNL     1      25.536  60.366   4.751  1.00  0.00     0.001 C
HETATM   22  C12 UNL     1      24.732  60.609   5.955  1.00  0.00     0.000 C
HETATM   23  C13 UNL     1      25.145  59.972   7.235  1.00  0.00     0.000 C
HETATM   24  C14 UNL     1      25.392  58.499   7.175  1.00  0.00     0.000 C
HETATM   25  C15 UNL     1      26.448  57.980   8.082  1.00  0.00     0.000 C
HETATM   26  C16 UNL     1      27.629  58.866   8.320  1.00  0.00     0.000 C
HETATM   27  C17 UNL     1      28.494  59.127   7.121  1.00  0.00     0.001 C
HETATM   28  C18 UNL     1      29.074  60.518   7.220  1.00  0.00     0.020 C
HETATM   29  C19 UNL     1      29.673  61.007   5.973  1.00  0.00     0.083 C
HETATM   30 CL1  UNL     1      30.663  59.688   5.201  1.00  0.00    -0.125 Cl
HETATM   31  C20 UNL     1      28.850  61.591   4.907  1.00  0.00     0.033 C
ENDBRANCH   1  19
TORSDOF 7
ENDMDL