MODEL 5
REMARK VINA RESULT: -6.894372190      2.740      4.090
REMARK  5 active torsions:
REMARK  status: ('A' for Active; 'I' for Inactive)
REMARK    1  A    between atoms: C2_2  and  O1_3
REMARK    2  A    between atoms: O1_3  and  C3_4
REMARK    3  A    between atoms: C4_5  and  C5_6
REMARK    4  A    between atoms: C6_7  and  C7_8
REMARK    5  A    between atoms: C21_26  and  S1_27
ROOT
HETATM    1  C3  UNL     1      28.174  58.571  -0.239  1.00  0.00     0.118 A
HETATM    2  C4  UNL     1      29.197  58.180   0.605  1.00  0.00     0.068 A
HETATM    3  N1  UNL     1      30.165  57.724  -0.210  1.00  0.00    -0.347 N
ATOM      4  H1  UNL     1      31.062  57.360   0.112  1.00  0.00     0.167 HD
HETATM    5  C21 UNL     1      29.804  57.809  -1.497  1.00  0.00     0.093 A
HETATM    6  C23 UNL     1      28.535  58.347  -1.552  1.00  0.00     0.113 A
HETATM    7  C24 UNL     1      27.752  58.618  -2.726  1.00  0.00     0.105 C
HETATM    8  N2  UNL     1      27.099  58.846  -3.674  1.00  0.00    -0.191 NA
ENDROOT
BRANCH   1   9
HETATM    9  O1  UNL     1      26.965  59.109   0.210  1.00  0.00    -0.347 OA
BRANCH   9  10
HETATM   10  C2  UNL     1      26.755  60.508   0.104  1.00  0.00     0.171 C
HETATM   11  C1  UNL     1      25.374  60.846   0.619  1.00  0.00     0.034 C
ENDBRANCH   9  10
ENDBRANCH   1   9
BRANCH   5  12
HETATM   12  S1  UNL     1      30.744  57.332  -2.952  1.00  0.00    -0.115 SA
HETATM   13  C22 UNL     1      32.293  56.527  -2.511  1.00  0.00     0.097 C
ENDBRANCH   5  12
BRANCH   2  14
HETATM   14  C5  UNL     1      29.200  58.255   2.062  1.00  0.00     0.029 C
HETATM   15  C6  UNL     1      29.415  59.369   2.711  1.00  0.00    -0.014 C
BRANCH  15  16
HETATM   16  C7  UNL     1      29.416  59.436   4.186  1.00  0.00     0.051 C
HETATM   17  C8  UNL     1      30.529  60.178   4.756  1.00  0.00    -0.043 A
HETATM   18  C9  UNL     1      31.897  60.224   4.475  1.00  0.00     0.008 A
HETATM   19  C13 UNL     1      30.064  60.970   5.771  1.00  0.00    -0.042 A
HETATM   20  C10 UNL     1      32.752  61.033   5.188  1.00  0.00     0.001 A
HETATM   21  C11 UNL     1      32.269  61.825   6.209  1.00  0.00     0.001 A
HETATM   22  C12 UNL     1      30.922  61.798   6.505  1.00  0.00     0.008 A
HETATM   23  C14 UNL     1      28.611  60.831   5.964  1.00  0.00    -0.003 C
HETATM   24  C15 UNL     1      27.997  62.182   6.119  1.00  0.00     0.021 C
HETATM   25  C16 UNL     1      28.226  59.890   7.080  1.00  0.00     0.093 C
HETATM   26  C19 UNL     1      28.196  60.124   4.698  1.00  0.00    -0.016 C
HETATM   27  C17 UNL     1      27.028  59.126   6.572  1.00  0.00     0.245 C
HETATM   28  F1  UNL     1      27.023  57.858   7.135  1.00  0.00    -0.206 F
HETATM   29  F2  UNL     1      25.843  59.793   6.833  1.00  0.00    -0.206 F
HETATM   30  C18 UNL     1      27.199  59.058   5.094  1.00  0.00     0.090 C
HETATM   31  C20 UNL     1      27.554  61.050   3.700  1.00  0.00     0.018 C
ENDBRANCH  15  16
ENDBRANCH   2  14
TORSDOF 5
ENDMDL