MODEL 3
REMARK VINA RESULT: -8.342378904      1.443      1.732
REMARK  6 active torsions:
REMARK  status: ('A' for Active; 'I' for Inactive)
REMARK       I    between atoms: N2_8  and  C7_9
REMARK    1  A    between atoms: C7_9  and  C8_11
REMARK    2  A    between atoms: C13_16  and  N3_17
REMARK       I    between atoms: N3_17  and  C14_18
REMARK       I    between atoms: C14_18  and  N4_20
REMARK    3  A    between atoms: C16_27  and  S1_28
REMARK    4  A    between atoms: S1_28  and  C17_29
REMARK    5  A    between atoms: C17_29  and  C18_30
REMARK    6  A    between atoms: C18_30  and  C19_31
ROOT
HETATM    1  C1  UNL     1       2.489   2.142  22.251  1.00  0.00     0.032 C
HETATM    2  C2  UNL     1       1.619   0.961  21.844  1.00  0.00     0.084 C
HETATM    3  C3  UNL     1       0.979   0.455  23.110  1.00  0.00     0.028 C
HETATM    4  C4  UNL     1       0.781  -1.020  22.803  1.00  0.00     0.042 C
HETATM    5  C5  UNL     1       2.154  -1.329  22.194  1.00  0.00     0.195 C
HETATM    6  C6  UNL     1       3.097  -1.517  23.317  1.00  0.00     0.084 C
HETATM    7  N1  UNL     1       3.846  -1.676  24.195  1.00  0.00    -0.195 NA
HETATM    8  N2  UNL     1       2.470  -0.164  21.409  1.00  0.00    -0.330 N
HETATM    9  C7  UNL     1       3.466  -0.080  20.389  1.00  0.00     0.232 C
HETATM   10  O1  UNL     1       3.612   1.085  19.860  1.00  0.00    -0.272 OA
ENDROOT
BRANCH   9  11
HETATM   11  C8  UNL     1       4.334  -1.135  19.873  1.00  0.00     0.138 C
HETATM   12  C9  UNL     1       5.366  -0.494  18.913  1.00  0.00     0.021 C
HETATM   13  C10 UNL     1       5.098  -0.760  17.488  1.00  0.00     0.002 C
HETATM   14  C11 UNL     1       3.684  -0.880  17.055  1.00  0.00     0.007 C
HETATM   15  C12 UNL     1       2.875  -1.808  17.943  1.00  0.00     0.069 C
HETATM   16  C13 UNL     1       3.669  -2.265  19.112  1.00  0.00     0.081 C
BRANCH  16  17
HETATM   17  N3  UNL     1       3.239  -3.393  19.766  1.00  0.00    -0.360 NA
HETATM   18  C14 UNL     1       2.849  -4.457  20.537  1.00  0.00     0.399 C
HETATM   19  O2  UNL     1       2.831  -4.658  21.787  1.00  0.00    -0.230 OA
HETATM   20  N4  UNL     1       2.389  -5.590  19.785  1.00  0.00    -0.275 N
HETATM   21  C15 UNL     1       1.697  -6.580  20.105  1.00  0.00     0.170 A
ATOM     22  H4  UNL     1       2.682  -5.586  18.808  1.00  0.00     0.173 HD
HETATM   23  N5  UNL     1       1.363  -7.581  19.226  1.00  0.00    -0.278 N
HETATM   24  S2  UNL     1       0.805  -7.083  21.497  1.00  0.00    -0.026 SA
HETATM   25  N6  UNL     1       0.600  -8.476  19.616  1.00  0.00    -0.286 N
ATOM     26  H5  UNL     1       1.733  -7.587  18.276  1.00  0.00     0.189 HD
HETATM   27  C16 UNL     1       0.099  -8.503  20.839  1.00  0.00     0.130 A
ATOM     28  H6  UNL     1       0.349  -9.223  18.968  1.00  0.00     0.188 HD
BRANCH  27  29
HETATM   29  S1  UNL     1      -0.989  -9.716  21.590  1.00  0.00    -0.103 SA
BRANCH  29  30
HETATM   30  C17 UNL     1      -0.662  -9.731  23.363  1.00  0.00     0.082 C
BRANCH  30  31
HETATM   31  C18 UNL     1       0.521 -10.652  23.613  1.00  0.00     0.025 C
BRANCH  31  32
HETATM   32  C19 UNL     1       1.131 -10.207  24.919  1.00  0.00     0.115 C
HETATM   33 CL1  UNL     1       0.959  -8.454  25.069  1.00  0.00    -0.130 Cl
ENDBRANCH  31  32
ENDBRANCH  30  31
ENDBRANCH  29  30
ENDBRANCH  27  29
ENDBRANCH  16  17
ENDBRANCH   9  11
TORSDOF 6
ENDMDL