MODEL 2
REMARK VINA RESULT: -7.545240347      2.593      6.132
REMARK  8 active torsions:
REMARK  status: ('A' for Active; 'I' for Inactive)
REMARK    1  A    between atoms: C2_2  and  O1_3
REMARK    2  A    between atoms: O1_3  and  C3_4
REMARK    3  A    between atoms: C7_10  and  C8_11
REMARK       I    between atoms: C8_11  and  N1_13
REMARK    4  A    between atoms: N1_13  and  C9_15
REMARK    5  A    between atoms: C9_15  and  C10_16
REMARK    6  A    between atoms: C10_16  and  N2_17
REMARK       I    between atoms: N2_17  and  C11_19
REMARK    7  A    between atoms: C11_19  and  O6_21
REMARK    8  A    between atoms: O6_21  and  C12_22
ROOT
HETATM    1  C3  UNL     1      -0.279  -2.679  25.960  1.00  0.00     0.132 C
HETATM    2  C4  UNL     1       0.815  -2.597  26.956  1.00  0.00     0.059 C
HETATM    3  C5  UNL     1       2.117  -2.062  26.482  1.00  0.00     0.174 C
HETATM    4  O2  UNL     1       2.121  -1.224  25.439  1.00  0.00    -0.350 OA
HETATM    5  C6  UNL     1       1.087  -1.275  24.545  1.00  0.00     0.200 C
HETATM    6  O3  UNL     1       1.258  -2.481  23.823  1.00  0.00    -0.331 OA
HETATM    7  C7  UNL     1       2.265  -2.204  22.901  1.00  0.00     0.251 C
HETATM    8  C16 UNL     1       1.987  -0.797  22.488  1.00  0.00    -0.007 A
HETATM    9  C17 UNL     1       2.318  -0.072  21.366  1.00  0.00     0.034 A
HETATM   10  C18 UNL     1       1.901   1.251  21.285  1.00  0.00     0.034 A
HETATM   11 CL1  UNL     1       2.296   2.223  19.875  1.00  0.00    -0.084 Cl
HETATM   12  C19 UNL     1       1.165   1.796  22.332  1.00  0.00     0.024 A
HETATM   13  C20 UNL     1       0.843   1.055  23.445  1.00  0.00     0.015 A
HETATM   14  C21 UNL     1       1.256  -0.254  23.529  1.00  0.00     0.013 A
HETATM   15  C22 UNL     1      -0.270  -1.374  25.173  1.00  0.00     0.078 C
HETATM   16  C23 UNL     1      -0.595  -0.241  26.110  1.00  0.00     0.019 C
ENDROOT
BRANCH   7  17
HETATM   17  C8  UNL     1       1.962  -3.073  21.708  1.00  0.00     0.251 C
HETATM   18  O4  UNL     1       2.928  -3.509  20.994  1.00  0.00    -0.270 OA
HETATM   19  N1  UNL     1       0.629  -3.389  21.395  1.00  0.00    -0.357 N
ATOM     20  H1  UNL     1      -0.120  -3.024  21.983  1.00  0.00     0.162 HD
BRANCH  19  21
HETATM   21  C9  UNL     1       0.296  -4.211  20.273  1.00  0.00     0.142 C
BRANCH  21  22
HETATM   22  C10 UNL     1       0.144  -3.407  19.033  1.00  0.00     0.144 C
BRANCH  22  23
HETATM   23  N2  UNL     1       1.421  -3.115  18.458  1.00  0.00    -0.335 N
HETATM   24  C11 UNL     1       1.521  -2.582  17.149  1.00  0.00     0.361 C
HETATM   25  O5  UNL     1       0.553  -2.323  16.400  1.00  0.00    -0.238 OA
ATOM     26  H2  UNL     1       2.269  -3.292  18.996  1.00  0.00     0.164 HD
BRANCH  24  27
HETATM   27  O6  UNL     1       2.782  -2.297  16.580  1.00  0.00    -0.294 OA
BRANCH  27  28
HETATM   28  C12 UNL     1       3.549  -1.171  16.989  1.00  0.00     0.061 C
HETATM   29  C13 UNL     1       2.718  -0.047  17.503  1.00  0.00     0.046 C
HETATM   30  C14 UNL     1       4.593  -1.541  17.997  1.00  0.00     0.046 C
HETATM   31  C15 UNL     1       4.276  -0.694  15.734  1.00  0.00     0.046 C
ENDBRANCH  27  28
ENDBRANCH  24  27
ENDBRANCH  22  23
ENDBRANCH  21  22
ENDBRANCH  19  21
ENDBRANCH   7  17
BRANCH   1  32
HETATM   32  O1  UNL     1      -0.279  -3.732  25.118  1.00  0.00    -0.386 OA
BRANCH  32  33
HETATM   33  C2  UNL     1      -1.408  -4.480  25.020  1.00  0.00     0.163 C
HETATM   34  C1  UNL     1      -1.583  -5.135  23.646  1.00  0.00     0.033 C
ENDBRANCH  32  33
ENDBRANCH   1  32
TORSDOF 8
ENDMDL