MODEL 1
REMARK VINA RESULT: -7.990459692      0.000      0.000
REMARK  7 active torsions:
REMARK  status: ('A' for Active; 'I' for Inactive)
REMARK    1  A    between atoms: O1_2  and  C2_3
REMARK    2  A    between atoms: C4_5  and  N1_6
REMARK    3  A    between atoms: N1_6  and  C5_8
REMARK    4  A    between atoms: C13_19  and  N4_20
REMARK    5  A    between atoms: N4_20  and  S1_22
REMARK    6  A    between atoms: S1_22  and  N5_25
REMARK    7  A    between atoms: C18_30  and  O4_31
ROOT
HETATM    1  C5  UNL     1       1.495  -1.366  23.509  1.00  0.00     0.067 A
HETATM    2  C6  UNL     1       1.554  -0.603  24.646  1.00  0.00     0.087 A
HETATM    3  C7  UNL     1       0.723  -0.901  25.795  1.00  0.00     0.103 C
HETATM    4  N2  UNL     1       0.076  -1.111  26.723  1.00  0.00    -0.191 NA
HETATM    5  C8  UNL     1       2.426   0.468  24.685  1.00  0.00     0.113 A
HETATM    6  N3  UNL     1       3.210   0.776  23.647  1.00  0.00    -0.364 N
ATOM      7  H3  UNL     1       3.844   1.574  23.706  1.00  0.00     0.165 HD
HETATM    8  C9  UNL     1       3.165   0.036  22.522  1.00  0.00     0.045 A
HETATM    9  C10 UNL     1       3.987   0.360  21.434  1.00  0.00     0.039 A
HETATM   10  C11 UNL     1       3.947  -0.385  20.288  1.00  0.00    -0.032 A
HETATM   11  C12 UNL     1       4.808  -0.046  19.137  1.00  0.00     0.050 C
HETATM   12  C13 UNL     1       3.084  -1.483  20.185  1.00  0.00     0.050 A
HETATM   13  C16 UNL     1       2.268  -1.813  21.248  1.00  0.00     0.046 A
HETATM   14  C17 UNL     1       2.329  -1.035  22.411  1.00  0.00     0.021 A
ENDROOT
BRANCH   1  15
HETATM   15  N1  UNL     1       0.772  -2.360  23.323  1.00  0.00    -0.352 N
ATOM     16  H1  UNL     1      -0.107  -2.067  22.897  1.00  0.00     0.166 HD
BRANCH  15  17
HETATM   17  C4  UNL     1       0.767  -3.719  23.502  1.00  0.00     0.069 A
HETATM   18  C3  UNL     1       1.608  -4.406  24.379  1.00  0.00     0.071 A
HETATM   19  C2  UNL     1       1.568  -5.765  24.552  1.00  0.00     0.092 A
HETATM   20  C21 UNL     1       0.661  -6.529  23.841  1.00  0.00     0.070 A
HETATM   21  C20 UNL     1      -0.170  -5.887  22.980  1.00  0.00     0.065 A
HETATM   22 CL1  UNL     1       0.545  -8.264  24.003  1.00  0.00    -0.081 Cl
HETATM   23  C18 UNL     1      -0.140  -4.530  22.797  1.00  0.00     0.096 A
BRANCH  19  24
HETATM   24  O1  UNL     1       2.419  -6.392  25.428  1.00  0.00    -0.354 OA
HETATM   25  C1  UNL     1       2.100  -6.410  26.803  1.00  0.00     0.210 C
ENDBRANCH  19  24
BRANCH  23  26
HETATM   26  O4  UNL     1      -0.994  -3.880  21.914  1.00  0.00    -0.354 OA
HETATM   27  C19 UNL     1      -0.790  -4.126  20.520  1.00  0.00     0.210 C
ENDBRANCH  23  26
ENDBRANCH  15  17
ENDBRANCH   1  15
BRANCH  12  28
HETATM   28  N4  UNL     1       3.099  -2.198  18.984  1.00  0.00    -0.271 N
ATOM     29  H4  UNL     1       3.785  -2.947  18.887  1.00  0.00     0.180 HD
BRANCH  28  30
HETATM   30  S1  UNL     1       2.046  -1.906  17.664  1.00  0.00     0.302 S
HETATM   31  O2  UNL     1       1.545  -0.509  17.569  1.00  0.00    -0.188 OA
HETATM   32  O3  UNL     1       0.791  -2.775  17.800  1.00  0.00    -0.188 OA
BRANCH  30  33
HETATM   33  N5  UNL     1       2.751  -2.420  16.162  1.00  0.00    -0.202 NA
HETATM   34  C14 UNL     1       1.730  -2.615  15.148  1.00  0.00     0.130 C
HETATM   35  C15 UNL     1       3.756  -1.482  15.701  1.00  0.00     0.130 C
ENDBRANCH  30  33
ENDBRANCH  28  30
ENDBRANCH  12  28
TORSDOF 7
ENDMDL