MODEL 5
REMARK VINA RESULT: -7.811248559      1.179      1.293
REMARK  13 active torsions:
REMARK  status: ('A' for Active; 'I' for Inactive)
REMARK    1  A    between atoms: C4_4  and  C5_5
REMARK    2  A    between atoms: C5_5  and  O1_6
REMARK    3  A    between atoms: C5_5  and  N1_8
REMARK    4  A    between atoms: N1_8  and  C6_9
REMARK    5  A    between atoms: N1_8  and  C16_27
REMARK    6  A    between atoms: C6_9  and  O2_10
REMARK    7  A    between atoms: C7_12  and  O3_13
REMARK    8  A    between atoms: O3_13  and  C8_14
REMARK    9  A    between atoms: C8_14  and  C9_16
REMARK   10  A    between atoms: C11_18  and  C12_19
REMARK   11  A    between atoms: C22_34  and  C23_35
REMARK   12  A    between atoms: C23_35  and  C24_36
REMARK   13  A    between atoms: C24_36  and  O5_37
ROOT
HETATM    1  N1  UNL     1       0.762  -3.788  22.125  1.00  0.00    -0.297 N
ENDROOT
BRANCH   1   2
HETATM    2  C5  UNL     1       1.966  -3.682  21.451  1.00  0.00     0.155 C
BRANCH   2   3
HETATM    3  C4  UNL     1       2.477  -3.008  20.293  1.00  0.00     0.017 A
HETATM    4  C3  UNL     1       1.616  -2.871  19.184  1.00  0.00     0.023 A
HETATM    5  C2  UNL     1       1.939  -2.134  18.059  1.00  0.00    -0.053 A
HETATM    6  C1  UNL     1       0.950  -2.142  16.935  1.00  0.00     0.049 C
HETATM    7  C22 UNL     1       3.123  -1.474  17.936  1.00  0.00    -0.028 A
HETATM    8  C21 UNL     1       3.991  -1.600  19.027  1.00  0.00     0.041 A
HETATM    9  C20 UNL     1       3.655  -2.345  20.151  1.00  0.00     0.040 A
HETATM   10 CL1  UNL     1       5.540  -0.831  18.935  1.00  0.00    -0.084 Cl
BRANCH   7  11
HETATM   11  C23 UNL     1       3.542  -0.600  16.829  1.00  0.00     0.067 C
BRANCH  11  12
HETATM   12  C24 UNL     1       4.316  -1.206  15.732  1.00  0.00     0.168 C
BRANCH  12  13
HETATM   13  O5  UNL     1       5.557  -0.729  15.446  1.00  0.00    -0.401 OA
ATOM     14  H5  UNL     1       5.817  -0.617  14.538  1.00  0.00     0.209 HD
ENDBRANCH  12  13
ENDBRANCH  11  12
ENDBRANCH   7  11
ENDBRANCH   2   3
BRANCH   2  15
HETATM   15  O1  UNL     1       2.912  -4.442  22.073  1.00  0.00    -0.345 OA
ATOM     16  H1  UNL     1       2.548  -4.982  22.764  1.00  0.00     0.219 HD
ENDBRANCH   2  15
ENDBRANCH   1   2
BRANCH   1  17
HETATM   17  C6  UNL     1       0.399  -3.191  23.317  1.00  0.00     0.168 C
HETATM   18  C7  UNL     1      -0.748  -2.407  23.719  1.00  0.00     0.202 C
BRANCH  17  19
HETATM   19  O2  UNL     1       1.265  -3.379  24.287  1.00  0.00    -0.344 OA
ATOM     20  H2  UNL     1       1.083  -2.867  25.067  1.00  0.00     0.219 HD
ENDBRANCH  17  19
BRANCH  18  21
HETATM   21  O3  UNL     1      -0.797  -1.685  24.888  1.00  0.00    -0.282 OA
BRANCH  21  22
HETATM   22  C8  UNL     1      -0.492  -0.453  25.241  1.00  0.00     0.316 C
HETATM   23  O4  UNL     1      -0.823   0.035  26.350  1.00  0.00    -0.257 OA
BRANCH  22  24
HETATM   24  C9  UNL     1       0.262   0.478  24.364  1.00  0.00     0.125 A
HETATM   25  C10 UNL     1       1.369   0.259  23.576  1.00  0.00     0.064 A
HETATM   26  C11 UNL     1       1.591   1.320  22.724  1.00  0.00     0.035 A
HETATM   27  N2  UNL     1       0.579   2.204  23.019  1.00  0.00    -0.303 N
HETATM   28  N3  UNL     1      -0.182   1.712  23.963  1.00  0.00    -0.295 N
ATOM     29  H2  UNL     1       0.442   3.109  22.569  1.00  0.00     0.186 HD
ATOM     30  H3  UNL     1      -0.999   2.184  24.350  1.00  0.00     0.187 HD
BRANCH  26  31
HETATM   31  C12 UNL     1       2.572   1.496  21.626  1.00  0.00    -0.007 C
HETATM   32  C13 UNL     1       2.031   1.216  20.282  1.00  0.00     0.021 C
HETATM   33  C14 UNL     1       3.800   0.662  21.940  1.00  0.00     0.021 C
HETATM   34  C15 UNL     1       3.091   2.952  21.642  1.00  0.00     0.021 C
ENDBRANCH  26  31
ENDBRANCH  22  24
ENDBRANCH  21  22
ENDBRANCH  18  21
ENDBRANCH   1  17
BRANCH   1  35
HETATM   35  C16 UNL     1      -0.062  -4.960  21.673  1.00  0.00     0.030 C
HETATM   36  C17 UNL     1      -1.145  -4.355  20.761  1.00  0.00     0.038 C
HETATM   37  C18 UNL     1       0.725  -6.044  21.082  1.00  0.00     0.038 C
HETATM   38  C19 UNL     1      -0.916  -5.527  22.817  1.00  0.00     0.038 C
ENDBRANCH   1  35
TORSDOF 13
ENDMDL