MODEL 2
REMARK VINA RESULT: -8.235669282      2.052      3.582
REMARK  10 active torsions:
REMARK  status: ('A' for Active; 'I' for Inactive)
REMARK    1  A    between atoms: O1_2  and  C2_3
REMARK    2  A    between atoms: C2_3  and  O2_4
REMARK    3  A    between atoms: C2_3  and  C3_6
REMARK    4  A    between atoms: C5_8  and  O3_9
REMARK    5  A    between atoms: O3_9  and  C6_10
REMARK    6  A    between atoms: C14_19  and  O4_20
REMARK    7  A    between atoms: C15_22  and  C16_23
REMARK       I    between atoms: C16_23  and  N1_25
REMARK    8  A    between atoms: N1_25  and  C17_27
REMARK    9  A    between atoms: C19_29  and  O6_30
REMARK   10  A    between atoms: C19_29  and  N2_32
ROOT
HETATM    1  C3  UNL     1       2.246   0.672  21.826  1.00  0.00     0.043 A
HETATM    2  C4  UNL     1       2.580   0.782  20.454  1.00  0.00     0.054 A
HETATM    3  C5  UNL     1       2.994  -0.276  19.711  1.00  0.00     0.079 A
HETATM    4  C13 UNL     1       3.087  -1.490  20.327  1.00  0.00     0.074 A
HETATM    5  C14 UNL     1       2.771  -1.633  21.656  1.00  0.00     0.085 A
HETATM    6  C15 UNL     1       2.336  -0.538  22.449  1.00  0.00     0.080 A
ENDROOT
BRANCH   6   7
HETATM    7  C16 UNL     1       2.052  -0.774  23.836  1.00  0.00     0.259 C
HETATM    8  O5  UNL     1       2.861  -0.675  24.762  1.00  0.00    -0.267 OA
HETATM    9  N1  UNL     1       0.698  -1.170  24.211  1.00  0.00    -0.323 N
ATOM     10  H1  UNL     1      -0.080  -0.520  24.095  1.00  0.00     0.169 HD
BRANCH   9  11
HETATM   11  C17 UNL     1       0.489  -2.378  24.703  1.00  0.00     0.059 C
HETATM   12  C18 UNL     1       0.801  -2.681  26.101  1.00  0.00     0.073 C
HETATM   13  C19 UNL     1      -0.070  -3.329  23.783  1.00  0.00     0.160 C
BRANCH  13  14
HETATM   14  O6  UNL     1      -0.298  -2.891  22.559  1.00  0.00    -0.345 OA
ATOM     15  H6  UNL     1      -0.643  -3.526  21.944  1.00  0.00     0.219 HD
ENDBRANCH  13  14
BRANCH  13  16
HETATM   16  N2  UNL     1      -0.413  -4.657  23.978  1.00  0.00    -0.369 N
HETATM   17  C20 UNL     1      -1.711  -5.130  24.366  1.00  0.00     0.151 C
HETATM   18  C21 UNL     1       0.669  -5.664  23.766  1.00  0.00     0.151 C
ENDBRANCH  13  16
ENDBRANCH   9  11
ENDBRANCH   6   7
BRANCH   1  19
HETATM   19  C2  UNL     1       1.829   1.879  22.461  1.00  0.00     0.189 C
BRANCH  19  20
HETATM   20  O1  UNL     1       0.648   2.277  22.967  1.00  0.00    -0.335 OA
HETATM   21  C1  UNL     1       0.436   2.429  24.381  1.00  0.00     0.212 C
ENDBRANCH  19  20
BRANCH  19  22
HETATM   22  O2  UNL     1       2.763   2.797  22.586  1.00  0.00    -0.340 OA
ATOM     23  H2  UNL     1       3.622   2.421  22.738  1.00  0.00     0.220 HD
ENDBRANCH  19  22
ENDBRANCH   1  19
BRANCH   5  24
HETATM   24  O4  UNL     1       2.859  -2.854  22.286  1.00  0.00    -0.360 OA
ATOM     25  H4  UNL     1       2.360  -3.043  23.072  1.00  0.00     0.217 HD
ENDBRANCH   5  24
BRANCH   3  26
HETATM   26  O3  UNL     1       3.302  -0.076  18.368  1.00  0.00    -0.309 OA
BRANCH  26  27
HETATM   27  C6  UNL     1       2.739  -0.826  17.359  1.00  0.00     0.093 A
HETATM   28  C7  UNL     1       1.368  -1.041  17.349  1.00  0.00     0.039 A
HETATM   29  C8  UNL     1       0.813  -1.799  16.326  1.00  0.00     0.009 A
HETATM   30  C9  UNL     1       1.625  -2.328  15.336  1.00  0.00    -0.061 A
HETATM   31  C10 UNL     1       0.988  -3.140  14.252  1.00  0.00     0.048 C
HETATM   32  C11 UNL     1       2.976  -2.090  15.388  1.00  0.00     0.028 A
HETATM   33  C12 UNL     1       3.572  -1.341  16.387  1.00  0.00     0.045 A
HETATM   34 BR1  UNL     1       5.456  -1.028  16.429  1.00  0.00    -0.048 Br
ENDBRANCH  26  27
ENDBRANCH   3  26
TORSDOF 10
ENDMDL