MODEL 3
REMARK VINA RESULT: -8.097415255      3.648      7.973
REMARK  8 active torsions:
REMARK  status: ('A' for Active; 'I' for Inactive)
REMARK    1  A    between atoms: C2_2  and  O1_3
REMARK    2  A    between atoms: O1_3  and  C3_4
REMARK       I    between atoms: C3_4  and  N1_6
REMARK    3  A    between atoms: C6_9  and  S1_10
REMARK    4  A    between atoms: S1_10  and  C7_11
REMARK    5  A    between atoms: C7_11  and  C8_12
REMARK       I    between atoms: C8_12  and  N2_14
REMARK    6  A    between atoms: N2_14  and  C9_16
REMARK    7  A    between atoms: C12_19  and  N3_20
REMARK    8  A    between atoms: N3_20  and  C13_22
ROOT
HETATM    1  C9  UNL     1       2.743   0.959  20.380  1.00  0.00     0.084 C
HETATM    2  C10 UNL     1       1.631   1.945  20.400  1.00  0.00     0.027 C
HETATM    3  C11 UNL     1       1.016   2.031  21.777  1.00  0.00     0.027 C
HETATM    4  C12 UNL     1       2.134   2.171  22.810  1.00  0.00     0.083 C
HETATM    5  C18 UNL     1       2.862   0.824  22.847  1.00  0.00     0.027 C
HETATM    6  C19 UNL     1       2.631   0.041  21.603  1.00  0.00     0.027 C
ENDROOT
BRANCH   1   7
HETATM    7  N2  UNL     1       2.765   0.078  19.223  1.00  0.00    -0.356 N
HETATM    8  C8  UNL     1       3.980  -0.526  18.848  1.00  0.00     0.227 C
HETATM    9  O3  UNL     1       5.018  -0.293  19.510  1.00  0.00    -0.273 OA
ATOM     10  H2  UNL     1       1.913  -0.099  18.691  1.00  0.00     0.162 HD
BRANCH   8  11
HETATM   11  C7  UNL     1       4.098  -1.434  17.702  1.00  0.00     0.177 C
BRANCH  11  12
HETATM   12  S1  UNL     1       2.489  -2.200  17.375  1.00  0.00    -0.155 SA
BRANCH  12  13
HETATM   13  C6  UNL     1       2.076  -3.305  18.719  1.00  0.00     0.050 C
HETATM   14  C5  UNL     1       0.695  -3.032  19.290  1.00  0.00     0.035 C
HETATM   15  C4  UNL     1       0.352  -4.160  20.248  1.00  0.00     0.129 C
HETATM   16  N1  UNL     1       1.460  -4.481  21.127  1.00  0.00    -0.328 N
HETATM   17  C3  UNL     1       1.146  -4.832  22.466  1.00  0.00     0.362 C
HETATM   18  C21 UNL     1       2.832  -4.459  20.710  1.00  0.00     0.129 C
HETATM   19  O2  UNL     1      -0.037  -4.867  22.905  1.00  0.00    -0.238 OA
HETATM   20  C20 UNL     1       3.036  -3.184  19.878  1.00  0.00     0.035 C
BRANCH  17  21
HETATM   21  O1  UNL     1       2.158  -5.154  23.349  1.00  0.00    -0.304 OA
BRANCH  21  22
HETATM   22  C2  UNL     1       2.354  -4.493  24.584  1.00  0.00     0.176 C
HETATM   23  C1  UNL     1       3.209  -3.277  24.304  1.00  0.00     0.034 C
ENDBRANCH  21  22
ENDBRANCH  17  21
ENDBRANCH  12  13
ENDBRANCH  11  12
ENDBRANCH   8  11
ENDBRANCH   1   7
BRANCH   4  24
HETATM   24  N3  UNL     1       1.677   2.455  24.086  1.00  0.00    -0.370 N
ATOM     25  H3  UNL     1       1.250   3.381  24.054  1.00  0.00     0.161 HD
BRANCH  24  26
HETATM   26  C13 UNL     1       1.578   2.053  25.224  1.00  0.00     0.126 A
HETATM   27  N4  UNL     1       2.504   2.470  26.149  1.00  0.00    -0.337 N
HETATM   28  C14 UNL     1       2.492   2.094  27.418  1.00  0.00     0.182 A
ATOM     29  H4  UNL     1       3.241   3.104  25.841  1.00  0.00     0.168 HD
HETATM   30  N5  UNL     1       1.548   1.262  27.880  1.00  0.00    -0.354 N
HETATM   31  C15 UNL     1       0.601   0.802  27.050  1.00  0.00     0.031 A
ATOM     32  H5  UNL     1       1.550   0.979  28.860  1.00  0.00     0.166 HD
HETATM   33  C16 UNL     1      -0.444  -0.127  27.552  1.00  0.00     0.070 C
HETATM   34  C17 UNL     1       0.623   1.205  25.708  1.00  0.00     0.100 A
HETATM   35 CL1  UNL     1      -0.648   0.564  24.698  1.00  0.00    -0.078 Cl
ENDBRANCH  24  26
ENDBRANCH   4  24
TORSDOF 8
ENDMDL