MODEL 5
REMARK VINA RESULT: -8.812640672      2.657      4.325
REMARK  7 active torsions:
REMARK  status: ('A' for Active; 'I' for Inactive)
REMARK    1  A    between atoms: C7_8  and  O2_9
REMARK    2  A    between atoms: C14_16  and  C16_18
REMARK    3  A    between atoms: C16_18  and  C17_20
REMARK    4  A    between atoms: C17_20  and  C18_21
REMARK    5  A    between atoms: C18_21  and  C19_22
REMARK    6  A    between atoms: C19_22  and  N1_24
REMARK    7  A    between atoms: N1_24  and  C20_26
ROOT
HETATM    1  C1  UNL     1      -1.776  -4.853  27.383  1.00  0.00     0.210 C
HETATM    2  O1  UNL     1      -1.062  -4.241  26.499  1.00  0.00    -0.353 OA
HETATM    3  C2  UNL     1      -0.397  -3.507  25.662  1.00  0.00     0.102 A
HETATM    4  C3  UNL     1      -0.528  -2.120  25.715  1.00  0.00     0.047 A
HETATM    5  C4  UNL     1       0.148  -1.283  24.861  1.00  0.00    -0.048 A
HETATM    6  C5  UNL     1       0.975  -1.856  23.928  1.00  0.00    -0.040 A
HETATM    7  C6  UNL     1       1.126  -3.247  23.853  1.00  0.00     0.048 A
HETATM    8  C7  UNL     1       0.455  -4.077  24.700  1.00  0.00     0.102 A
HETATM    9  C9  UNL     1       1.852  -1.190  22.895  1.00  0.00    -0.011 C
HETATM   10  C10 UNL     1       1.884  -1.981  21.638  1.00  0.00     0.021 C
HETATM   11  C11 UNL     1       3.263  -1.265  23.515  1.00  0.00     0.014 C
HETATM   12  C12 UNL     1       4.029  -0.001  23.416  1.00  0.00     0.002 C
HETATM   13  C13 UNL     1       3.738   0.670  22.104  1.00  0.00     0.017 C
HETATM   14  C14 UNL     1       2.304   1.168  22.037  1.00  0.00     0.021 C
HETATM   15  C15 UNL     1       2.330   2.492  22.818  1.00  0.00     0.024 C
HETATM   16  C21 UNL     1       1.453   0.238  22.799  1.00  0.00     0.014 C
HETATM   17  C22 UNL     1      -0.037   0.487  22.631  1.00  0.00     0.007 C
HETATM   18  C23 UNL     1      -0.750   0.818  23.922  1.00  0.00     0.005 C
HETATM   19  C24 UNL     1      -0.168   0.166  25.121  1.00  0.00     0.039 C
ENDROOT
BRANCH   8  20
HETATM   20  O2  UNL     1       0.575  -5.463  24.658  1.00  0.00    -0.353 OA
HETATM   21  C8  UNL     1       1.722  -6.174  25.064  1.00  0.00     0.210 C
ENDBRANCH   8  20
BRANCH  14  22
HETATM   22  C16 UNL     1       1.932   1.536  20.649  1.00  0.00     0.135 C
HETATM   23  O3  UNL     1       1.023   2.271  20.313  1.00  0.00    -0.297 OA
BRANCH  22  24
HETATM   24  C17 UNL     1       2.718   0.971  19.524  1.00  0.00     0.082 C
BRANCH  24  25
HETATM   25  C18 UNL     1       2.069   0.147  18.511  1.00  0.00     0.049 C
BRANCH  25  26
HETATM   26  C19 UNL     1       2.659  -1.155  18.093  1.00  0.00     0.197 C
HETATM   27 CL1  UNL     1       1.593  -2.539  18.055  1.00  0.00    -0.102 Cl
BRANCH  26  28
HETATM   28  N1  UNL     1       3.105  -0.944  16.697  1.00  0.00    -0.206 N
ATOM     29  H1  UNL     1       2.429  -1.055  15.941  1.00  0.00     0.179 HD
BRANCH  28  30
HETATM   30  C20 UNL     1       4.318  -0.626  16.406  1.00  0.00     0.708 A
HETATM   31  N2  UNL     1       5.350  -0.781  17.255  1.00  0.00    -0.118 N
HETATM   32  N3  UNL     1       6.419  -0.347  16.613  1.00  0.00    -0.212 N
ATOM     33  H2  UNL     1       5.314  -1.157  18.203  1.00  0.00     0.207 HD
HETATM   34  N4  UNL     1       6.101   0.073  15.399  1.00  0.00     0.009 NA
ATOM     35  H3  UNL     1       7.362  -0.337  17.001  1.00  0.00     0.206 HD
HETATM   36  N5  UNL     1       4.792  -0.102  15.269  1.00  0.00    -0.114 N
ATOM     37  H5  UNL     1       4.240   0.125  14.442  1.00  0.00     0.203 HD
ENDBRANCH  28  30
ENDBRANCH  26  28
ENDBRANCH  25  26
ENDBRANCH  24  25
ENDBRANCH  22  24
ENDBRANCH  14  22
TORSDOF 7
ENDMDL