MODEL 2
REMARK VINA RESULT: -8.493912655      2.550      4.992
REMARK  8 active torsions:
REMARK  status: ('A' for Active; 'I' for Inactive)
REMARK    1  A    between atoms: O1_2  and  C2_3
REMARK    2  A    between atoms: C2_3  and  C3_5
REMARK    3  A    between atoms: C4_6  and  C5_7
REMARK    4  A    between atoms: C7_9  and  C8_10
REMARK    5  A    between atoms: C8_10  and  C9_11
REMARK    6  A    between atoms: C10_12  and  C11_13
REMARK    7  A    between atoms: C20_25  and  O5_26
REMARK    8  A    between atoms: C24_32  and  O7_34
ROOT
HETATM    1  C9  UNL     1       1.685  -2.730  20.090  1.00  0.00    -0.045 C
HETATM    2  C10 UNL     1       2.306  -1.372  20.412  1.00  0.00     0.006 C
HETATM    3  C12 UNL     1       1.913  -0.331  21.001  1.00  0.00     0.021 C
HETATM    4  C13 UNL     1       2.056   1.043  21.550  1.00  0.00    -0.059 C
HETATM    5  C14 UNL     1       1.484   2.197  20.850  1.00  0.00     0.048 C
HETATM    6  C15 UNL     1       2.648   1.214  22.752  1.00  0.00     0.031 C
HETATM    7  C16 UNL     1       3.192   0.151  23.646  1.00  0.00     0.138 C
HETATM    8  O4  UNL     1       3.145  -1.096  23.384  1.00  0.00    -0.336 OA
HETATM    9  C17 UNL     1       2.565  -2.184  23.936  1.00  0.00     0.148 C
HETATM   10  C18 UNL     1       1.691  -1.905  25.127  1.00  0.00     0.065 C
HETATM   11 CL1  UNL     1       3.980  -3.076  24.660  1.00  0.00    -0.087 Cl
HETATM   12  C19 UNL     1       2.045  -3.073  22.918  1.00  0.00     0.107 C
HETATM   13  C20 UNL     1       2.393  -4.561  22.847  1.00  0.00     0.200 C
HETATM   14  C21 UNL     1       1.855  -4.771  21.434  1.00  0.00     0.171 C
HETATM   15  O6  UNL     1       2.096  -5.752  20.791  1.00  0.00    -0.294 OA
HETATM   16  C22 UNL     1       1.001  -3.601  20.983  1.00  0.00     0.075 C
HETATM   17  C23 UNL     1      -0.270  -4.252  20.539  1.00  0.00     0.032 C
HETATM   18  C24 UNL     1       0.696  -3.162  22.434  1.00  0.00     0.083 C
HETATM   19  C25 UNL     1      -0.427  -2.304  22.671  1.00  0.00     0.048 C
ENDROOT
BRANCH   1  20
HETATM   20  C8  UNL     1       1.261  -2.764  18.670  1.00  0.00     0.064 C
BRANCH  20  21
HETATM   21  C7  UNL     1       2.261  -2.293  17.701  1.00  0.00    -0.016 C
HETATM   22  C5  UNL     1       2.146  -2.108  16.445  1.00  0.00    -0.065 C
HETATM   23  C6  UNL     1       0.937  -2.380  15.665  1.00  0.00     0.048 C
BRANCH  22  24
HETATM   24  C4  UNL     1       3.331  -1.613  15.687  1.00  0.00     0.012 C
HETATM   25  C3  UNL     1       3.954  -0.523  16.039  1.00  0.00     0.082 C
BRANCH  25  26
HETATM   26  C2  UNL     1       5.097  -0.032  15.319  1.00  0.00     0.282 C
HETATM   27  O2  UNL     1       5.004   0.434  14.159  1.00  0.00    -0.260 OA
BRANCH  26  28
HETATM   28  O1  UNL     1       6.371  -0.056  15.891  1.00  0.00    -0.323 OA
HETATM   29  C1  UNL     1       6.553  -0.154  17.293  1.00  0.00     0.213 C
ENDBRANCH  26  28
ENDBRANCH  25  26
ENDBRANCH  22  24
ENDBRANCH  20  21
ENDBRANCH   1  20
BRANCH   2  30
HETATM   30  C11 UNL     1       3.622  -1.384  19.718  1.00  0.00     0.270 C
HETATM   31  O3  UNL     1       4.676  -0.819  19.954  1.00  0.00    -0.301 OA
ENDBRANCH   2  30
BRANCH  18  32
HETATM   32  O7  UNL     1       0.154  -4.408  22.956  1.00  0.00    -0.388 OA
ATOM     33  H7  UNL     1      -0.539  -4.669  22.362  1.00  0.00     0.210 HD
ENDBRANCH  18  32
BRANCH  13  34
HETATM   34  O5  UNL     1       1.933  -5.369  23.798  1.00  0.00    -0.387 OA
ATOM     35  H5  UNL     1       1.182  -5.918  23.605  1.00  0.00     0.210 HD
ENDBRANCH  13  34
TORSDOF 8
ENDMDL