MODEL 2
REMARK VINA RESULT: -7.244897272      1.966      2.635
REMARK  9 active torsions:
REMARK  status: ('A' for Active; 'I' for Inactive)
REMARK    1  A    between atoms: C2_2  and  N1_4
REMARK    2  A    between atoms: C2_2  and  C4_8
REMARK    3  A    between atoms: C4_8  and  C5_9
REMARK       I    between atoms: C5_9  and  N2_11
REMARK    4  A    between atoms: C7_13  and  O2_14
REMARK    5  A    between atoms: O2_14  and  C8_15
REMARK    6  A    between atoms: C11_18  and  S1_19
REMARK    7  A    between atoms: S1_19  and  N3_22
REMARK    8  A    between atoms: N3_22  and  C12_24
REMARK    9  A    between atoms: C18_31  and  C19_32
ROOT
HETATM    1  C5  UNL     1       0.456  -1.612  25.691  1.00  0.00     0.222 C
HETATM    2  O1  UNL     1      -0.315  -0.741  26.135  1.00  0.00    -0.273 OA
HETATM    3  N2  UNL     1       1.634  -1.236  25.007  1.00  0.00    -0.342 N
HETATM    4  C6  UNL     1       2.670  -2.114  24.405  1.00  0.00     0.161 C
HETATM    5  C7  UNL     1       2.937  -0.982  23.377  1.00  0.00     0.170 C
HETATM    6  C18 UNL     1       2.427  -0.146  24.554  1.00  0.00     0.125 C
ENDROOT
BRANCH   5   7
HETATM    7  O2  UNL     1       2.140  -1.122  22.326  1.00  0.00    -0.340 OA
BRANCH   7   8
HETATM    8  C8  UNL     1       2.234  -1.271  20.998  1.00  0.00     0.091 A
HETATM    9  C9  UNL     1       2.093  -0.093  20.187  1.00  0.00     0.040 A
HETATM   10  C10 UNL     1       2.180  -0.175  18.825  1.00  0.00     0.028 A
HETATM   11  C11 UNL     1       2.399  -1.350  18.163  1.00  0.00     0.081 A
HETATM   12  C16 UNL     1       2.533  -2.470  18.931  1.00  0.00     0.052 A
HETATM   13  C17 UNL     1       2.453  -2.441  20.336  1.00  0.00     0.068 A
HETATM   14 CL1  UNL     1       2.652  -3.940  21.208  1.00  0.00    -0.081 Cl
BRANCH  11  15
HETATM   15  S1  UNL     1       2.499  -1.428  16.451  1.00  0.00     0.259 S
HETATM   16  O3  UNL     1       1.117  -1.105  15.913  1.00  0.00    -0.201 OA
HETATM   17  O4  UNL     1       2.733  -2.882  16.086  1.00  0.00    -0.201 OA
BRANCH  15  18
HETATM   18  N3  UNL     1       3.689  -0.413  15.840  1.00  0.00    -0.307 N
ATOM     19  H3  UNL     1       3.422   0.458  15.381  1.00  0.00     0.173 HD
BRANCH  18  20
HETATM   20  C12 UNL     1       5.048  -0.749  15.953  1.00  0.00     0.029 C
HETATM   21  C13 UNL     1       5.468  -2.141  15.658  1.00  0.00     0.038 C
HETATM   22  C14 UNL     1       5.602  -0.371  17.326  1.00  0.00     0.038 C
HETATM   23  C15 UNL     1       5.798   0.174  14.961  1.00  0.00     0.038 C
ENDBRANCH  18  20
ENDBRANCH  15  18
ENDBRANCH  11  15
ENDBRANCH   7   8
ENDBRANCH   5   7
BRANCH   6  24
HETATM   24  C19 UNL     1       1.844   1.171  24.248  1.00  0.00    -0.028 C
HETATM   25  C20 UNL     1       2.923   1.961  23.477  1.00  0.00     0.016 C
HETATM   26  C21 UNL     1       1.626   1.958  25.547  1.00  0.00     0.016 C
HETATM   27  C22 UNL     1       0.585   1.191  23.454  1.00  0.00     0.016 C
ENDBRANCH   6  24
BRANCH   1  28
HETATM   28  C4  UNL     1       0.102  -3.034  25.900  1.00  0.00     0.140 C
BRANCH  28  29
HETATM   29  C2  UNL     1      -0.880  -3.489  24.819  1.00  0.00     0.124 C
HETATM   30  C1  UNL     1      -0.061  -4.113  23.700  1.00  0.00     0.046 C
HETATM   31  C3  UNL     1      -1.788  -4.580  25.342  1.00  0.00     0.046 C
BRANCH  29  32
HETATM   32  N1  UNL     1      -1.589  -2.325  24.373  1.00  0.00    -0.071 N
ATOM     33  H13 UNL     1      -1.929  -2.440  23.419  1.00  0.00     0.275 HD
ATOM     34  H12 UNL     1      -2.485  -2.229  24.852  1.00  0.00     0.275 HD
ATOM     35  H11 UNL     1      -1.026  -1.480  24.467  1.00  0.00     0.275 HD
ENDBRANCH  29  32
ENDBRANCH  28  29
ENDBRANCH   1  28
TORSDOF 9
ENDMDL