MODEL 1
REMARK VINA RESULT: -8.057508645      0.000      0.000
REMARK  9 active torsions:
REMARK  status: ('A' for Active; 'I' for Inactive)
REMARK    1  A    between atoms: C3_3  and  C4_4
REMARK    2  A    between atoms: C5_5  and  C6_6
REMARK    3  A    between atoms: C6_6  and  O1_7
REMARK    4  A    between atoms: O1_7  and  C7_8
REMARK    5  A    between atoms: C7_8  and  C8_10
REMARK    6  A    between atoms: C8_10  and  C9_11
REMARK    7  A    between atoms: C15_18  and  O3_19
REMARK    8  A    between atoms: C16_21  and  O4_22
REMARK    9  A    between atoms: C21_28  and  O5_29
ROOT
HETATM    1  C4  UNL     1       2.070  -1.713  19.785  1.00  0.00    -0.016 A
HETATM    2  C5  UNL     1       2.107  -1.042  18.594  1.00  0.00    -0.022 A
HETATM    3  C11 UNL     1       2.157   0.358  18.592  1.00  0.00     0.032 A
HETATM    4  C12 UNL     1       2.171   1.113  19.728  1.00  0.00     0.045 A
HETATM    5 BR1  UNL     1       2.241   3.014  19.715  1.00  0.00    -0.048 Br
HETATM    6  C13 UNL     1       2.135   0.440  20.926  1.00  0.00     0.100 A
HETATM    7  C14 UNL     1       2.084  -0.944  20.942  1.00  0.00     0.026 A
HETATM    8  C15 UNL     1       2.042  -1.509  22.319  1.00  0.00     0.136 A
HETATM    9  C16 UNL     1       1.115  -2.145  23.090  1.00  0.00     0.111 A
HETATM   10  C17 UNL     1       1.371  -2.284  24.601  1.00  0.00     0.043 C
HETATM   11  C18 UNL     1       0.357  -1.285  25.143  1.00  0.00     0.009 C
HETATM   12  C19 UNL     1       0.073  -0.441  23.921  1.00  0.00     0.011 C
HETATM   13  C20 UNL     1       0.566   1.008  24.041  1.00  0.00     0.075 C
HETATM   14  C21 UNL     1       1.806   0.464  23.368  1.00  0.00     0.184 C
HETATM   15  O6  UNL     1       2.148   1.149  22.147  1.00  0.00    -0.311 OA
HETATM   16  C23 UNL     1       1.028  -0.703  22.935  1.00  0.00     0.093 A
ENDROOT
BRANCH   2  17
HETATM   17  C6  UNL     1       2.100  -1.726  17.276  1.00  0.00     0.218 C
BRANCH  17  18
HETATM   18  O1  UNL     1       3.425  -2.166  16.959  1.00  0.00    -0.317 OA
BRANCH  18  19
HETATM   19  C7  UNL     1       4.307  -1.261  16.378  1.00  0.00     0.259 C
HETATM   20  O2  UNL     1       3.936  -0.515  15.445  1.00  0.00    -0.265 OA
BRANCH  19  21
HETATM   21  C8  UNL     1       5.678  -1.214  16.897  1.00  0.00     0.111 C
BRANCH  21  22
HETATM   22  C9  UNL     1       5.864  -0.124  17.935  1.00  0.00     0.005 C
HETATM   23  C10 UNL     1       5.654  -0.721  19.288  1.00  0.00     0.005 C
ENDBRANCH  21  22
ENDBRANCH  19  21
ENDBRANCH  18  19
ENDBRANCH  17  18
ENDBRANCH   2  17
BRANCH   1  24
HETATM   24  C3  UNL     1       2.021  -3.137  19.925  1.00  0.00     0.008 C
HETATM   25  C2  UNL     1       2.872  -4.075  20.110  1.00  0.00    -0.030 C
HETATM   26  C1  UNL     1       2.327  -5.502  20.200  1.00  0.00     0.036 C
ENDBRANCH   1  24
BRANCH   8  27
HETATM   27  O3  UNL     1       3.384  -1.568  22.808  1.00  0.00    -0.381 OA
ATOM     28  H3  UNL     1       3.677  -2.470  22.747  1.00  0.00     0.211 HD
ENDBRANCH   8  27
BRANCH   9  29
HETATM   29  O4  UNL     1      -0.071  -2.819  22.754  1.00  0.00    -0.385 OA
ATOM     30  H4  UNL     1      -0.236  -3.553  22.174  1.00  0.00     0.210 HD
ENDBRANCH   9  29
BRANCH  14  31
HETATM   31  O5  UNL     1       2.823   0.319  24.267  1.00  0.00    -0.358 OA
HETATM   32  C22 UNL     1       3.680   1.387  24.189  1.00  0.00     0.205 C
ENDBRANCH  14  31
TORSDOF 9
ENDMDL