MODEL 5
REMARK VINA RESULT: -6.054095680      2.352      4.137
REMARK  0 active torsions:
REMARK  status: ('A' for Active; 'I' for Inactive)
ROOT
HETATM    1  N1  UNL     1      34.018  35.923  39.120  1.00  0.00    -0.082 NA
HETATM    2  C1  UNL     1      32.586  36.130  38.983  1.00  0.00     0.130 C
HETATM    3  C2  UNL     1      32.153  36.249  37.750  1.00  0.00     0.052 C
HETATM    4 CL1  UNL     1      33.300  36.153  36.381  1.00  0.00    -0.085 Cl
HETATM    5  C3  UNL     1      30.750  36.475  37.325  1.00  0.00     0.055 C
HETATM    6  C4  UNL     1      30.464  37.954  37.121  1.00  0.00     0.016 C
HETATM    7  C5  UNL     1      29.517  38.224  36.004  1.00  0.00     0.074 C
HETATM    8  S1  UNL     1      27.968  38.990  36.588  1.00  0.00    -0.169 SA
HETATM    9  C6  UNL     1      27.661  38.448  38.262  1.00  0.00     0.074 C
HETATM   10  C7  UNL     1      26.221  38.309  38.628  1.00  0.00     0.014 C
HETATM   11  C8  UNL     1      26.176  37.306  39.794  1.00  0.00     0.027 C
HETATM   12  C9  UNL     1      26.724  35.991  39.367  1.00  0.00    -0.031 C
HETATM   13  C10 UNL     1      27.643  35.297  40.000  1.00  0.00    -0.031 C
HETATM   14  C11 UNL     1      28.328  35.650  41.246  1.00  0.00     0.028 C
HETATM   15  C12 UNL     1      29.653  36.309  41.078  1.00  0.00     0.023 C
HETATM   16  C13 UNL     1      30.742  35.371  40.596  1.00  0.00     0.121 C
HETATM   17  N2  UNL     1      31.875  36.179  40.195  1.00  0.00    -0.377 N
ATOM     18  H2  UNL     1      32.196  36.868  40.875  1.00  0.00     0.160 HD
ENDROOT
TORSDOF 0
ENDMDL