MODEL 2
REMARK VINA RESULT: -8.269888477      2.656      6.663
REMARK  1 active torsions:
REMARK  status: ('A' for Active; 'I' for Inactive)
REMARK    1  A    between atoms: C2_2  and  C3_3
ROOT
HETATM    1  C3  UNL     1      27.059  36.710  40.265  1.00  0.00     0.007 A
HETATM    2  S1  UNL     1      27.970  35.758  41.347  1.00  0.00    -0.074 SA
HETATM    3  C4  UNL     1      29.403  35.594  40.439  1.00  0.00     0.089 A
HETATM    4  N1  UNL     1      30.643  35.054  40.421  1.00  0.00    -0.349 N
ATOM      5  H1  UNL     1      31.073  34.491  41.155  1.00  0.00     0.166 HD
HETATM    6  C5  UNL     1      31.195  35.404  39.252  1.00  0.00     0.070 A
HETATM    7  C6  UNL     1      30.300  36.172  38.543  1.00  0.00     0.089 A
HETATM    8  C7  UNL     1      29.130  36.296  39.298  1.00  0.00     0.051 A
HETATM    9  C8  UNL     1      27.913  36.876  39.208  1.00  0.00     0.062 A
HETATM   10 CL1  UNL     1      27.323  37.845  37.817  1.00  0.00    -0.082 Cl
HETATM   11  N2  UNL     1      30.972  36.679  37.352  1.00  0.00    -0.280 N
ATOM     12  H2  UNL     1      30.558  37.264  36.625  1.00  0.00     0.189 HD
HETATM   13  N3  UNL     1      32.325  36.205  37.392  1.00  0.00    -0.220 N
HETATM   14  N4  UNL     1      33.487  36.663  36.789  1.00  0.00    -0.294 N
ATOM     15  H4  UNL     1      33.415  37.280  35.980  1.00  0.00     0.187 HD
HETATM   16  C9  UNL     1      34.662  36.330  37.224  1.00  0.00     0.108 C
HETATM   17  C10 UNL     1      34.733  35.419  38.351  1.00  0.00     0.017 C
HETATM   18  C11 UNL     1      33.639  34.885  38.906  1.00  0.00     0.009 C
HETATM   19  C12 UNL     1      32.340  35.176  38.362  1.00  0.00     0.202 C
ENDROOT
BRANCH   1  20
HETATM   20  C2  UNL     1      25.656  37.218  40.467  1.00  0.00     0.043 C
HETATM   21  C1  UNL     1      25.158  36.891  41.863  1.00  0.00     0.010 C
ENDBRANCH   1  20
TORSDOF 1
ENDMDL