MODEL 4
REMARK VINA RESULT: -8.042085551      1.366      3.737
REMARK  1 active torsions:
REMARK  status: ('A' for Active; 'I' for Inactive)
REMARK    1  A    between atoms: C8_17  and  C9_18
ROOT
HETATM    1  N1  UNL     1      29.143  39.893  38.030  1.00  0.00    -0.197 NA
HETATM    2  C1  UNL     1      29.795  38.932  38.125  1.00  0.00     0.070 C
HETATM    3  C2  UNL     1      30.635  37.743  38.240  1.00  0.00     0.148 C
HETATM    4  C3  UNL     1      30.716  36.975  36.982  1.00  0.00     0.023 C
HETATM    5  N2  UNL     1      29.921  37.205  36.035  1.00  0.00    -0.403 N
ATOM      6  H21 UNL     1      29.977  36.675  35.165  1.00  0.00     0.155 HD
ATOM      7  H22 UNL     1      29.206  37.928  36.119  1.00  0.00     0.155 HD
HETATM    8  C4  UNL     1      31.751  35.930  36.859  1.00  0.00     0.180 C
HETATM    9 CL1  UNL     1      33.265  36.681  36.313  1.00  0.00    -0.112 Cl
HETATM   10  C5  UNL     1      31.936  35.324  38.223  1.00  0.00     0.058 A
HETATM   11  N3  UNL     1      32.680  34.254  38.549  1.00  0.00    -0.303 N
ATOM     12  H3  UNL     1      33.233  33.699  37.894  1.00  0.00     0.186 HD
HETATM   13  N4  UNL     1      32.585  34.028  39.862  1.00  0.00    -0.311 N
ATOM     14  H4  UNL     1      33.052  33.276  40.369  1.00  0.00     0.186 HD
HETATM   15  C6  UNL     1      31.774  34.951  40.411  1.00  0.00     0.116 A
HETATM   16  C7  UNL     1      31.367  35.767  39.363  1.00  0.00    -0.009 A
HETATM   17  C8  UNL     1      30.444  36.957  39.465  1.00  0.00     0.049 C
ENDROOT
BRANCH  17  18
HETATM   18  C9  UNL     1      29.135  36.440  39.868  1.00  0.00    -0.004 C
HETATM   19  C10 UNL     1      28.750  36.579  41.313  1.00  0.00     0.005 C
HETATM   20  C11 UNL     1      27.669  35.504  41.529  1.00  0.00     0.000 C
HETATM   21  C12 UNL     1      26.425  36.021  40.898  1.00  0.00     0.000 C
HETATM   22  C13 UNL     1      26.693  37.031  39.848  1.00  0.00     0.000 C
HETATM   23  C14 UNL     1      27.945  36.806  39.035  1.00  0.00     0.005 C
ENDBRANCH  17  18
TORSDOF 1
ENDMDL