MODEL 3
REMARK VINA RESULT: -7.487967418      2.357      4.345
REMARK  2 active torsions:
REMARK  status: ('A' for Active; 'I' for Inactive)
REMARK    1  A    between atoms: C2_2  and  C4_4
REMARK    2  A    between atoms: C2_2  and  N1_6
ROOT
HETATM    1  N1  UNL     1      29.480  36.453  38.853  1.00  0.00    -0.305 N
HETATM    2  C5  UNL     1      28.950  37.323  37.782  1.00  0.00     0.225 C
HETATM    3  O1  UNL     1      27.774  37.607  37.681  1.00  0.00    -0.273 OA
HETATM    4  C6  UNL     1      29.770  37.970  36.684  1.00  0.00     0.103 C
HETATM    5  C7  UNL     1      30.674  38.952  37.376  1.00  0.00     0.014 C
HETATM    6  C8  UNL     1      31.932  38.368  37.863  1.00  0.00     0.041 C
HETATM    7  C9  UNL     1      31.930  37.040  38.453  1.00  0.00    -0.029 A
HETATM    8  C10 UNL     1      33.215  36.576  38.606  1.00  0.00     0.011 A
HETATM    9  C11 UNL     1      33.452  35.316  39.114  1.00  0.00     0.029 A
HETATM   10  C12 UNL     1      32.442  34.480  39.483  1.00  0.00     0.072 A
HETATM   11  N2  UNL     1      32.599  33.189  40.006  1.00  0.00    -0.100 NA
HETATM   12  C13 UNL     1      31.124  34.938  39.334  1.00  0.00     0.098 A
HETATM   13  N3  UNL     1      30.061  34.083  39.583  1.00  0.00    -0.098 NA
HETATM   14  C14 UNL     1      30.872  36.170  38.843  1.00  0.00     0.070 A
ENDROOT
BRANCH   1  15
HETATM   15  C2  UNL     1      28.665  36.097  39.817  1.00  0.00     0.045 C
HETATM   16  C1  UNL     1      27.257  36.650  39.362  1.00  0.00     0.039 C
HETATM   17  C3  UNL     1      28.182  35.405  40.993  1.00  0.00     0.039 C
BRANCH  15  18
HETATM   18  C4  UNL     1      29.315  37.170  40.789  1.00  0.00     0.145 C
HETATM   19 CL1  UNL     1      29.041  36.635  42.507  1.00  0.00    -0.128 Cl
ENDBRANCH  15  18
ENDBRANCH   1  15
TORSDOF 2
ENDMDL