MODEL 3
REMARK VINA RESULT: -6.539365162      2.963      4.958
REMARK  3 active torsions:
REMARK  status: ('A' for Active; 'I' for Inactive)
REMARK    1  A    between atoms: C2_2  and  N1_3
REMARK    2  A    between atoms: C2_2  and  C7_15
REMARK    3  A    between atoms: C7_15  and  C10_18
ROOT
HETATM    1  N1  UNL     1      28.837  36.961  38.096  1.00  0.00    -0.246 N
HETATM    2  N2  UNL     1      27.608  37.402  38.304  1.00  0.00    -0.303 N
ATOM      3  H2  UNL     1      27.062  37.897  37.598  1.00  0.00     0.186 HD
HETATM    4  C3  UNL     1      27.159  37.142  39.510  1.00  0.00     0.126 A
HETATM    5  C4  UNL     1      28.174  36.472  40.153  1.00  0.00     0.067 A
HETATM    6  C5  UNL     1      28.571  35.866  41.326  1.00  0.00     0.130 A
HETATM    7  S1  UNL     1      27.655  35.753  42.665  1.00  0.00    -0.058 SA
HETATM    8  N3  UNL     1      29.800  35.416  41.142  1.00  0.00    -0.288 N
ATOM      9  H3  UNL     1      30.363  34.920  41.832  1.00  0.00     0.188 HD
HETATM   10  N4  UNL     1      30.174  35.718  39.911  1.00  0.00    -0.282 N
ATOM     11  H4  UNL     1      31.084  35.482  39.513  1.00  0.00     0.188 HD
HETATM   12  C6  UNL     1      29.201  36.377  39.248  1.00  0.00     0.156 A
ENDROOT
BRANCH   1  13
HETATM   13  C2  UNL     1      29.630  37.091  36.863  1.00  0.00     0.019 C
HETATM   14  C1  UNL     1      28.766  37.340  35.688  1.00  0.00     0.066 C
BRANCH  13  15
HETATM   15  C7  UNL     1      30.904  37.815  36.996  1.00  0.00    -0.001 C
HETATM   16  C8  UNL     1      31.135  38.702  35.762  1.00  0.00     0.022 C
HETATM   17  C9  UNL     1      30.744  38.856  38.124  1.00  0.00     0.022 C
BRANCH  15  18
HETATM   18  C10 UNL     1      32.151  37.085  37.276  1.00  0.00    -0.039 C
HETATM   19  C11 UNL     1      33.236  37.513  36.272  1.00  0.00     0.015 C
HETATM   20  C12 UNL     1      32.778  37.350  38.636  1.00  0.00     0.015 C
HETATM   21  C13 UNL     1      32.073  35.588  37.092  1.00  0.00     0.015 C
ENDBRANCH  15  18
ENDBRANCH  13  15
ENDBRANCH   1  13
TORSDOF 3
ENDMDL