MODEL 1
REMARK VINA RESULT: -6.812197321      0.000      0.000
REMARK  2 active torsions:
REMARK  status: ('A' for Active; 'I' for Inactive)
REMARK    1  A    between atoms: C2_2  and  N1_3
REMARK    2  A    between atoms: C6_10  and  O1_11
ROOT
HETATM    1  N1  UNL     1      29.601  36.584  39.256  1.00  0.00    -0.366 N
HETATM    2  C3  UNL     1      30.888  36.009  38.987  1.00  0.00     0.114 C
HETATM    3  S1  UNL     1      31.323  34.701  39.890  1.00  0.00    -0.059 SA
HETATM    4  C4  UNL     1      31.875  36.416  38.028  1.00  0.00     0.061 A
HETATM    5  C5  UNL     1      31.815  37.333  37.000  1.00  0.00     0.087 A
HETATM    6  N2  UNL     1      33.003  37.329  36.397  1.00  0.00    -0.329 N
ATOM      7  H2  UNL     1      33.247  37.913  35.597  1.00  0.00     0.168 HD
HETATM    8  C6  UNL     1      33.834  36.459  36.980  1.00  0.00     0.164 A
HETATM    9  C7  UNL     1      33.163  35.861  38.014  1.00  0.00     0.101 A
HETATM   10 CL1  UNL     1      33.763  34.641  39.126  1.00  0.00    -0.079 Cl
HETATM   11  S2  UNL     1      30.389  38.328  36.602  1.00  0.00    -0.109 SA
HETATM   12  C8  UNL     1      29.682  38.848  38.194  1.00  0.00     0.105 C
HETATM   13  C9  UNL     1      28.923  37.739  38.858  1.00  0.00     0.091 C
HETATM   14  C10 UNL     1      27.668  37.536  38.049  1.00  0.00     0.033 C
ENDROOT
BRANCH   1  15
HETATM   15  C2  UNL     1      28.874  35.732  40.179  1.00  0.00     0.120 C
HETATM   16  C1  UNL     1      28.582  36.328  41.517  1.00  0.00     0.026 C
ENDBRANCH   1  15
BRANCH   8  17
HETATM   17  O1  UNL     1      35.134  36.189  36.630  1.00  0.00    -0.345 OA
ATOM     18  H1  UNL     1      35.605  36.512  35.871  1.00  0.00     0.219 HD
ENDBRANCH   8  17
TORSDOF 2
ENDMDL