MODEL 4
REMARK VINA RESULT: -6.948255818      1.454      1.706
REMARK  3 active torsions:
REMARK  status: ('A' for Active; 'I' for Inactive)
REMARK       I    between atoms: C2_2  and  N1_4
REMARK    1  A    between atoms: N1_4  and  C3_5
REMARK    2  A    between atoms: C5_7  and  C6_8
REMARK    3  A    between atoms: C10_12  and  O2_13
ROOT
HETATM    1  C3  UNL     1      30.376  36.577  38.962  1.00  0.00     0.146 A
HETATM    2  C4  UNL     1      29.237  36.271  39.640  1.00  0.00     0.060 A
HETATM    3  C5  UNL     1      27.969  36.933  39.337  1.00  0.00     0.011 A
HETATM    4  C10 UNL     1      27.904  37.847  38.394  1.00  0.00     0.191 A
HETATM    5  O3  UNL     1      29.021  38.202  37.674  1.00  0.00    -0.283 OA
HETATM    6  C11 UNL     1      30.292  37.577  37.937  1.00  0.00     0.136 A
HETATM    7  C12 UNL     1      31.295  37.980  37.209  1.00  0.00     0.045 C
HETATM    8  C13 UNL     1      31.027  39.041  36.173  1.00  0.00     0.065 C
HETATM    9 CL1  UNL     1      32.907  37.435  37.332  1.00  0.00    -0.086 Cl
ENDROOT
BRANCH   1  10
HETATM   10  N1  UNL     1      31.542  35.898  39.322  1.00  0.00    -0.368 NA
HETATM   11  C2  UNL     1      32.632  35.262  39.658  1.00  0.00     0.288 C
HETATM   12  C1  UNL     1      32.522  33.730  39.862  1.00  0.00     0.135 C
HETATM   13  O1  UNL     1      33.804  35.641  39.861  1.00  0.00    -0.258 OA
ENDBRANCH   1  10
BRANCH   3  14
HETATM   14  C6  UNL     1      26.820  36.526  40.113  1.00  0.00    -0.019 C
HETATM   15  C7  UNL     1      25.773  37.495  40.461  1.00  0.00     0.019 C
HETATM   16  C8  UNL     1      27.285  35.881  41.429  1.00  0.00     0.019 C
HETATM   17  C9  UNL     1      26.123  35.389  39.341  1.00  0.00     0.019 C
ENDBRANCH   3  14
BRANCH   4  18
HETATM   18  O2  UNL     1      26.671  38.432  38.158  1.00  0.00    -0.340 OA
ATOM     19  H2  UNL     1      26.584  39.359  38.346  1.00  0.00     0.220 HD
ENDBRANCH   4  18
TORSDOF 3
ENDMDL