MODEL 3
REMARK VINA RESULT: -6.164300355      0.972      1.329
REMARK  2 active torsions:
REMARK  status: ('A' for Active; 'I' for Inactive)
REMARK    1  A    between atoms: C2_2  and  C3_3
REMARK    2  A    between atoms: C2_2  and  C4_5
ROOT
HETATM    1  C4  UNL     1      29.975  37.087  36.751  1.00  0.00     0.103 C
HETATM    2  S1  UNL     1      31.767  37.301  36.262  1.00  0.00    -0.153 SA
HETATM    3  C5  UNL     1      32.294  35.831  37.181  1.00  0.00     0.118 C
HETATM    4  C6  UNL     1      31.325  35.839  38.306  1.00  0.00     0.013 A
HETATM    5  C7  UNL     1      30.143  36.473  38.082  1.00  0.00     0.036 A
HETATM    6  N1  UNL     1      29.257  36.476  39.095  1.00  0.00    -0.335 N
ATOM      7  H1  UNL     1      28.360  36.943  38.957  1.00  0.00     0.168 HD
HETATM    8  C8  UNL     1      29.500  35.887  40.288  1.00  0.00     0.177 A
HETATM    9  S2  UNL     1      28.372  35.927  41.489  1.00  0.00    -0.040 SA
HETATM   10  N2  UNL     1      30.658  35.263  40.517  1.00  0.00    -0.324 N
ATOM     11  H2  UNL     1      30.836  34.821  41.419  1.00  0.00     0.169 HD
HETATM   12  C9  UNL     1      31.580  35.225  39.550  1.00  0.00     0.111 A
HETATM   13  S3  UNL     1      33.023  34.458  39.809  1.00  0.00    -0.060 SA
ENDROOT
BRANCH   1  14
HETATM   14  C2  UNL     1      29.364  38.421  36.671  1.00  0.00     0.015 C
HETATM   15  C1  UNL     1      28.296  38.662  35.677  1.00  0.00     0.012 C
BRANCH  14  16
HETATM   16  C3  UNL     1      30.347  39.549  36.793  1.00  0.00     0.120 C
HETATM   17 CL1  UNL     1      30.475  39.913  38.563  1.00  0.00    -0.130 Cl
ENDBRANCH  14  16
ENDBRANCH   1  14
TORSDOF 2
ENDMDL