MODEL 4
REMARK VINA RESULT: -6.302544337      1.951      2.118
REMARK  1 active torsions:
REMARK  status: ('A' for Active; 'I' for Inactive)
REMARK    1  A    between atoms: C5_6  and  N1_7
REMARK       I    between atoms: N2_9  and  C6_11
ROOT
HETATM    1  C1  UNL     1      25.010  36.260  42.190  1.00  0.00     0.068 C
HETATM    2  C2  UNL     1      25.964  36.546  41.055  1.00  0.00     0.007 A
HETATM    3  C3  UNL     1      25.731  37.378  39.998  1.00  0.00     0.045 A
HETATM    4  C4  UNL     1      26.871  37.323  39.228  1.00  0.00     0.037 A
HETATM    5  S1  UNL     1      27.667  37.887  37.801  1.00  0.00    -0.068 SA
HETATM    6  C5  UNL     1      29.137  37.041  37.955  1.00  0.00     0.109 A
HETATM    7  C7  UNL     1      28.973  36.340  39.116  1.00  0.00     0.074 A
HETATM    8 BR1  UNL     1      30.457  35.212  39.678  1.00  0.00    -0.046 Br
HETATM    9  C8  UNL     1      27.800  36.492  39.766  1.00  0.00     0.070 A
HETATM   10  N5  UNL     1      27.199  36.026  40.903  1.00  0.00    -0.358 N
ATOM     11  H5  UNL     1      27.631  35.369  41.553  1.00  0.00     0.166 HD
ENDROOT
BRANCH   6  12
HETATM   12  N1  UNL     1      30.217  37.120  37.033  1.00  0.00    -0.290 N
HETATM   13  N2  UNL     1      31.392  37.450  37.382  1.00  0.00    -0.273 N
HETATM   14  C6  UNL     1      32.481  37.539  36.507  1.00  0.00     0.200 C
ATOM     15  H2  UNL     1      31.555  37.664  38.366  1.00  0.00     0.189 HD
HETATM   16  N3  UNL     1      32.399  37.597  35.219  1.00  0.00    -0.372 N
HETATM   17  N4  UNL     1      33.807  37.571  37.065  1.00  0.00    -0.062 NA
ATOM     18  H32 UNL     1      31.458  37.574  34.824  1.00  0.00     0.158 HD
ATOM     19  H31 UNL     1      33.192  37.662  34.581  1.00  0.00     0.158 HD
ATOM     20  H1  UNL     1      30.040  36.903  36.053  1.00  0.00     0.187 HD
ENDBRANCH   6  12
TORSDOF 1
ENDMDL