MODEL 2
REMARK VINA RESULT: -7.172683804      1.852      2.459
REMARK  3 active torsions:
REMARK  status: ('A' for Active; 'I' for Inactive)
REMARK    1  A    between atoms: C7_7  and  C8_8
REMARK    2  A    between atoms: C9_9  and  O1_10
REMARK    3  A    between atoms: C10_13  and  O3_14
ROOT
HETATM    1  C8  UNL     1      30.106  36.973  38.919  1.00  0.00     0.032 A
HETATM    2  C9  UNL     1      29.252  36.197  39.695  1.00  0.00     0.194 A
HETATM    3  O2  UNL     1      29.961  35.279  40.310  1.00  0.00    -0.263 OA
HETATM    4  C10 UNL     1      31.220  35.370  40.014  1.00  0.00     0.204 A
HETATM    5  C11 UNL     1      31.350  36.432  39.135  1.00  0.00     0.081 A
HETATM    6 BR1  UNL     1      32.980  37.036  38.360  1.00  0.00    -0.045 Br
ENDROOT
BRANCH   1   7
HETATM    7  C7  UNL     1      29.712  38.059  38.114  1.00  0.00     0.001 C
HETATM    8  C2  UNL     1      29.697  38.012  36.625  1.00  0.00    -0.032 C
HETATM    9  C1  UNL     1      30.961  38.291  35.880  1.00  0.00     0.016 C
HETATM   10  C3  UNL     1      28.933  36.915  35.964  1.00  0.00     0.016 C
HETATM   11  C4  UNL     1      28.779  39.236  36.779  1.00  0.00    -0.005 C
HETATM   12  C5  UNL     1      29.710  40.248  37.336  1.00  0.00     0.006 C
HETATM   13  C12 UNL     1      28.286  38.524  38.052  1.00  0.00     0.020 C
HETATM   14  C6  UNL     1      30.394  39.387  38.414  1.00  0.00     0.016 C
ENDBRANCH   1   7
BRANCH   2  15
HETATM   15  O1  UNL     1      27.861  36.326  39.837  1.00  0.00    -0.340 OA
ATOM     16  H1  UNL     1      27.182  35.812  39.415  1.00  0.00     0.220 HD
ENDBRANCH   2  15
BRANCH   4  17
HETATM   17  O3  UNL     1      32.299  34.596  40.448  1.00  0.00    -0.340 OA
ATOM     18  H3  UNL     1      32.802  34.649  41.252  1.00  0.00     0.220 HD
ENDBRANCH   4  17
TORSDOF 3
ENDMDL