MODEL 4
REMARK VINA RESULT: -8.893630217      2.601      3.889
REMARK  10 active torsions:
REMARK  status: ('A' for Active; 'I' for Inactive)
REMARK    1  A    between atoms: C6_6  and  N1_7
REMARK       I    between atoms: N1_7  and  C7_9
REMARK       I    between atoms: C7_9  and  N2_11
REMARK    2  A    between atoms: C10_14  and  C11_15
REMARK    3  A    between atoms: C11_15  and  C12_16
REMARK    4  A    between atoms: C12_16  and  N3_17
REMARK    5  A    between atoms: N3_17  and  S1_19
REMARK    6  A    between atoms: S1_19  and  C13_22
REMARK    7  A    between atoms: N5_32  and  C21_33
REMARK    8  A    between atoms: C21_33  and  C22_34
REMARK    9  A    between atoms: C22_34  and  C23_35
REMARK   10  A    between atoms: C29_41  and  O4_42
ROOT
HETATM    1  C1  UNL     1       0.243   2.916  12.038  1.00  0.00     0.018 C
HETATM    2  C2  UNL     1       0.579   1.968  10.925  1.00  0.00     0.056 C
HETATM    3  C3  UNL     1       0.980   0.594  11.384  1.00  0.00     0.012 C
HETATM    4  C4  UNL     1       2.185   0.017  10.723  1.00  0.00     0.003 C
HETATM    5  C5  UNL     1       3.013  -0.654  11.799  1.00  0.00     0.027 C
HETATM    6  C6  UNL     1       4.505  -0.434  11.622  1.00  0.00     0.103 C
HETATM    7  C18 UNL     1       4.869   1.033  11.572  1.00  0.00     0.139 C
HETATM    8  N4  UNL     1       3.847   1.772  12.210  1.00  0.00    -0.415 N
ATOM      9  H4  UNL     1       3.170   1.310  12.818  1.00  0.00     0.153 HD
HETATM   10  C19 UNL     1       3.784   3.167  11.988  1.00  0.00     0.159 C
HETATM   11  C20 UNL     1       3.613   3.683  10.634  1.00  0.00     0.085 C
HETATM   12  N5  UNL     1       2.438   3.512   9.876  1.00  0.00    -0.343 N
HETATM   13  C29 UNL     1       1.451   2.509   9.859  1.00  0.00     0.121 C
ENDROOT
BRANCH   6  14
HETATM   14  N1  UNL     1       5.104  -0.996  12.845  1.00  0.00    -0.337 N
HETATM   15  C7  UNL     1       5.448  -2.334  12.973  1.00  0.00     0.318 C
HETATM   16  O1  UNL     1       5.241  -3.105  11.981  1.00  0.00    -0.247 OA
HETATM   17  N2  UNL     1       6.011  -2.894  14.126  1.00  0.00    -0.334 N
HETATM   18  C8  UNL     1       6.368  -4.293  14.232  1.00  0.00     0.128 C
HETATM   19  C17 UNL     1       6.259  -2.096  15.301  1.00  0.00     0.128 C
HETATM   20  C9  UNL     1       7.817  -4.426  14.676  1.00  0.00     0.025 C
HETATM   21  C10 UNL     1       8.212  -3.555  15.801  1.00  0.00    -0.007 C
HETATM   22  C16 UNL     1       7.760  -2.099  15.601  1.00  0.00     0.025 C
ATOM     23  H1  UNL     1       5.273  -0.372  13.635  1.00  0.00     0.164 HD
BRANCH  21  24
HETATM   24  C11 UNL     1       9.676  -3.507  16.096  1.00  0.00     0.050 C
BRANCH  24  25
HETATM   25  C12 UNL     1      10.187  -4.628  16.956  1.00  0.00     0.073 C
BRANCH  25  26
HETATM   26  N3  UNL     1       9.249  -5.052  17.914  1.00  0.00    -0.299 N
ATOM     27  H3  UNL     1       9.009  -4.449  18.700  1.00  0.00     0.177 HD
BRANCH  26  28
HETATM   28  S1  UNL     1       8.529  -6.559  17.753  1.00  0.00     0.234 S
HETATM   29  O2  UNL     1       9.067  -7.424  18.918  1.00  0.00    -0.205 OA
HETATM   30  O3  UNL     1       9.103  -7.267  16.527  1.00  0.00    -0.205 OA
BRANCH  28  31
HETATM   31  C13 UNL     1       6.795  -6.674  17.665  1.00  0.00     0.129 A
HETATM   32  C14 UNL     1       5.820  -5.584  17.574  1.00  0.00     0.023 A
HETATM   33  C15 UNL     1       6.059  -6.208  18.906  1.00  0.00     0.023 A
ENDBRANCH  28  31
ENDBRANCH  26  28
ENDBRANCH  25  26
ENDBRANCH  24  25
ENDBRANCH  21  24
ENDBRANCH   6  14
BRANCH  13  34
HETATM   34  O4  UNL     1       1.227   1.920   8.716  1.00  0.00    -0.349 OA
ATOM     35  H4  UNL     1       1.557   2.436   7.991  1.00  0.00     0.219 HD
ENDBRANCH  13  34
BRANCH  12  36
HETATM   36  C21 UNL     1       2.194   4.590   8.864  1.00  0.00     0.130 C
BRANCH  36  37
HETATM   37  C22 UNL     1       3.338   4.663   7.892  1.00  0.00     0.025 C
BRANCH  37  38
HETATM   38  C23 UNL     1       3.031   3.947   6.635  1.00  0.00    -0.013 C
HETATM   39  C24 UNL     1       1.832   4.420   5.889  1.00  0.00     0.005 C
HETATM   40  C25 UNL     1       2.002   5.801   5.308  1.00  0.00     0.000 C
HETATM   41  C26 UNL     1       3.399   6.082   4.857  1.00  0.00     0.000 C
HETATM   42  C27 UNL     1       4.059   4.766   4.498  1.00  0.00     0.000 C
HETATM   43  C28 UNL     1       4.281   3.991   5.753  1.00  0.00     0.005 C
ENDBRANCH  37  38
ENDBRANCH  36  37
ENDBRANCH  12  36
TORSDOF 10
ENDMDL