MODEL 1
REMARK VINA RESULT: -8.835349246      0.000      0.000
REMARK  10 active torsions:
REMARK  status: ('A' for Active; 'I' for Inactive)
REMARK    1  A    between atoms: N1_5  and  C5_6
REMARK    2  A    between atoms: C5_6  and  C6_7
REMARK    3  A    between atoms: C6_7  and  N2_8
REMARK    4  A    between atoms: C6_7  and  C16_22
REMARK       I    between atoms: N2_8  and  C7_10
REMARK    5  A    between atoms: C7_10  and  C8_12
REMARK    6  A    between atoms: C8_12  and  C9_13
REMARK    7  A    between atoms: C8_12  and  C10_16
REMARK    8  A    between atoms: C9_13  and  O2_14
REMARK       I    between atoms: C16_22  and  N3_24
REMARK       I    between atoms: N4_27  and  C19_28
REMARK    9  A    between atoms: C22_35  and  C23_36
REMARK   10  A    between atoms: C23_36  and  C24_37
ROOT
HETATM    1  C16 UNL     1       6.627  -1.624  14.049  1.00  0.00     0.248 C
HETATM    2  O3  UNL     1       7.286  -2.507  13.382  1.00  0.00    -0.271 OA
HETATM    3  N3  UNL     1       6.405  -1.783  15.431  1.00  0.00    -0.342 N
HETATM    4  C17 UNL     1       5.568  -0.755  16.093  1.00  0.00     0.146 C
HETATM    5  C18 UNL     1       4.718  -1.459  17.165  1.00  0.00     0.145 C
HETATM    6  N4  UNL     1       4.463  -2.836  16.796  1.00  0.00    -0.351 N
HETATM    7  C19 UNL     1       3.165  -3.354  16.664  1.00  0.00     0.199 C
HETATM    8  N5  UNL     1       2.344  -3.449  17.848  1.00  0.00    -0.063 NA
HETATM    9  N6  UNL     1       2.642  -3.749  15.579  1.00  0.00    -0.267 N
ATOM     10  H6  UNL     1       1.687  -4.099  15.649  1.00  0.00     0.180 HD
HETATM   11  C20 UNL     1       3.193  -3.765  14.323  1.00  0.00     0.184 C
HETATM   12  N7  UNL     1       3.639  -3.791  13.260  1.00  0.00    -0.172 NA
HETATM   13  C21 UNL     1       5.620  -3.696  16.580  1.00  0.00     0.150 C
HETATM   14  C22 UNL     1       6.839  -2.810  16.302  1.00  0.00     0.105 C
ENDROOT
BRANCH  14  15
HETATM   15  C23 UNL     1       8.009  -3.629  15.992  1.00  0.00     0.031 C
BRANCH  15  16
HETATM   16  C24 UNL     1       7.802  -5.079  16.367  1.00  0.00    -0.013 C
HETATM   17  C25 UNL     1       8.317  -5.374  17.762  1.00  0.00     0.005 C
HETATM   18  C26 UNL     1       9.748  -5.035  17.982  1.00  0.00     0.000 C
HETATM   19  C27 UNL     1      10.599  -5.844  17.036  1.00  0.00     0.000 C
HETATM   20  C28 UNL     1      10.113  -5.713  15.628  1.00  0.00     0.000 C
HETATM   21  C29 UNL     1       8.660  -5.975  15.456  1.00  0.00     0.005 C
ENDBRANCH  15  16
ENDBRANCH  14  15
BRANCH   1  22
HETATM   22  C6  UNL     1       6.167  -0.496  13.212  1.00  0.00     0.215 C
BRANCH  22  23
HETATM   23  C5  UNL     1       6.950  -0.352  11.919  1.00  0.00     0.092 C
BRANCH  23  24
HETATM   24  N1  UNL     1       7.951   0.628  11.925  1.00  0.00    -0.391 N
HETATM   25  C4  UNL     1       8.677   0.880  10.738  1.00  0.00     0.122 C
HETATM   26  C3  UNL     1       7.944   1.934   9.933  1.00  0.00     0.024 C
HETATM   27  C2  UNL     1       7.580   3.134  10.770  1.00  0.00    -0.015 C
HETATM   28  C1  UNL     1       6.615   3.980   9.966  1.00  0.00     0.010 C
HETATM   29  C31 UNL     1       6.867   2.738  12.047  1.00  0.00     0.024 C
HETATM   30  C30 UNL     1       7.783   1.765  12.764  1.00  0.00     0.122 C
ENDBRANCH  23  24
ENDBRANCH  22  23
BRANCH  22  31
HETATM   31  N2  UNL     1       4.788  -0.663  12.772  1.00  0.00    -0.343 N
HETATM   32  C7  UNL     1       3.779   0.274  12.910  1.00  0.00     0.225 C
HETATM   33  O1  UNL     1       4.032   1.376  13.463  1.00  0.00    -0.273 OA
ATOM     34  H2  UNL     1       4.545  -1.547  12.324  1.00  0.00     0.163 HD
BRANCH  32  35
HETATM   35  C8  UNL     1       2.405  -0.016  12.406  1.00  0.00     0.105 C
BRANCH  35  36
HETATM   36  C9  UNL     1       1.553  -0.300  13.623  1.00  0.00     0.178 C
BRANCH  36  37
HETATM   37  O2  UNL     1       2.319  -0.481  14.746  1.00  0.00    -0.400 OA
ATOM     38  H2  UNL     1       2.054   0.102  15.448  1.00  0.00     0.209 HD
ENDBRANCH  36  37
ENDBRANCH  35  36
BRANCH  35  39
HETATM   39  C10 UNL     1       1.816   1.174  11.704  1.00  0.00     0.001 C
HETATM   40  C11 UNL     1       1.519   0.883  10.239  1.00  0.00     0.005 C
HETATM   41  C12 UNL     1       0.743   2.058   9.685  1.00  0.00     0.000 C
HETATM   42  C13 UNL     1       0.768   3.243  10.631  1.00  0.00     0.000 C
HETATM   43  C14 UNL     1       0.145   2.934  11.952  1.00  0.00     0.000 C
HETATM   44  C15 UNL     1       0.479   1.496  12.317  1.00  0.00     0.005 C
ENDBRANCH  35  39
ENDBRANCH  32  35
ENDBRANCH  22  31
ENDBRANCH   1  22
TORSDOF 10
ENDMDL