MODEL 5
REMARK VINA RESULT: -9.247064439      2.629      5.250
REMARK  10 active torsions:
REMARK  status: ('A' for Active; 'I' for Inactive)
REMARK    1  A    between atoms: C2_2  and  C3_3
REMARK    2  A    between atoms: C3_3  and  N1_5
REMARK       I    between atoms: N1_5  and  C5_7
REMARK       I    between atoms: C5_7  and  N2_9
REMARK    3  A    between atoms: C9_13  and  C10_14
REMARK       I    between atoms: C10_14  and  N3_16
REMARK    4  A    between atoms: N3_16  and  C11_18
REMARK    5  A    between atoms: C11_18  and  C12_19
REMARK    6  A    between atoms: C11_18  and  C14_22
REMARK    7  A    between atoms: C14_22  and  C15_24
REMARK    8  A    between atoms: C15_24  and  C16_25
REMARK    9  A    between atoms: C15_24  and  N4_32
REMARK   10  A    between atoms: C16_25  and  C17_26
REMARK       I    between atoms: N4_32  and  C23_34
REMARK       I    between atoms: C23_34  and  N5_36
ROOT
HETATM    1  C11 UNL     1       6.371  -1.761  15.064  1.00  0.00     0.230 C
ENDROOT
BRANCH   1   2
HETATM    2  N3  UNL     1       6.168  -1.381  13.653  1.00  0.00    -0.340 N
HETATM    3  C10 UNL     1       6.362  -0.076  13.236  1.00  0.00     0.247 C
HETATM    4  O2  UNL     1       6.667   0.795  14.142  1.00  0.00    -0.271 OA
ATOM      5  H3  UNL     1       5.882  -2.089  12.977  1.00  0.00     0.163 HD
BRANCH   3   6
HETATM    6  C9  UNL     1       6.278   0.455  11.851  1.00  0.00     0.215 C
HETATM    7  C8  UNL     1       5.273   1.598  12.017  1.00  0.00     0.043 C
HETATM    8  C7  UNL     1       4.982   2.405  10.828  1.00  0.00     0.023 C
HETATM    9  C6  UNL     1       6.267   3.064  10.387  1.00  0.00     0.130 C
HETATM   10  N2  UNL     1       6.881   2.071   9.496  1.00  0.00    -0.313 N
HETATM   11  C5  UNL     1       6.616   2.230   8.098  1.00  0.00     0.320 C
HETATM   12  C30 UNL     1       7.635   0.953   9.987  1.00  0.00     0.298 C
HETATM   13  N1  UNL     1       5.642   3.165   7.687  1.00  0.00    -0.339 N
HETATM   14  O1  UNL     1       7.255   1.529   7.316  1.00  0.00    -0.247 OA
ATOM     15  H1  UNL     1       5.189   3.648   8.462  1.00  0.00     0.164 HD
HETATM   16  O6  UNL     1       7.493   0.788  11.359  1.00  0.00    -0.357 OA
BRANCH  13  17
HETATM   17  C3  UNL     1       5.168   3.565   6.412  1.00  0.00     0.081 C
HETATM   18  C4  UNL     1       6.005   4.795   6.022  1.00  0.00     0.032 C
BRANCH  17  19
HETATM   19  C2  UNL     1       3.723   3.965   6.290  1.00  0.00     0.020 C
HETATM   20  C1  UNL     1       3.027   4.005   7.612  1.00  0.00     0.007 C
ENDBRANCH  17  19
ENDBRANCH  13  17
ENDBRANCH   3   6
ENDBRANCH   1   2
BRANCH   1  21
HETATM   21  C12 UNL     1       7.264  -2.904  15.111  1.00  0.00     0.153 C
HETATM   22  C13 UNL     1       6.907  -4.226  14.521  1.00  0.00     0.093 C
HETATM   23  O3  UNL     1       8.361  -2.812  15.652  1.00  0.00    -0.296 OA
ENDBRANCH   1  21
BRANCH   1  24
HETATM   24  C14 UNL     1       5.130  -1.706  15.857  1.00  0.00     0.201 C
HETATM   25  O4  UNL     1       5.218  -1.173  16.954  1.00  0.00    -0.288 OA
BRANCH  24  26
HETATM   26  C15 UNL     1       3.884  -2.276  15.384  1.00  0.00     0.062 C
BRANCH  26  27
HETATM   27  C16 UNL     1       3.095  -3.301  16.038  1.00  0.00     0.065 C
BRANCH  27  28
HETATM   28  C17 UNL     1       3.723  -4.662  16.226  1.00  0.00    -0.009 C
HETATM   29  C18 UNL     1       3.850  -5.029  17.645  1.00  0.00     0.005 C
HETATM   30  C19 UNL     1       3.480  -6.480  17.920  1.00  0.00     0.000 C
HETATM   31  C20 UNL     1       3.941  -7.431  16.871  1.00  0.00     0.000 C
HETATM   32  C21 UNL     1       3.467  -7.034  15.498  1.00  0.00     0.000 C
HETATM   33  C22 UNL     1       2.808  -5.678  15.534  1.00  0.00     0.005 C
ENDBRANCH  27  28
ENDBRANCH  26  27
BRANCH  26  34
HETATM   34  N4  UNL     1       3.158  -1.354  14.534  1.00  0.00    -0.308 N
HETATM   35  C23 UNL     1       3.119  -1.327  13.133  1.00  0.00     0.327 C
HETATM   36  O5  UNL     1       3.730  -2.120  12.392  1.00  0.00    -0.246 OA
HETATM   37  N5  UNL     1       2.323  -0.327  12.488  1.00  0.00    -0.300 N
HETATM   38  C24 UNL     1       2.241  -0.450  11.006  1.00  0.00     0.212 C
HETATM   39  C29 UNL     1       1.698   0.702  13.280  1.00  0.00     0.092 C
HETATM   40  C25 UNL     1       1.502   0.634  10.491  1.00  0.00    -0.163 C
HETATM   41  C26 UNL     1       0.750   1.810  10.283  1.00  0.00     0.085 C
HETATM   42  C27 UNL     1       0.724   2.535  11.691  1.00  0.00     0.040 C
HETATM   43  C28 UNL     1       0.620   1.545  12.800  1.00  0.00    -0.008 C
ATOM     44  H4  UNL     1       2.610  -0.640  15.013  1.00  0.00     0.170 HD
ENDBRANCH  26  34
ENDBRANCH  24  26
ENDBRANCH   1  24
TORSDOF 10
ENDMDL