MODEL 1
REMARK VINA RESULT: -9.080680105      0.000      0.000
REMARK  11 active torsions:
REMARK  status: ('A' for Active; 'I' for Inactive)
REMARK    1  A    between atoms: C2_2  and  C5_5
REMARK    2  A    between atoms: C5_5  and  N1_6
REMARK    3  A    between atoms: C5_5  and  C20_29
REMARK       I    between atoms: N1_6  and  C6_7
REMARK    4  A    between atoms: C6_7  and  C7_9
REMARK    5  A    between atoms: C7_9  and  N2_10
REMARK       I    between atoms: N2_10  and  C8_12
REMARK    6  A    between atoms: C8_12  and  C9_14
REMARK    7  A    between atoms: C11_17  and  N3_18
REMARK    8  A    between atoms: C20_29  and  C21_31
REMARK       I    between atoms: C21_31  and  N5_33
REMARK    9  A    between atoms: N5_33  and  C22_35
REMARK   10  A    between atoms: C22_35  and  C23_36
REMARK   11  A    between atoms: C23_36  and  N6_37
ROOT
HETATM    1  N1  UNL     1       5.336  -3.243  15.704  1.00  0.00    -0.399 NA
HETATM    2  C6  UNL     1       6.272  -2.363  16.180  1.00  0.00     0.316 C
HETATM    3  O1  UNL     1       6.129  -1.631  17.192  1.00  0.00    -0.255 OA
ENDROOT
BRANCH   2   4
HETATM    4  C7  UNL     1       7.626  -2.167  15.526  1.00  0.00     0.127 C
HETATM    5  C16 UNL     1       7.779  -3.280  14.524  1.00  0.00     0.042 C
HETATM    6  C17 UNL     1       9.088  -3.951  14.806  1.00  0.00     0.003 C
HETATM    7  C18 UNL     1       9.631  -3.366  16.067  1.00  0.00     0.003 C
HETATM    8  C19 UNL     1       8.761  -2.199  16.475  1.00  0.00     0.042 C
BRANCH   4   9
HETATM    9  N2  UNL     1       7.634  -0.930  14.792  1.00  0.00    -0.337 N
HETATM   10  C8  UNL     1       7.143  -0.741  13.504  1.00  0.00     0.269 C
HETATM   11  O2  UNL     1       6.621  -1.648  12.861  1.00  0.00    -0.266 OA
ATOM     12  H2  UNL     1       8.037  -0.117  15.258  1.00  0.00     0.164 HD
BRANCH  10  13
HETATM   13  C9  UNL     1       7.234   0.599  12.832  1.00  0.00     0.109 A
HETATM   14  C10 UNL     1       7.619   1.740  13.495  1.00  0.00     0.088 A
HETATM   15  S1  UNL     1       7.494   2.924  12.258  1.00  0.00    -0.064 SA
HETATM   16  C11 UNL     1       6.963   1.903  10.983  1.00  0.00     0.147 A
HETATM   17  N4  UNL     1       6.915   0.730  11.578  1.00  0.00    -0.332 N
ATOM     18  H4  UNL     1       6.622  -0.090  11.047  1.00  0.00     0.168 HD
BRANCH  16  19
HETATM   19  N3  UNL     1       6.642   2.244   9.627  1.00  0.00    -0.361 N
HETATM   20  C12 UNL     1       7.107   1.540   8.475  1.00  0.00     0.125 C
HETATM   21  C13 UNL     1       6.734   2.424   7.291  1.00  0.00     0.021 C
HETATM   22  C14 UNL     1       6.434   3.779   7.911  1.00  0.00     0.021 C
HETATM   23  C15 UNL     1       5.809   3.326   9.235  1.00  0.00     0.125 C
ENDBRANCH  16  19
ENDBRANCH  10  13
ENDBRANCH   4   9
ENDBRANCH   2   4
BRANCH   1  24
HETATM   24  C5  UNL     1       4.390  -4.129  15.228  1.00  0.00     0.253 C
BRANCH  24  25
HETATM   25  C2  UNL     1       3.639  -4.853  16.349  1.00  0.00    -0.011 C
HETATM   26  C1  UNL     1       2.779  -5.983  15.904  1.00  0.00     0.018 C
HETATM   27  C3  UNL     1       4.586  -5.396  17.393  1.00  0.00     0.018 C
HETATM   28  C4  UNL     1       2.724  -3.871  17.075  1.00  0.00     0.018 C
ENDBRANCH  24  25
BRANCH  24  29
HETATM   29  C20 UNL     1       3.423  -3.548  14.251  1.00  0.00     0.252 C
HETATM   30  O3  UNL     1       2.621  -4.365  13.690  1.00  0.00    -0.284 OA
BRANCH  29  31
HETATM   31  C21 UNL     1       3.297  -2.168  13.870  1.00  0.00     0.290 C
HETATM   32  O4  UNL     1       2.880  -1.318  14.690  1.00  0.00    -0.264 OA
HETATM   33  N5  UNL     1       3.635  -1.720  12.575  1.00  0.00    -0.353 N
ATOM     34  H5  UNL     1       3.970  -2.428  11.921  1.00  0.00     0.162 HD
BRANCH  33  35
HETATM   35  C22 UNL     1       3.556  -0.373  12.078  1.00  0.00     0.151 C
BRANCH  35  36
HETATM   36  C23 UNL     1       2.293  -0.142  11.362  1.00  0.00     0.256 C
BRANCH  36  37
HETATM   37  N6  UNL     1       1.532   1.010  11.704  1.00  0.00    -0.069 N
HETATM   38  C24 UNL     1       0.669   0.612  12.825  1.00  0.00     0.272 C
HETATM   39  C25 UNL     1       2.255   2.156  12.146  1.00  0.00     0.237 C
HETATM   40  C26 UNL     1       2.509   3.164  11.050  1.00  0.00     0.028 C
HETATM   41  C27 UNL     1       1.225   3.797  10.564  1.00  0.00     0.003 C
HETATM   42  C28 UNL     1       0.115   2.833  10.933  1.00  0.00     0.028 C
HETATM   43  C29 UNL     1       0.618   1.434  10.657  1.00  0.00     0.237 C
ENDBRANCH  36  37
ENDBRANCH  35  36
ENDBRANCH  33  35
ENDBRANCH  29  31
ENDBRANCH  24  29
ENDBRANCH   1  24
TORSDOF 11
ENDMDL