MODEL 2
REMARK VINA RESULT: -7.547754853      3.253      6.998
REMARK  16 active torsions:
REMARK  status: ('A' for Active; 'I' for Inactive)
REMARK    1  A    between atoms: C9_9  and  C10_10
REMARK       I    between atoms: C10_10  and  N1_12
REMARK    2  A    between atoms: N1_12  and  C11_14
REMARK    3  A    between atoms: C11_14  and  C12_15
REMARK    4  A    between atoms: C12_15  and  N2_16
REMARK    5  A    between atoms: N3_20  and  C13_21
REMARK    6  A    between atoms: C13_21  and  O2_22
REMARK    7  A    between atoms: C13_21  and  C14_24
REMARK    8  A    between atoms: C14_24  and  N4_25
REMARK    9  A    between atoms: C14_24  and  C16_35
REMARK   10  A    between atoms: C14_24  and  C22_47
REMARK       I    between atoms: N4_25  and  C15_27
REMARK       I    between atoms: C15_27  and  N5_29
REMARK   11  A    between atoms: N5_29  and  N6_31
REMARK   12  A    between atoms: N6_31  and  N7_32
REMARK   13  A    between atoms: C16_35  and  O4_36
REMARK   14  A    between atoms: C16_35  and  N8_38
REMARK   15  A    between atoms: N8_38  and  C18_40
REMARK   16  A    between atoms: C18_40  and  C19_41
ROOT
HETATM    1  C14 UNL     1       5.325   2.662  11.104  1.00  0.00     0.171 C
ENDROOT
BRANCH   1   2
HETATM    2  C13 UNL     1       5.018   1.322  11.644  1.00  0.00     0.153 C
BRANCH   2   3
HETATM    3  N3  UNL     1       5.305   0.456  12.663  1.00  0.00    -0.345 N
HETATM    4  C9  UNL     1       4.297   0.182  13.706  1.00  0.00     0.207 C
HETATM    5  C8  UNL     1       4.619  -1.102  14.484  1.00  0.00    -0.048 C
HETATM    6  C2  UNL     1       5.247  -2.072  13.544  1.00  0.00     0.018 C
HETATM    7  C7  UNL     1       5.143  -0.942  15.828  1.00  0.00    -0.021 C
HETATM    8  C1  UNL     1       5.115  -3.510  13.888  1.00  0.00     0.015 C
HETATM    9  C3  UNL     1       6.623  -1.624  13.134  1.00  0.00     0.011 C
HETATM   10  C4  UNL     1       7.698  -2.034  14.083  1.00  0.00     0.007 C
HETATM   11  C26 UNL     1       6.562  -0.116  12.953  1.00  0.00     0.131 C
HETATM   12  C5  UNL     1       7.320  -2.155  15.498  1.00  0.00     0.004 C
HETATM   13  C6  UNL     1       6.574  -1.059  16.147  1.00  0.00     0.027 C
BRANCH   4  14
HETATM   14  C10 UNL     1       2.915   0.082  13.234  1.00  0.00     0.244 C
HETATM   15  O1  UNL     1       2.577  -1.085  12.809  1.00  0.00    -0.271 OA
HETATM   16  N1  UNL     1       1.907   1.060  13.169  1.00  0.00    -0.357 N
ATOM     17  H1  UNL     1       2.120   2.004  13.491  1.00  0.00     0.162 HD
BRANCH  16  18
HETATM   18  C11 UNL     1       0.594   0.787  12.669  1.00  0.00     0.150 C
BRANCH  18  19
HETATM   19  C12 UNL     1       0.337   1.169  11.251  1.00  0.00     0.249 C
BRANCH  19  20
HETATM   20  N2  UNL     1       1.293   0.607  10.311  1.00  0.00    -0.078 N
ATOM     21  H23 UNL     1       1.987   1.305  10.044  1.00  0.00     0.274 HD
ATOM     22  H22 UNL     1       1.899  -0.069  10.775  1.00  0.00     0.274 HD
ATOM     23  H21 UNL     1       0.862   0.195   9.483  1.00  0.00     0.274 HD
ENDBRANCH  19  20
ENDBRANCH  18  19
ENDBRANCH  16  18
ENDBRANCH   4  14
ENDBRANCH   2   3
BRANCH   2  24
HETATM   24  O2  UNL     1       4.120   0.728  10.823  1.00  0.00    -0.347 OA
ATOM     25  H2  UNL     1       4.506   0.663   9.957  1.00  0.00     0.219 HD
ENDBRANCH   2  24
ENDBRANCH   1   2
BRANCH   1  26
HETATM   26  N4  UNL     1       5.813   2.260   9.688  1.00  0.00    -0.316 N
HETATM   27  C15 UNL     1       6.809   1.505   9.224  1.00  0.00     0.348 C
HETATM   28  O3  UNL     1       7.733   0.840   9.706  1.00  0.00    -0.245 OA
HETATM   29  N5  UNL     1       6.869   1.403   7.722  1.00  0.00    -0.165 N
ATOM     30  H5  UNL     1       6.336   0.689   7.227  1.00  0.00     0.209 HD
ATOM     31  H4  UNL     1       5.244   2.664   8.944  1.00  0.00     0.166 HD
BRANCH  29  32
HETATM   32  N6  UNL     1       7.569   2.193   7.113  1.00  0.00    -0.239 NA
BRANCH  32  33
HETATM   33  N7  UNL     1       8.174   3.064   6.460  1.00  0.00    -0.260 N
ATOM     34  H72 UNL     1       7.843   3.666   7.214  1.00  0.00     0.193 HD
ATOM     35  H71 UNL     1       8.695   3.700   5.855  1.00  0.00     0.193 HD
ENDBRANCH  32  33
ENDBRANCH  29  32
ENDBRANCH   1  26
BRANCH   1  36
HETATM   36  C16 UNL     1       4.112   3.400  10.822  1.00  0.00     0.155 C
BRANCH  36  37
HETATM   37  O4  UNL     1       3.222   3.349  11.861  1.00  0.00    -0.347 OA
ATOM     38  H4  UNL     1       3.118   4.192  12.287  1.00  0.00     0.219 HD
ENDBRANCH  36  37
BRANCH  36  39
HETATM   39  N8  UNL     1       3.537   4.163   9.830  1.00  0.00    -0.341 N
HETATM   40  C17 UNL     1       2.054   4.011   9.567  1.00  0.00     0.157 C
BRANCH  39  41
HETATM   41  C18 UNL     1       4.095   5.083   8.923  1.00  0.00     0.129 C
BRANCH  41  42
HETATM   42  C19 UNL     1       3.983   4.662   7.467  1.00  0.00     0.089 A
HETATM   43  N9  UNL     1       4.556   3.634   6.862  1.00  0.00    -0.359 N
HETATM   44  C20 UNL     1       4.341   3.419   5.609  1.00  0.00     0.096 A
ATOM     45  H9  UNL     1       5.169   3.012   7.387  1.00  0.00     0.166 HD
HETATM   46  C21 UNL     1       3.511   4.279   4.944  1.00  0.00     0.069 A
HETATM   47  S1  UNL     1       3.086   5.370   6.201  1.00  0.00    -0.082 SA
ENDBRANCH  41  42
ENDBRANCH  39  41
ENDBRANCH  36  39
ENDBRANCH   1  36
BRANCH   1  48
HETATM   48  C22 UNL     1       6.514   3.370  11.567  1.00  0.00    -0.010 C
HETATM   49  C23 UNL     1       7.481   2.762  12.520  1.00  0.00     0.018 C
HETATM   50  C24 UNL     1       6.092   4.653  12.351  1.00  0.00     0.018 C
HETATM   51  C25 UNL     1       7.360   3.932  10.419  1.00  0.00     0.018 C
ENDBRANCH   1  48
TORSDOF 16
ENDMDL