MODEL 4
REMARK VINA RESULT: -8.765402757      3.475      9.367
REMARK  10 active torsions:
REMARK  status: ('A' for Active; 'I' for Inactive)
REMARK    1  A    between atoms: C2_2  and  C3_3
REMARK    2  A    between atoms: C5_5  and  N1_6
REMARK    3  A    between atoms: C5_5  and  C31_41
REMARK       I    between atoms: N1_6  and  C6_8
REMARK    4  A    between atoms: C6_8  and  C7_10
REMARK       I    between atoms: N3_21  and  C17_22
REMARK    5  A    between atoms: C17_22  and  C18_24
REMARK    6  A    between atoms: C18_24  and  C19_25
REMARK    7  A    between atoms: C18_24  and  N4_28
REMARK    8  A    between atoms: C19_25  and  C20_26
REMARK       I    between atoms: N4_28  and  C22_30
REMARK    9  A    between atoms: C22_30  and  O4_32
REMARK   10  A    between atoms: O4_32  and  C23_33
ROOT
HETATM    1  C7  UNL     1       4.764   2.121  12.225  1.00  0.00     0.183 C
HETATM    2  C8  UNL     1       5.279   1.097  13.188  1.00  0.00     0.026 C
HETATM    3  C9  UNL     1       6.444   0.292  12.698  1.00  0.00     0.038 C
HETATM    4  C10 UNL     1       6.692  -0.981  13.400  1.00  0.00     0.273 C
HETATM    5  N2  UNL     1       5.846  -1.319  14.485  1.00  0.00     0.089 N
HETATM    6  C11 UNL     1       6.062  -2.711  14.816  1.00  0.00     0.310 C
HETATM    7  C12 UNL     1       4.489  -0.950  14.430  1.00  0.00     0.227 C
HETATM    8  C13 UNL     1       3.533  -2.047  14.050  1.00  0.00     0.036 C
HETATM    9  C14 UNL     1       2.774  -1.567  12.811  1.00  0.00     0.009 C
HETATM   10  C15 UNL     1       3.771  -0.578  12.256  1.00  0.00     0.010 C
HETATM   11  C16 UNL     1       3.209   0.376  11.240  1.00  0.00     0.132 C
HETATM   12  N3  UNL     1       3.522   1.726  11.593  1.00  0.00    -0.336 N
HETATM   13  C17 UNL     1       2.586   2.749  11.293  1.00  0.00     0.243 C
HETATM   14  O2  UNL     1       2.892   3.979  11.528  1.00  0.00    -0.271 OA
HETATM   15  C30 UNL     1       4.148   0.172  13.495  1.00  0.00     0.031 C
ENDROOT
BRANCH   1  16
HETATM   16  C6  UNL     1       5.762   2.632  11.263  1.00  0.00     0.242 C
HETATM   17  N1  UNL     1       5.724   2.333   9.880  1.00  0.00    -0.340 N
ATOM     18  H1  UNL     1       4.953   1.737   9.579  1.00  0.00     0.163 HD
HETATM   19  O1  UNL     1       6.695   3.363  11.673  1.00  0.00    -0.271 OA
BRANCH  17  20
HETATM   20  C5  UNL     1       6.615   2.753   8.854  1.00  0.00     0.129 A
HETATM   21  C3  UNL     1       7.136   1.775   7.854  1.00  0.00     0.049 A
HETATM   22  C4  UNL     1       8.087   2.439   8.828  1.00  0.00     0.054 A
BRANCH  21  23
HETATM   23  C2  UNL     1       7.322   2.191   6.441  1.00  0.00    -0.029 C
HETATM   24  C1  UNL     1       6.721   1.527   5.460  1.00  0.00     0.007 C
ENDBRANCH  21  23
BRANCH  20  25
HETATM   25  C31 UNL     1       6.288   4.078   8.229  1.00  0.00     0.203 C
HETATM   26  O5  UNL     1       5.175   4.292   7.713  1.00  0.00    -0.646 OA
HETATM   27  O6  UNL     1       7.237   5.076   8.225  1.00  0.00    -0.646 OA
ENDBRANCH  20  25
ENDBRANCH  17  20
ENDBRANCH   1  16
BRANCH  13  28
HETATM   28  C18 UNL     1       1.235   2.544  10.715  1.00  0.00     0.179 C
BRANCH  28  29
HETATM   29  C19 UNL     1       0.258   2.523  11.869  1.00  0.00     0.034 C
BRANCH  29  30
HETATM   30  C20 UNL     1      -0.253   1.145  12.164  1.00  0.00    -0.002 C
HETATM   31  C21 UNL     1       0.213   0.640  13.508  1.00  0.00     0.005 C
ENDBRANCH  29  30
ENDBRANCH  28  29
BRANCH  28  32
HETATM   32  N4  UNL     1       0.902   3.755   9.919  1.00  0.00    -0.324 N
HETATM   33  C22 UNL     1       1.208   3.870   8.557  1.00  0.00     0.361 C
HETATM   34  O3  UNL     1       1.795   2.919   7.952  1.00  0.00    -0.238 OA
ATOM     35  H4  UNL     1       0.432   4.532  10.383  1.00  0.00     0.165 HD
BRANCH  33  36
HETATM   36  O4  UNL     1       0.887   5.004   7.844  1.00  0.00    -0.298 OA
BRANCH  36  37
HETATM   37  C23 UNL     1       1.311   5.195   6.523  1.00  0.00     0.138 C
HETATM   38  C24 UNL     1       1.654   6.675   6.272  1.00  0.00     0.037 C
HETATM   39  C25 UNL     1       0.747   7.119   5.145  1.00  0.00    -0.012 C
HETATM   40  C26 UNL     1      -0.653   7.178   5.654  1.00  0.00     0.005 C
HETATM   41  C29 UNL     1       0.713   5.806   4.345  1.00  0.00     0.012 C
HETATM   42  C27 UNL     1      -0.988   5.706   5.911  1.00  0.00     0.007 C
HETATM   43  C28 UNL     1       0.250   4.933   5.514  1.00  0.00     0.016 C
ENDBRANCH  36  37
ENDBRANCH  33  36
ENDBRANCH  28  32
ENDBRANCH  13  28
TORSDOF 10
ENDMDL