MODEL 3
REMARK VINA RESULT: -7.865555212      2.668      4.975
REMARK  12 active torsions:
REMARK  status: ('A' for Active; 'I' for Inactive)
REMARK    1  A    between atoms: C15_15  and  C16_16
REMARK       I    between atoms: C16_16  and  N1_18
REMARK    2  A    between atoms: N1_18  and  C17_20
REMARK    3  A    between atoms: C17_20  and  C19_22
REMARK       I    between atoms: C19_22  and  N2_24
REMARK    4  A    between atoms: N2_24  and  C20_26
REMARK    5  A    between atoms: C20_26  and  C21_27
REMARK    6  A    between atoms: C20_26  and  C29_42
REMARK       I    between atoms: C21_27  and  N3_29
REMARK    7  A    between atoms: N3_29  and  C22_31
REMARK    8  A    between atoms: C22_31  and  C23_32
REMARK    9  A    between atoms: C22_31  and  C26_39
REMARK   10  A    between atoms: C23_32  and  O4_33
REMARK   11  A    between atoms: C23_32  and  C24_35
REMARK   12  A    between atoms: C24_35  and  O6_37
ROOT
HETATM    1  C1  UNL     1       6.842  -0.042   5.063  1.00  0.00     0.102 C
HETATM    2  C2  UNL     1       7.204   0.896   5.765  1.00  0.00    -0.160 C
HETATM    3  C3  UNL     1       7.615   1.977   6.607  1.00  0.00     0.054 C
HETATM    4  C4  UNL     1       7.653   3.226   6.240  1.00  0.00    -0.055 C
HETATM    5  C5  UNL     1       8.036   4.499   6.929  1.00  0.00    -0.017 C
HETATM    6  C6  UNL     1       9.099   4.353   7.971  1.00  0.00     0.020 C
HETATM    7  C7  UNL     1       8.476   4.984   5.587  1.00  0.00     0.028 C
HETATM    8  C8  UNL     1       7.372   4.053   5.060  1.00  0.00    -0.010 C
HETATM    9  C9  UNL     1       7.763   3.548   3.719  1.00  0.00     0.021 C
HETATM   10  C10 UNL     1       5.998   4.710   5.141  1.00  0.00    -0.016 C
HETATM   11  C11 UNL     1       4.991   3.610   4.907  1.00  0.00     0.018 C
HETATM   12  C12 UNL     1       5.940   5.684   3.979  1.00  0.00     0.011 C
HETATM   13  C13 UNL     1       6.058   7.064   4.546  1.00  0.00     0.002 C
HETATM   14  C14 UNL     1       6.026   6.954   6.032  1.00  0.00     0.020 C
HETATM   15  C15 UNL     1       5.784   5.481   6.374  1.00  0.00     0.050 C
HETATM   16  C33 UNL     1       6.813   5.168   7.459  1.00  0.00     0.033 C
ENDROOT
BRANCH  15  17
HETATM   17  C16 UNL     1       4.468   5.424   7.022  1.00  0.00     0.228 C
HETATM   18  O1  UNL     1       3.532   6.151   6.689  1.00  0.00    -0.273 OA
HETATM   19  N1  UNL     1       4.204   4.506   8.092  1.00  0.00    -0.347 N
ATOM     20  H1  UNL     1       4.957   3.888   8.395  1.00  0.00     0.163 HD
BRANCH  19  21
HETATM   21  C17 UNL     1       2.942   4.414   8.755  1.00  0.00     0.172 C
HETATM   22  C18 UNL     1       1.885   3.667   8.003  1.00  0.00     0.042 C
BRANCH  21  23
HETATM   23  C19 UNL     1       3.144   3.835  10.125  1.00  0.00     0.240 C
HETATM   24  O2  UNL     1       3.865   4.450  10.965  1.00  0.00    -0.271 OA
HETATM   25  N2  UNL     1       2.564   2.629  10.530  1.00  0.00    -0.345 N
ATOM     26  H2  UNL     1       1.982   2.128   9.859  1.00  0.00     0.163 HD
BRANCH  25  27
HETATM   27  C20 UNL     1       2.743   2.042  11.863  1.00  0.00     0.184 C
BRANCH  27  28
HETATM   28  C21 UNL     1       4.062   1.381  11.952  1.00  0.00     0.241 C
HETATM   29  O3  UNL     1       4.142   0.179  11.550  1.00  0.00    -0.271 OA
HETATM   30  N3  UNL     1       5.204   1.983  12.441  1.00  0.00    -0.348 N
ATOM     31  H3  UNL     1       5.159   2.948  12.767  1.00  0.00     0.163 HD
BRANCH  30  32
HETATM   32  C22 UNL     1       6.515   1.244  12.501  1.00  0.00     0.151 C
BRANCH  32  33
HETATM   33  C23 UNL     1       6.699   0.812  13.871  1.00  0.00     0.142 C
BRANCH  33  34
HETATM   34  O4  UNL     1       7.217   1.792  14.620  1.00  0.00    -0.357 OA
ATOM     35  H4  UNL     1       8.111   1.595  14.874  1.00  0.00     0.217 HD
ENDBRANCH  33  34
BRANCH  33  36
HETATM   36  C24 UNL     1       6.480  -0.367  14.613  1.00  0.00     0.314 C
HETATM   37  O5  UNL     1       7.228  -1.365  14.627  1.00  0.00    -0.257 OA
BRANCH  36  38
HETATM   38  O6  UNL     1       5.341  -0.536  15.449  1.00  0.00    -0.321 OA
HETATM   39  C25 UNL     1       5.342  -1.477  16.495  1.00  0.00     0.213 C
ENDBRANCH  36  38
ENDBRANCH  33  36
ENDBRANCH  32  33
BRANCH  32  40
HETATM   40  C26 UNL     1       7.517   1.989  11.752  1.00  0.00     0.007 C
HETATM   41  C27 UNL     1       7.168   3.434  11.556  1.00  0.00     0.012 C
HETATM   42  C28 UNL     1       7.803   1.405  10.368  1.00  0.00     0.012 C
ENDBRANCH  32  40
ENDBRANCH  30  32
ENDBRANCH  27  28
BRANCH  27  43
HETATM   43  C29 UNL     1       1.573   1.126  12.051  1.00  0.00    -0.022 C
HETATM   44  C30 UNL     1       1.706   0.106  13.121  1.00  0.00     0.017 C
HETATM   45  C31 UNL     1       0.364   1.990  12.371  1.00  0.00     0.017 C
HETATM   46  C32 UNL     1       1.280   0.414  10.743  1.00  0.00     0.017 C
ENDBRANCH  27  43
ENDBRANCH  25  27
ENDBRANCH  21  23
ENDBRANCH  19  21
ENDBRANCH  15  17
TORSDOF 12
ENDMDL