MODEL 1
REMARK VINA RESULT: -9.481836836      0.000      0.000
REMARK  12 active torsions:
REMARK  status: ('A' for Active; 'I' for Inactive)
REMARK    1  A    between atoms: C1_2  and  C2_3
REMARK       I    between atoms: C1_2  and  N5_29
REMARK    2  A    between atoms: C4_7  and  N2_8
REMARK    3  A    between atoms: N2_8  and  C5_10
REMARK    4  A    between atoms: C11_18  and  N4_19
REMARK    5  A    between atoms: N4_19  and  C12_21
REMARK    6  A    between atoms: C15_24  and  O2_25
REMARK    7  A    between atoms: N5_29  and  C18_30
REMARK    8  A    between atoms: N5_29  and  C30_44
REMARK    9  A    between atoms: C18_30  and  C19_31
REMARK   10  A    between atoms: C19_31  and  N6_32
REMARK   11  A    between atoms: C22_35  and  N7_36
REMARK   12  A    between atoms: C30_44  and  C31_45
ROOT
HETATM    1  C2  UNL     1       5.552  -1.519  13.134  1.00  0.00     0.092 A
HETATM    2  C3  UNL     1       6.878  -1.442  12.737  1.00  0.00     0.127 A
HETATM    3  N1  UNL     1       7.401  -0.313  12.259  1.00  0.00    -0.201 N
ATOM      4  H1  UNL     1       8.379  -0.268  11.969  1.00  0.00     0.183 HD
HETATM    5  C4  UNL     1       6.604   0.762  12.170  1.00  0.00     0.679 A
HETATM    6  N3  UNL     1       5.292   0.713  12.555  1.00  0.00    -0.176 N
ATOM      7  H3  UNL     1       4.722   1.555  12.469  1.00  0.00     0.186 HD
HETATM    8  C11 UNL     1       4.736  -0.385  13.032  1.00  0.00     0.134 A
ENDROOT
BRANCH   1   9
HETATM    9  C1  UNL     1       4.970  -2.726  13.670  1.00  0.00     0.262 C
HETATM   10  O1  UNL     1       4.251  -3.453  12.962  1.00  0.00    -0.267 OA
HETATM   11  N5  UNL     1       5.199  -3.140  15.053  1.00  0.00    -0.323 N
BRANCH  11  12
HETATM   12  C18 UNL     1       4.566  -4.345  15.493  1.00  0.00     0.175 C
BRANCH  12  13
HETATM   13  C19 UNL     1       4.219  -4.559  16.895  1.00  0.00     0.078 C
BRANCH  13  14
HETATM   14  N6  UNL     1       4.103  -5.828  17.457  1.00  0.00    -0.392 N
HETATM   15  C20 UNL     1       4.611  -5.963  18.804  1.00  0.00     0.124 C
HETATM   16  C21 UNL     1       6.099  -6.067  18.821  1.00  0.00     0.055 C
HETATM   17  C22 UNL     1       6.586  -6.919  17.660  1.00  0.00     0.226 C
HETATM   18  C28 UNL     1       5.426  -7.814  17.301  1.00  0.00     0.055 C
HETATM   19  C29 UNL     1       4.352  -6.958  16.637  1.00  0.00     0.124 C
BRANCH  17  20
HETATM   20  N7  UNL     1       7.776  -7.629  18.002  1.00  0.00     0.093 N
HETATM   21  C23 UNL     1       8.684  -6.844  18.815  1.00  0.00     0.273 C
HETATM   22  C24 UNL     1       9.262  -5.721  18.027  1.00  0.00     0.030 C
HETATM   23  C25 UNL     1      10.137  -6.316  16.928  1.00  0.00     0.003 C
HETATM   24  C26 UNL     1       9.227  -7.182  16.075  1.00  0.00     0.030 C
HETATM   25  C27 UNL     1       8.493  -8.198  16.925  1.00  0.00     0.273 C
ENDBRANCH  17  20
ENDBRANCH  13  14
ENDBRANCH  12  13
ENDBRANCH  11  12
BRANCH  11  26
HETATM   26  C30 UNL     1       6.189  -2.429  15.783  1.00  0.00     0.072 C
BRANCH  26  27
HETATM   27  C31 UNL     1       7.498  -2.974  16.119  1.00  0.00     0.024 A
HETATM   28  C32 UNL     1       8.624  -3.404  15.325  1.00  0.00     0.010 A
HETATM   29  C33 UNL     1       8.720  -2.030  15.890  1.00  0.00     0.010 A
ENDBRANCH  26  27
ENDBRANCH  11  26
ENDBRANCH   1   9
BRANCH   8  30
HETATM   30  N4  UNL     1       3.511  -0.474  13.391  1.00  0.00    -0.370 N
ATOM     31  H4  UNL     1       3.237  -1.244  14.001  1.00  0.00     0.161 HD
BRANCH  30  32
HETATM   32  C12 UNL     1       2.506   0.460  12.975  1.00  0.00     0.083 C
HETATM   33  C13 UNL     1       1.197   0.227  13.720  1.00  0.00     0.028 C
HETATM   34  C14 UNL     1       0.046   0.893  13.036  1.00  0.00     0.034 C
HETATM   35  C15 UNL     1       0.554   2.004  12.164  1.00  0.00     0.118 C
HETATM   36  C16 UNL     1       1.417   1.462  11.045  1.00  0.00     0.034 C
HETATM   37  C17 UNL     1       2.220   0.261  11.491  1.00  0.00     0.028 C
BRANCH  35  38
HETATM   38  O2  UNL     1      -0.548   2.699  11.661  1.00  0.00    -0.396 OA
ATOM     39  H2  UNL     1      -1.130   2.070  11.251  1.00  0.00     0.210 HD
ENDBRANCH  35  38
ENDBRANCH  30  32
ENDBRANCH   8  30
BRANCH   5  40
HETATM   40  N2  UNL     1       7.071   1.856  11.719  1.00  0.00    -0.221 N
ATOM     41  H2  UNL     1       7.882   2.268  12.179  1.00  0.00     0.178 HD
BRANCH  40  42
HETATM   42  C5  UNL     1       6.499   2.538  10.580  1.00  0.00     0.099 C
HETATM   43  C6  UNL     1       6.930   1.716   9.356  1.00  0.00     0.026 C
HETATM   44  C7  UNL     1       6.870   2.621   8.167  1.00  0.00     0.002 C
HETATM   45  C8  UNL     1       7.988   3.632   8.265  1.00  0.00     0.000 C
HETATM   46  C9  UNL     1       8.383   3.846   9.707  1.00  0.00     0.002 C
HETATM   47  C10 UNL     1       7.103   3.925  10.513  1.00  0.00     0.026 C
ENDBRANCH  40  42
ENDBRANCH   5  40
TORSDOF 12
ENDMDL