MODEL 1
REMARK VINA RESULT: -9.835414197      0.000      0.000
REMARK  14 active torsions:
REMARK  status: ('A' for Active; 'I' for Inactive)
REMARK    1  A    between atoms: C2_2  and  C4_4
REMARK    2  A    between atoms: C4_4  and  C5_5
REMARK    3  A    between atoms: C5_5  and  N1_6
REMARK    4  A    between atoms: C5_5  and  C6_10
REMARK    5  A    between atoms: C6_10  and  C7_12
REMARK    6  A    between atoms: C7_12  and  C8_13
REMARK    7  A    between atoms: C7_12  and  C26_35
REMARK    8  A    between atoms: C8_13  and  N2_14
REMARK    9  A    between atoms: C11_17  and  C12_18
REMARK   10  A    between atoms: C20_26  and  C21_27
REMARK       I    between atoms: C21_27  and  N3_29
REMARK   11  A    between atoms: N3_29  and  C22_31
REMARK   12  A    between atoms: C26_35  and  O3_36
REMARK   13  A    between atoms: C26_35  and  N4_38
REMARK   14  A    between atoms: N5_41  and  N6_42
ROOT
HETATM    1  C7  UNL     1       5.504  -3.238  15.352  1.00  0.00     0.078 C
ENDROOT
BRANCH   1   2
HETATM    2  C6  UNL     1       4.739  -2.698  16.478  1.00  0.00     0.195 C
HETATM    3  O1  UNL     1       5.064  -1.629  16.961  1.00  0.00    -0.290 OA
BRANCH   2   4
HETATM    4  C5  UNL     1       3.568  -3.350  17.104  1.00  0.00     0.258 C
BRANCH   4   5
HETATM    5  C4  UNL     1       2.748  -4.171  16.201  1.00  0.00     0.045 C
BRANCH   5   6
HETATM    6  C2  UNL     1       2.764  -5.617  16.607  1.00  0.00    -0.020 C
HETATM    7  C1  UNL     1       3.427  -6.552  15.658  1.00  0.00     0.009 C
HETATM    8  C3  UNL     1       3.424  -5.789  17.986  1.00  0.00     0.009 C
ENDBRANCH   5   6
ENDBRANCH   4   5
BRANCH   4   9
HETATM    9  N1  UNL     1       2.749  -2.383  17.803  1.00  0.00    -0.068 N
ATOM     10  H13 UNL     1       3.202  -1.470  17.852  1.00  0.00     0.275 HD
ATOM     11  H12 UNL     1       1.929  -2.119  17.258  1.00  0.00     0.275 HD
ATOM     12  H11 UNL     1       2.493  -2.728  18.729  1.00  0.00     0.275 HD
ENDBRANCH   4   9
ENDBRANCH   2   4
ENDBRANCH   1   2
BRANCH   1  13
HETATM   13  C8  UNL     1       5.224  -2.565  14.008  1.00  0.00     0.106 C
BRANCH  13  14
HETATM   14  N2  UNL     1       4.379  -1.464  14.037  1.00  0.00    -0.376 N
HETATM   15  C9  UNL     1       3.021  -1.694  13.667  1.00  0.00     0.123 C
HETATM   16  C10 UNL     1       2.519  -0.993  12.448  1.00  0.00     0.025 C
HETATM   17  C11 UNL     1       3.368   0.186  12.142  1.00  0.00    -0.006 C
HETATM   18  C19 UNL     1       3.761   0.809  13.452  1.00  0.00     0.040 C
HETATM   19  C20 UNL     1       4.776  -0.145  14.164  1.00  0.00     0.176 C
BRANCH  17  20
HETATM   20  C12 UNL     1       2.738   1.235  11.274  1.00  0.00    -0.010 C
HETATM   21  C13 UNL     1       1.369   0.785  10.836  1.00  0.00     0.005 C
HETATM   22  C14 UNL     1       0.247   1.548  11.466  1.00  0.00     0.000 C
HETATM   23  C15 UNL     1       0.139   2.974  11.033  1.00  0.00     0.000 C
HETATM   24  C16 UNL     1       1.209   3.402  10.054  1.00  0.00     0.000 C
HETATM   25  C17 UNL     1       2.555   3.573  10.682  1.00  0.00     0.000 C
HETATM   26  C18 UNL     1       2.732   2.607  11.864  1.00  0.00     0.005 C
ENDBRANCH  17  20
BRANCH  19  27
HETATM   27  C21 UNL     1       6.049   0.317  13.635  1.00  0.00     0.241 C
HETATM   28  O2  UNL     1       7.079  -0.351  13.648  1.00  0.00    -0.271 OA
HETATM   29  N3  UNL     1       6.113   1.617  13.067  1.00  0.00    -0.351 N
ATOM     30  H3  UNL     1       5.264   2.181  13.048  1.00  0.00     0.163 HD
BRANCH  29  31
HETATM   31  C22 UNL     1       7.320   2.179  12.515  1.00  0.00     0.022 C
HETATM   32  C23 UNL     1       7.049   3.605  12.018  1.00  0.00     0.037 C
HETATM   33  C24 UNL     1       8.346   2.306  13.611  1.00  0.00     0.037 C
HETATM   34  C25 UNL     1       7.839   1.376  11.345  1.00  0.00     0.037 C
ENDBRANCH  29  31
ENDBRANCH  19  27
ENDBRANCH  13  14
ENDBRANCH   1  13
BRANCH   1  35
HETATM   35  C26 UNL     1       6.922  -3.517  15.586  1.00  0.00     0.153 C
BRANCH  35  36
HETATM   36  O3  UNL     1       7.751  -2.579  15.209  1.00  0.00    -0.345 OA
ATOM     37  H3  UNL     1       8.529  -2.879  14.754  1.00  0.00     0.219 HD
ENDBRANCH  35  36
BRANCH  35  38
HETATM   38  N4  UNL     1       7.520  -4.656  16.164  1.00  0.00    -0.358 N
HETATM   39  C27 UNL     1       6.776  -5.660  16.828  1.00  0.00     0.141 C
HETATM   40  C28 UNL     1       7.384  -6.089  18.141  1.00  0.00     0.134 C
HETATM   41  N5  UNL     1       8.796  -5.822  18.205  1.00  0.00    -0.226 NA
HETATM   42  C29 UNL     1       9.453  -5.883  16.942  1.00  0.00     0.041 C
HETATM   43  C30 UNL     1       9.277  -7.245  16.322  1.00  0.00     0.035 C
HETATM   44  C31 UNL     1      10.949  -5.721  17.226  1.00  0.00     0.035 C
HETATM   45  C32 UNL     1       8.991  -4.778  16.066  1.00  0.00     0.151 C
BRANCH  41  46
HETATM   46  N6  UNL     1       9.409  -6.619  19.174  1.00  0.00    -0.362 NA
ATOM     47  H62 UNL     1       8.741  -7.161  19.722  1.00  0.00     0.171 HD
ATOM     48  H61 UNL     1      10.057  -6.070  19.738  1.00  0.00     0.171 HD
ENDBRANCH  41  46
ENDBRANCH  35  38
ENDBRANCH   1  35
TORSDOF 14
ENDMDL