MODEL 1
REMARK VINA RESULT: -9.281957779      0.000      0.000
REMARK  11 active torsions:
REMARK  status: ('A' for Active; 'I' for Inactive)
REMARK    1  A    between atoms: C2_2  and  C3_3
REMARK    2  A    between atoms: C3_3  and  N1_4
REMARK       I    between atoms: N1_4  and  C4_6
REMARK    3  A    between atoms: C4_6  and  C5_8
REMARK       I    between atoms: N2_12  and  C9_13
REMARK    4  A    between atoms: C9_13  and  C10_15
REMARK    5  A    between atoms: C10_15  and  N3_16
REMARK    6  A    between atoms: C12_18  and  C13_19
REMARK       I    between atoms: C13_19  and  N4_21
REMARK    7  A    between atoms: N4_21  and  C14_23
REMARK    8  A    between atoms: C26_35  and  C27_36
REMARK    9  A    between atoms: C28_37  and  C29_38
REMARK   10  A    between atoms: C29_38  and  O5_40
REMARK   11  A    between atoms: O5_40  and  C30_41
ROOT
HETATM    1  N3  UNL     1       4.389  -0.604  12.278  1.00  0.00    -0.346 N
HETATM    2  C11 UNL     1       4.555  -1.262  13.434  1.00  0.00     0.109 A
HETATM    3  C12 UNL     1       5.894  -1.212  13.844  1.00  0.00     0.060 A
HETATM    4  C23 UNL     1       6.496  -0.486  12.850  1.00  0.00     0.008 A
HETATM    5  C24 UNL     1       7.811  -0.094  12.650  1.00  0.00     0.015 A
HETATM    6  C25 UNL     1       8.164   0.643  11.533  1.00  0.00     0.012 A
HETATM    7  C26 UNL     1       7.248   1.025  10.563  1.00  0.00    -0.034 A
HETATM    8  C31 UNL     1       5.944   0.638  10.758  1.00  0.00     0.042 A
HETATM    9  C32 UNL     1       5.578  -0.106  11.883  1.00  0.00     0.046 A
ENDROOT
BRANCH   1  10
HETATM   10  C10 UNL     1       3.144  -0.441  11.534  1.00  0.00     0.231 C
BRANCH  10  11
HETATM   11  C9  UNL     1       2.105   0.297  12.261  1.00  0.00     0.238 C
HETATM   12  N2  UNL     1       1.543   1.478  11.731  1.00  0.00    -0.337 N
HETATM   13  C5  UNL     1       1.853   2.126  10.491  1.00  0.00     0.179 C
HETATM   14  C8  UNL     1       0.513   2.294  12.359  1.00  0.00     0.127 C
HETATM   15  C6  UNL     1       0.482   2.536   9.957  1.00  0.00     0.037 C
HETATM   16  C7  UNL     1      -0.248   2.864  11.217  1.00  0.00     0.022 C
HETATM   17  O2  UNL     1       1.703  -0.119  13.375  1.00  0.00    -0.272 OA
BRANCH  13  18
HETATM   18  C4  UNL     1       2.700   3.350  10.651  1.00  0.00     0.240 C
HETATM   19  N1  UNL     1       3.714   3.375  11.640  1.00  0.00    -0.356 N
ATOM     20  H1  UNL     1       3.830   2.547  12.224  1.00  0.00     0.162 HD
HETATM   21  O1  UNL     1       2.470   4.319   9.889  1.00  0.00    -0.271 OA
BRANCH  19  22
HETATM   22  C3  UNL     1       4.583   4.483  11.873  1.00  0.00     0.149 C
BRANCH  22  23
HETATM   23  C2  UNL     1       5.904   4.320  11.256  1.00  0.00    -0.018 C
HETATM   24  C1  UNL     1       7.072   4.516  11.810  1.00  0.00     0.008 C
ENDBRANCH  22  23
ENDBRANCH  19  22
ENDBRANCH  13  18
ENDBRANCH  10  11
ENDBRANCH   1  10
BRANCH   3  25
HETATM   25  C13 UNL     1       6.382  -1.777  15.060  1.00  0.00     0.254 C
HETATM   26  O3  UNL     1       5.949  -1.234  16.151  1.00  0.00    -0.268 OA
HETATM   27  N4  UNL     1       7.281  -2.850  15.187  1.00  0.00    -0.352 N
ATOM     28  H4  UNL     1       7.659  -3.311  14.358  1.00  0.00     0.163 HD
BRANCH  27  29
HETATM   29  C14 UNL     1       7.668  -3.302  16.544  1.00  0.00     0.085 C
HETATM   30  C15 UNL     1       6.901  -4.540  16.852  1.00  0.00     0.025 C
HETATM   31  C16 UNL     1       7.528  -5.320  17.954  1.00  0.00     0.007 C
HETATM   32  C17 UNL     1       8.977  -5.638  17.777  1.00  0.00    -0.010 C
HETATM   33  C18 UNL     1       9.083  -7.035  17.193  1.00  0.00     0.005 C
HETATM   34  C21 UNL     1       9.692  -4.801  16.782  1.00  0.00    -0.009 C
HETATM   35  C19 UNL     1       9.084  -6.866  15.689  1.00  0.00     0.001 C
HETATM   36  C20 UNL     1       9.787  -5.556  15.489  1.00  0.00     0.005 C
HETATM   37  C22 UNL     1       9.148  -3.412  16.614  1.00  0.00     0.030 C
ENDBRANCH  27  29
ENDBRANCH   3  25
BRANCH   7  38
HETATM   38  C27 UNL     1       7.669   1.799   9.406  1.00  0.00     0.017 C
HETATM   39  C28 UNL     1       6.933   1.990   8.337  1.00  0.00     0.083 C
BRANCH  39  40
HETATM   40  C29 UNL     1       7.460   2.781   7.241  1.00  0.00     0.291 C
HETATM   41  O4  UNL     1       6.902   2.741   6.125  1.00  0.00    -0.260 OA
BRANCH  40  42
HETATM   42  O5  UNL     1       8.574   3.569   7.448  1.00  0.00    -0.226 OA
BRANCH  42  43
HETATM   43  C30 UNL     1       8.453   4.826   8.064  1.00  0.00     0.380 C
HETATM   44  N5  UNL     1       9.425   5.246   9.009  1.00  0.00    -0.032 NA
HETATM   45  O6  UNL     1       7.485   5.571   7.777  1.00  0.00    -0.242 OA
ENDBRANCH  42  43
ENDBRANCH  40  42
ENDBRANCH  39  40
ENDBRANCH   7  38
TORSDOF 11
ENDMDL