MODEL 2
REMARK VINA RESULT: -7.615558558      3.617      6.338
REMARK  2 active torsions:
REMARK  status: ('A' for Active; 'I' for Inactive)
REMARK    1  A    between atoms: C5_12  and  N4_13
REMARK    2  A    between atoms: N5_15  and  N6_17
REMARK       I    between atoms: N6_17  and  C6_19
ROOT
HETATM    1  C1  UNL     1     -16.258 -45.687  -2.501  1.00  0.00     0.163 C
HETATM    2  N1  UNL     1     -14.948 -45.211  -2.850  1.00  0.00    -0.287 N
HETATM    3  C2  UNL     1     -13.900 -46.053  -2.760  1.00  0.00     0.330 A
HETATM    4  O1  UNL     1     -14.067 -47.239  -2.376  1.00  0.00    -0.246 OA
HETATM    5  N2  UNL     1     -12.663 -45.648  -3.075  1.00  0.00    -0.273 N
ATOM      6  H2  UNL     1     -11.867 -46.282  -3.009  1.00  0.00     0.173 HD
HETATM    7  C3  UNL     1     -12.509 -44.380  -3.481  1.00  0.00     0.280 A
HETATM    8  O2  UNL     1     -11.356 -43.994  -3.778  1.00  0.00    -0.265 OA
HETATM    9  C4  UNL     1     -13.545 -43.482  -3.590  1.00  0.00     0.162 A
HETATM   10  N3  UNL     1     -13.686 -42.195  -3.955  1.00  0.00    -0.181 N
ATOM     11  H3  UNL     1     -12.922 -41.590  -4.257  1.00  0.00     0.184 HD
HETATM   12  C5  UNL     1     -14.979 -41.817  -3.867  1.00  0.00     0.700 A
HETATM   13  N7  UNL     1     -15.659 -42.894  -3.436  1.00  0.00    -0.172 N
ATOM     14  H7  UNL     1     -16.665 -42.923  -3.270  1.00  0.00     0.186 HD
HETATM   15  C7  UNL     1     -14.814 -43.934  -3.255  1.00  0.00     0.160 A
ENDROOT
BRANCH  12  16
HETATM   16  N4  UNL     1     -15.568 -40.552  -4.155  1.00  0.00    -0.117 N
HETATM   17  N5  UNL     1     -16.159 -40.262  -5.214  1.00  0.00    -0.225 N
ATOM     18  H5  UNL     1     -16.538 -39.318  -5.296  1.00  0.00     0.209 HD
ATOM     19  H4  UNL     1     -15.501 -39.828  -3.440  1.00  0.00     0.207 HD
BRANCH  17  20
HETATM   20  N6  UNL     1     -16.344 -41.126  -6.299  1.00  0.00    -0.241 N
HETATM   21  C6  UNL     1     -15.252 -41.470  -7.128  1.00  0.00     0.334 C
HETATM   22  O3  UNL     1     -14.123 -40.982  -6.865  1.00  0.00    -0.252 OA
HETATM   23 CL1  UNL     1     -15.516 -42.552  -8.476  1.00  0.00    -0.018 Cl
ATOM     24  H6  UNL     1     -17.269 -41.508  -6.492  1.00  0.00     0.192 HD
ENDBRANCH  17  20
ENDBRANCH  12  16
TORSDOF 2
ENDMDL