MODEL 3
REMARK VINA RESULT: -6.880763236      7.609     10.293
REMARK  2 active torsions:
REMARK  status: ('A' for Active; 'I' for Inactive)
REMARK    1  A    between atoms: C4_11  and  N5_12
REMARK    2  A    between atoms: C6_19  and  C7_20
ROOT
HETATM    1  C1  UNL     1     -18.121 -41.963 -12.782  1.00  0.00     0.202 C
HETATM    2  N1  UNL     1     -17.692 -42.224 -11.420  1.00  0.00    -0.223 N
HETATM    3  N2  UNL     1     -16.944 -41.416 -10.695  1.00  0.00    -0.225 N
ATOM      4  H2  UNL     1     -16.583 -40.517 -11.014  1.00  0.00     0.210 HD
HETATM    5  N3  UNL     1     -16.727 -41.928  -9.508  1.00  0.00    -0.267 N
ATOM      6  H3  UNL     1     -16.179 -41.503  -8.761  1.00  0.00     0.190 HD
HETATM    7  C2  UNL     1     -17.352 -43.109  -9.454  1.00  0.00     0.166 A
HETATM    8  C3  UNL     1     -17.396 -44.038  -8.345  1.00  0.00     0.113 A
HETATM    9  N4  UNL     1     -18.075 -45.213  -8.425  1.00  0.00    -0.187 N
ATOM     10  H4  UNL     1     -18.560 -45.432  -9.295  1.00  0.00     0.184 HD
HETATM   11  C4  UNL     1     -18.139 -46.102  -7.418  1.00  0.00     0.677 A
HETATM   12  N6  UNL     1     -17.507 -45.834  -6.263  1.00  0.00    -0.180 N
ATOM     13  H6  UNL     1     -17.549 -46.501  -5.493  1.00  0.00     0.185 HD
HETATM   14  C5  UNL     1     -16.826 -44.702  -6.123  1.00  0.00     0.135 A
HETATM   15 CL1  UNL     1     -15.984 -44.320  -4.618  1.00  0.00    -0.063 Cl
HETATM   16  C6  UNL     1     -16.750 -43.767  -7.160  1.00  0.00     0.080 A
HETATM   17  N11 UNL     1     -17.940 -43.264 -10.651  1.00  0.00    -0.265 N
ATOM     18  H11 UNL     1     -18.498 -44.072 -10.925  1.00  0.00     0.190 HD
ENDROOT
BRANCH  16  19
HETATM   19  C7  UNL     1     -15.983 -42.542  -6.930  1.00  0.00     0.147 A
HETATM   20  N7  UNL     1     -16.451 -41.374  -6.452  1.00  0.00    -0.270 N
HETATM   21  N8  UNL     1     -15.451 -40.507  -6.379  1.00  0.00    -0.007 NA
ATOM     22  H7  UNL     1     -17.418 -41.186  -6.189  1.00  0.00     0.185 HD
HETATM   23  N9  UNL     1     -14.339 -41.083  -6.800  1.00  0.00    -0.007 NA
HETATM   24  N10 UNL     1     -14.663 -42.322  -7.135  1.00  0.00    -0.270 N
ATOM     25  H10 UNL     1     -14.008 -43.014  -7.498  1.00  0.00     0.185 HD
ENDBRANCH  16  19
BRANCH  11  26
HETATM   26  N5  UNL     1     -18.818 -47.208  -7.594  1.00  0.00    -0.234 N
ATOM     27  H52 UNL     1     -18.989 -47.593  -8.523  1.00  0.00     0.174 HD
ATOM     28  H51 UNL     1     -19.185 -47.694  -6.777  1.00  0.00     0.174 HD
ENDBRANCH  11  26
TORSDOF 2
ENDMDL