MODEL 1
REMARK VINA RESULT: -7.739773875      0.000      0.000
REMARK  2 active torsions:
REMARK  status: ('A' for Active; 'I' for Inactive)
REMARK    1  A    between atoms: C3_5  and  C4_6
REMARK    2  A    between atoms: N4_10  and  C5_11
ROOT
HETATM    1  C4  UNL     1     -18.470 -41.833 -11.780  1.00  0.00     0.132 A
HETATM    2  N2  UNL     1     -18.562 -43.146 -11.929  1.00  0.00    -0.277 N
ATOM      3  H2  UNL     1     -19.084 -43.611 -12.673  1.00  0.00     0.184 HD
HETATM    4  N3  UNL     1     -17.886 -43.772 -10.980  1.00  0.00    -0.012 NA
HETATM    5  N4  UNL     1     -17.335 -42.843 -10.187  1.00  0.00    -0.205 N
HETATM    6  C7  UNL     1     -17.685 -41.620 -10.667  1.00  0.00     0.157 A
HETATM    7 CL1  UNL     1     -17.217 -40.079  -9.983  1.00  0.00    -0.060 Cl
ENDROOT
BRANCH   5   8
HETATM    8  C5  UNL     1     -16.528 -43.038  -9.045  1.00  0.00     0.194 A
HETATM    9  N5  UNL     1     -15.882 -42.128  -8.309  1.00  0.00    -0.221 N
HETATM   10  O1  UNL     1     -15.258 -42.764  -7.347  1.00  0.00    -0.153 OA
ATOM     11  H5  UNL     1     -15.876 -41.121  -8.468  1.00  0.00     0.198 HD
HETATM   12  N6  UNL     1     -15.447 -44.031  -7.397  1.00  0.00    -0.222 N
HETATM   13  C6  UNL     1     -16.258 -44.256  -8.473  1.00  0.00     0.169 A
ATOM     14  H6  UNL     1     -15.067 -44.732  -6.761  1.00  0.00     0.198 HD
HETATM   15  N7  UNL     1     -16.660 -45.424  -8.833  1.00  0.00    -0.381 N
ATOM     16  H72 UNL     1     -17.266 -45.593  -9.637  1.00  0.00     0.157 HD
ATOM     17  H71 UNL     1     -16.460 -46.330  -8.408  1.00  0.00     0.157 HD
ENDBRANCH   5   8
BRANCH   1  18
HETATM   18  C3  UNL     1     -19.065 -40.775 -12.611  1.00  0.00     0.159 A
HETATM   19  N1  UNL     1     -18.945 -40.623 -13.889  1.00  0.00    -0.319 N
HETATM   20  C2  UNL     1     -19.667 -39.480 -14.330  1.00  0.00     0.162 A
ATOM     21  H1  UNL     1     -18.406 -41.239 -14.497  1.00  0.00     0.169 HD
HETATM   22  C1  UNL     1     -19.784 -39.004 -15.559  1.00  0.00     0.074 C
HETATM   23  O2  UNL     1     -20.243 -38.946 -13.186  1.00  0.00    -0.219 OA
HETATM   24  N8  UNL     1     -19.895 -39.718 -12.103  1.00  0.00    -0.241 N
ATOM     25  H8  UNL     1     -20.171 -39.570 -11.132  1.00  0.00     0.196 HD
ENDBRANCH   1  18
TORSDOF 2
ENDMDL