MODEL 4
REMARK VINA RESULT: -6.695969155      2.412      3.179
REMARK  3 active torsions:
REMARK  status: ('A' for Active; 'I' for Inactive)
REMARK    1  A    between atoms: C4_8  and  N4_9
REMARK    2  A    between atoms: N4_9  and  N5_11
REMARK    3  A    between atoms: C8_23  and  N9_24
ROOT
HETATM    1  N1  UNL     1     -25.745 -40.112 -13.797  1.00  0.00    -0.193 NA
HETATM    2  C1  UNL     1     -24.777 -40.262 -14.410  1.00  0.00     0.114 C
HETATM    3  C2  UNL     1     -23.517 -40.431 -15.204  1.00  0.00     0.268 A
HETATM    4  C3  UNL     1     -23.440 -41.889 -15.421  1.00  0.00     0.114 C
HETATM    5  N2  UNL     1     -23.362 -43.040 -15.604  1.00  0.00    -0.193 NA
HETATM    6  N3  UNL     1     -22.408 -39.941 -14.483  1.00  0.00    -0.183 N
ATOM      7  H3  UNL     1     -22.203 -40.376 -13.584  1.00  0.00     0.181 HD
HETATM    8  C4  UNL     1     -21.649 -39.006 -14.864  1.00  0.00     0.700 A
HETATM    9  N6  UNL     1     -21.834 -38.326 -16.099  1.00  0.00    -0.184 N
ATOM     10  H6  UNL     1     -21.207 -37.573 -16.385  1.00  0.00     0.184 HD
HETATM   11  C5  UNL     1     -22.925 -38.728 -16.925  1.00  0.00     0.122 A
HETATM   12  C6  UNL     1     -23.730 -39.744 -16.485  1.00  0.00     0.100 A
HETATM   13  N7  UNL     1     -24.784 -40.140 -17.271  1.00  0.00    -0.350 N
ATOM     14  H7  UNL     1     -25.402 -40.895 -16.970  1.00  0.00     0.166 HD
HETATM   15  C7  UNL     1     -24.984 -39.524 -18.432  1.00  0.00     0.182 A
HETATM   16  N8  UNL     1     -24.223 -38.537 -18.888  1.00  0.00    -0.335 N
ATOM     17  H8  UNL     1     -24.434 -38.108 -19.790  1.00  0.00     0.168 HD
HETATM   18  C8  UNL     1     -23.149 -38.090 -18.150  1.00  0.00     0.160 A
ENDROOT
BRANCH   8  19
HETATM   19  N4  UNL     1     -20.527 -38.547 -14.082  1.00  0.00    -0.072 N
ATOM     20  H4  UNL     1     -20.381 -38.887 -13.132  1.00  0.00     0.212 HD
BRANCH  19  21
HETATM   21  N5  UNL     1     -19.651 -37.633 -14.648  1.00  0.00    -0.024 N
HETATM   22  O1  UNL     1     -19.787 -36.431 -14.378  1.00  0.00    -0.516 OA
HETATM   23  O2  UNL     1     -18.668 -38.090 -15.483  1.00  0.00    -0.516 OA
ENDBRANCH  19  21
ENDBRANCH   8  19
BRANCH  18  24
HETATM   24  N9  UNL     1     -22.446 -37.165 -18.589  1.00  0.00    -0.206 N
HETATM   25  F1  UNL     1     -21.433 -36.457 -18.330  1.00  0.00    -0.100 F
ATOM     26  H9  UNL     1     -22.825 -36.869 -19.488  1.00  0.00     0.201 HD
ENDBRANCH  18  24
TORSDOF 3
ENDMDL