MODEL 1
REMARK VINA RESULT: -6.891559283      0.000      0.000
REMARK  5 active torsions:
REMARK  status: ('A' for Active; 'I' for Inactive)
REMARK    1  A    between atoms: C3_4  and  N2_5
REMARK    2  A    between atoms: C6_9  and  N3_10
REMARK    3  A    between atoms: C7_15  and  N5_16
REMARK    4  A    between atoms: N5_16  and  O1_18
REMARK    5  A    between atoms: O1_18  and  C8_19
ROOT
HETATM    1  N2  UNL     1     -19.092 -42.221 -11.961  1.00  0.00    -0.137 N
HETATM    2  C4  UNL     1     -19.994 -43.225 -12.207  1.00  0.00     0.144 A
HETATM    3  C5  UNL     1     -19.801 -44.491 -11.734  1.00  0.00     0.094 A
HETATM    4 CL1  UNL     1     -20.956 -45.789 -12.047  1.00  0.00    -0.079 Cl
HETATM    5  C6  UNL     1     -18.660 -44.750 -10.990  1.00  0.00     0.138 A
HETATM    6  N4  UNL     1     -17.795 -43.734 -10.768  1.00  0.00    -0.173 N
ATOM      7  H4  UNL     1     -16.953 -43.915 -10.222  1.00  0.00     0.186 HD
HETATM    8  C7  UNL     1     -18.011 -42.470 -11.254  1.00  0.00     0.712 A
ENDROOT
BRANCH   1   9
HETATM    9  C3  UNL     1     -19.407 -40.951 -12.506  1.00  0.00     0.161 A
HETATM   10  C2  UNL     1     -19.202 -40.606 -13.842  1.00  0.00     0.162 A
HETATM   11  N1  UNL     1     -19.585 -39.345 -13.999  1.00  0.00    -0.290 N
HETATM   12  C1  UNL     1     -19.542 -38.585 -15.238  1.00  0.00     0.178 C
HETATM   13  N9  UNL     1     -20.005 -38.917 -12.833  1.00  0.00    -0.240 N
HETATM   14  N8  UNL     1     -19.911 -39.858 -11.916  1.00  0.00    -0.269 N
ATOM     15  H9  UNL     1     -20.360 -37.977 -12.658  1.00  0.00     0.208 HD
ATOM     16  H8  UNL     1     -20.173 -39.771 -10.934  1.00  0.00     0.190 HD
ENDBRANCH   1   9
BRANCH   8  17
HETATM   17  N5  UNL     1     -17.143 -41.600 -10.990  1.00  0.00    -0.087 N
ATOM     18  H5  UNL     1     -16.314 -41.556 -11.581  1.00  0.00     0.214 HD
BRANCH  17  19
HETATM   19  O1  UNL     1     -17.242 -40.722  -9.973  1.00  0.00    -0.183 OA
BRANCH  19  20
HETATM   20  C8  UNL     1     -16.868 -41.052  -8.682  1.00  0.00     0.277 A
HETATM   21  N6  UNL     1     -17.386 -41.655  -7.622  1.00  0.00    -0.259 N
HETATM   22  N7  UNL     1     -16.081 -41.168  -7.516  1.00  0.00    -0.259 N
ATOM     23  H6  UNL     1     -18.176 -42.134  -7.191  1.00  0.00     0.190 HD
ATOM     24  H7  UNL     1     -15.218 -41.013  -6.994  1.00  0.00     0.190 HD
ENDBRANCH  19  20
ENDBRANCH  17  19
ENDBRANCH   8  17
BRANCH   5  25
HETATM   25  N3  UNL     1     -18.457 -45.926 -10.536  1.00  0.00    -0.384 N
ATOM     26  H32 UNL     1     -18.853 -46.243  -9.650  1.00  0.00     0.157 HD
ATOM     27  H31 UNL     1     -17.883 -46.580 -11.069  1.00  0.00     0.157 HD
ENDBRANCH   5  25
TORSDOF 5
ENDMDL