MODEL 4
REMARK VINA RESULT: -6.680906402      2.090      2.653
REMARK  7 active torsions:
REMARK  status: ('A' for Active; 'I' for Inactive)
REMARK       I    between atoms: C2_2  and  N1_4
REMARK    1  A    between atoms: C3_7  and  O2_8
REMARK    2  A    between atoms: O2_8  and  N3_9
REMARK    3  A    between atoms: C4_11  and  O3_12
REMARK    4  A    between atoms: C4_11  and  N4_14
REMARK    5  A    between atoms: N4_14  and  N5_16
REMARK    6  A    between atoms: N5_16  and  N6_17
REMARK    7  A    between atoms: C5_23  and  N9_24
ROOT
HETATM    1  C1  UNL     1     -18.517 -42.771 -11.821  1.00  0.00     0.119 C
HETATM    2  C2  UNL     1     -17.917 -43.587 -10.747  1.00  0.00     0.237 C
HETATM    3  O1  UNL     1     -17.874 -44.833 -10.907  1.00  0.00    -0.272 OA
HETATM    4  N1  UNL     1     -17.385 -43.014  -9.535  1.00  0.00    -0.210 N
HETATM    5  N2  UNL     1     -16.832 -43.825  -8.548  1.00  0.00    -0.253 N
ATOM      6  H2  UNL     1     -17.070 -44.815  -8.508  1.00  0.00     0.191 HD
HETATM    7  C3  UNL     1     -16.024 -43.326  -7.690  1.00  0.00     0.305 C
HETATM    8  N7  UNL     1     -15.706 -41.943  -7.766  1.00  0.00    -0.074 N
HETATM    9  F1  UNL     1     -14.473 -41.481  -7.396  1.00  0.00    -0.076 F
HETATM   10  N8  UNL     1     -16.709 -41.088  -8.231  1.00  0.00    -0.047 NA
HETATM   11  C5  UNL     1     -17.428 -41.594  -9.350  1.00  0.00     0.423 C
ENDROOT
BRANCH   7  12
HETATM   12  O2  UNL     1     -15.428 -44.087  -6.665  1.00  0.00    -0.192 OA
BRANCH  12  13
HETATM   13  N3  UNL     1     -15.322 -43.559  -5.409  1.00  0.00    -0.219 N
HETATM   14  C4  UNL     1     -14.167 -43.584  -4.835  1.00  0.00     0.269 C
ATOM     15  H3  UNL     1     -16.134 -43.157  -4.939  1.00  0.00     0.198 HD
BRANCH  14  16
HETATM   16  O3  UNL     1     -13.046 -44.125  -5.456  1.00  0.00    -0.329 OA
ATOM     17  H3  UNL     1     -12.169 -44.003  -5.110  1.00  0.00     0.221 HD
ENDBRANCH  14  16
BRANCH  14  18
HETATM   18  N4  UNL     1     -13.963 -43.055  -3.522  1.00  0.00    -0.177 N
ATOM     19  H4  UNL     1     -13.546 -43.659  -2.813  1.00  0.00     0.207 HD
BRANCH  18  20
HETATM   20  N5  UNL     1     -14.267 -41.909  -3.208  1.00  0.00    -0.240 NA
BRANCH  20  21
HETATM   21  N6  UNL     1     -14.386 -40.709  -3.002  1.00  0.00    -0.260 N
ATOM     22  H62 UNL     1     -15.346 -40.875  -2.701  1.00  0.00     0.193 HD
ATOM     23  H61 UNL     1     -14.310 -39.698  -2.887  1.00  0.00     0.193 HD
ENDBRANCH  20  21
ENDBRANCH  18  20
ENDBRANCH  14  18
ENDBRANCH  12  13
ENDBRANCH   7  12
BRANCH  11  24
HETATM   24  N9  UNL     1     -16.964 -40.875 -10.523  1.00  0.00    -0.040 N
ATOM     25  H93 UNL     1     -17.634 -40.159 -10.805  1.00  0.00     0.278 HD
ATOM     26  H92 UNL     1     -16.171 -40.275 -10.299  1.00  0.00     0.278 HD
ATOM     27  H91 UNL     1     -16.746 -41.501 -11.298  1.00  0.00     0.278 HD
ENDBRANCH  11  24
TORSDOF 7
ENDMDL