MODEL 4
REMARK VINA RESULT: -7.317087529      5.763      8.824
REMARK  4 active torsions:
REMARK  status: ('A' for Active; 'I' for Inactive)
REMARK    1  A    between atoms: O1_2  and  C2_3
REMARK       I    between atoms: C2_3  and  N1_5
REMARK    2  A    between atoms: N2_7  and  N3_9
REMARK    3  A    between atoms: N3_9  and  C3_11
REMARK    4  A    between atoms: N5_21  and  O6_22
ROOT
HETATM    1  C3  UNL     1     -21.322 -39.880 -14.602  1.00  0.00     0.157 C
HETATM    2  C4  UNL     1     -21.701 -40.456 -15.822  1.00  0.00     0.126 C
HETATM    3  C5  UNL     1     -21.874 -39.852 -17.060  1.00  0.00     0.252 C
HETATM    4  O3  UNL     1     -22.338 -40.592 -17.957  1.00  0.00    -0.268 OA
HETATM    5  N4  UNL     1     -21.597 -38.576 -17.382  1.00  0.00    -0.286 N
ATOM      6  H4  UNL     1     -22.019 -38.246 -18.251  1.00  0.00     0.172 HD
HETATM    7  C6  UNL     1     -20.851 -37.677 -16.732  1.00  0.00     0.318 C
HETATM    8  O4  UNL     1     -20.520 -36.664 -17.406  1.00  0.00    -0.262 OA
HETATM    9  C7  UNL     1     -20.411 -37.751 -15.405  1.00  0.00     0.341 C
HETATM   10  O5  UNL     1     -19.639 -36.843 -15.073  1.00  0.00    -0.259 OA
HETATM   11  N5  UNL     1     -20.725 -38.674 -14.477  1.00  0.00    -0.165 N
ENDROOT
BRANCH   1  12
HETATM   12  N3  UNL     1     -21.615 -40.623 -13.424  1.00  0.00    -0.269 N
ATOM     13  H3  UNL     1     -22.580 -40.903 -13.249  1.00  0.00     0.190 HD
BRANCH  12  14
HETATM   14  N2  UNL     1     -20.648 -40.981 -12.510  1.00  0.00    -0.237 N
HETATM   15  N1  UNL     1     -19.459 -41.096 -12.855  1.00  0.00    -0.231 N
HETATM   16  C2  UNL     1     -18.371 -41.457 -11.997  1.00  0.00     0.380 C
ATOM     17  H1  UNL     1     -19.239 -40.919 -13.835  1.00  0.00     0.194 HD
HETATM   18  O2  UNL     1     -17.683 -42.492 -12.144  1.00  0.00    -0.237 OA
ATOM     19  H2  UNL     1     -20.910 -41.153 -11.539  1.00  0.00     0.208 HD
BRANCH  16  20
HETATM   20  O1  UNL     1     -18.028 -40.624 -10.916  1.00  0.00    -0.308 OA
HETATM   21  C1  UNL     1     -17.191 -41.053  -9.892  1.00  0.00     0.215 C
ENDBRANCH  16  20
ENDBRANCH  12  14
ENDBRANCH   1  12
BRANCH  11  22
HETATM   22  O6  UNL     1     -20.383 -38.312 -13.213  1.00  0.00    -0.278 OA
ATOM     23  H6  UNL     1     -20.396 -37.379 -13.032  1.00  0.00     0.245 HD
ENDBRANCH  11  22
TORSDOF 4
ENDMDL