MODEL 5
REMARK VINA RESULT: -6.915008307      1.496      2.149
REMARK  4 active torsions:
REMARK  status: ('A' for Active; 'I' for Inactive)
REMARK    1  A    between atoms: C2_2  and  N1_5
REMARK       I    between atoms: N1_5  and  C4_7
REMARK    2  A    between atoms: C4_7  and  C5_9
REMARK    3  A    between atoms: N4_13  and  C6_14
REMARK    4  A    between atoms: C7_20  and  N7_21
ROOT
HETATM    1  C5  UNL     1     -16.775 -43.764  -9.155  1.00  0.00     0.203 A
HETATM    2  N2  UNL     1     -16.165 -42.626  -9.565  1.00  0.00    -0.262 N
ATOM      3  H2  UNL     1     -16.271 -42.190 -10.481  1.00  0.00     0.186 HD
HETATM    4  N3  UNL     1     -15.410 -42.177  -8.574  1.00  0.00     0.004 NA
HETATM    5  N4  UNL     1     -15.511 -42.990  -7.531  1.00  0.00    -0.156 N
HETATM    6  N8  UNL     1     -16.341 -43.947  -7.897  1.00  0.00    -0.258 N
ATOM      7  H8  UNL     1     -16.617 -44.727  -7.301  1.00  0.00     0.190 HD
ENDROOT
BRANCH   5   8
HETATM    8  C6  UNL     1     -14.829 -42.807  -6.288  1.00  0.00     0.210 A
HETATM    9  N5  UNL     1     -14.170 -43.735  -5.572  1.00  0.00    -0.219 N
HETATM   10  O2  UNL     1     -13.689 -43.181  -4.506  1.00  0.00    -0.153 OA
ATOM     11  H5  UNL     1     -14.065 -44.717  -5.828  1.00  0.00     0.198 HD
HETATM   12  N6  UNL     1     -13.989 -41.925  -4.468  1.00  0.00    -0.222 N
HETATM   13  C7  UNL     1     -14.699 -41.646  -5.556  1.00  0.00     0.170 A
ATOM     14  H6  UNL     1     -13.728 -41.267  -3.734  1.00  0.00     0.198 HD
BRANCH  13  15
HETATM   15  N7  UNL     1     -15.171 -40.486  -5.849  1.00  0.00    -0.381 N
ATOM     16  H72 UNL     1     -15.540 -39.819  -5.172  1.00  0.00     0.157 HD
ATOM     17  H71 UNL     1     -15.246 -40.067  -6.776  1.00  0.00     0.157 HD
ENDBRANCH  13  15
ENDBRANCH   5   8
BRANCH   1  18
HETATM   18  C4  UNL     1     -17.695 -44.591  -9.928  1.00  0.00     0.289 C
HETATM   19  N1  UNL     1     -18.702 -43.996 -10.718  1.00  0.00    -0.332 N
ATOM     20  H1  UNL     1     -18.799 -42.981 -10.758  1.00  0.00     0.164 HD
HETATM   21  O1  UNL     1     -17.595 -45.838  -9.893  1.00  0.00    -0.264 OA
BRANCH  19  22
HETATM   22  C2  UNL     1     -19.594 -44.851 -11.469  1.00  0.00     0.103 C
HETATM   23  C1  UNL     1     -20.364 -45.706 -10.488  1.00  0.00     0.056 C
HETATM   24  C3  UNL     1     -20.529 -43.945 -12.259  1.00  0.00     0.056 C
HETATM   25 CL1  UNL     1     -18.599 -45.860 -12.533  1.00  0.00    -0.096 Cl
ENDBRANCH  19  22
ENDBRANCH   1  18
TORSDOF 4
ENDMDL