MODEL 5
REMARK VINA RESULT: -5.534086967      4.902      6.558
REMARK  7 active torsions:
REMARK  status: ('A' for Active; 'I' for Inactive)
REMARK    1  A    between atoms: O1_2  and  C2_3
REMARK    2  A    between atoms: C2_3  and  C3_5
REMARK    3  A    between atoms: C3_5  and  O3_6
REMARK    4  A    between atoms: O3_6  and  C4_7
REMARK    5  A    between atoms: C4_7  and  O4_8
REMARK    6  A    between atoms: N1_10  and  O5_12
REMARK    7  A    between atoms: C7_17  and  O7_18
ROOT
HETATM    1  C3  UNL     1     -14.187 -46.320  -3.273  1.00  0.00     0.282 C
HETATM    2  O6  UNL     1     -15.410 -46.589  -3.823  1.00  0.00    -0.338 OA
HETATM    3  C5  UNL     1     -15.901 -47.761  -3.337  1.00  0.00     0.152 C
HETATM    4  C6  UNL     1     -17.089 -47.574  -2.417  1.00  0.00     0.042 C
HETATM    5  C7  UNL     1     -14.788 -48.541  -2.714  1.00  0.00     0.171 C
HETATM    6  C8  UNL     1     -13.702 -47.544  -2.552  1.00  0.00     0.187 C
HETATM    7 CL1  UNL     1     -12.129 -48.115  -3.140  1.00  0.00    -0.116 Cl
ENDROOT
BRANCH   1   8
HETATM    8  C2  UNL     1     -14.219 -45.209  -2.284  1.00  0.00     0.324 C
HETATM    9  O2  UNL     1     -13.139 -44.860  -1.743  1.00  0.00    -0.259 OA
BRANCH   8  10
HETATM   10  O1  UNL     1     -15.361 -44.526  -1.914  1.00  0.00    -0.322 OA
HETATM   11  C1  UNL     1     -15.605 -43.198  -2.386  1.00  0.00     0.213 C
ENDBRANCH   8  10
ENDBRANCH   1   8
BRANCH   1  12
HETATM   12  O3  UNL     1     -13.234 -45.910  -4.263  1.00  0.00    -0.265 OA
BRANCH  12  13
HETATM   13  C4  UNL     1     -13.086 -44.591  -4.632  1.00  0.00     0.285 C
HETATM   14  N1  UNL     1     -13.957 -44.089  -5.416  1.00  0.00    -0.227 N
ATOM     15  H1  UNL     1     -14.723 -44.683  -5.734  1.00  0.00     0.198 HD
BRANCH  13  16
HETATM   16  O4  UNL     1     -12.050 -43.771  -4.208  1.00  0.00    -0.325 OA
ATOM     17  H4  UNL     1     -11.926 -43.485  -3.310  1.00  0.00     0.221 HD
ENDBRANCH  13  16
BRANCH  14  18
HETATM   18  O5  UNL     1     -13.918 -42.807  -5.847  1.00  0.00    -0.286 OA
ATOM     19  H5  UNL     1     -14.628 -42.190  -5.715  1.00  0.00     0.244 HD
ENDBRANCH  14  18
ENDBRANCH  12  13
ENDBRANCH   1  12
BRANCH   5  20
HETATM   20  O7  UNL     1     -15.204 -49.076  -1.500  1.00  0.00    -0.391 OA
ATOM     21  H7  UNL     1     -15.129 -48.423  -0.814  1.00  0.00     0.210 HD
ENDBRANCH   5  20
TORSDOF 7
ENDMDL