MODEL 5
REMARK VINA RESULT: -7.015408963      3.442      5.258
REMARK  5 active torsions:
REMARK  status: ('A' for Active; 'I' for Inactive)
REMARK    1  A    between atoms: N1_1  and  O1_4
REMARK    2  A    between atoms: O1_4  and  C1_5
REMARK    3  A    between atoms: C2_14  and  N6_15
REMARK    4  A    between atoms: N6_15  and  N7_17
REMARK    5  A    between atoms: C3_19  and  C4_20
ROOT
HETATM    1  C1  UNL     1     -17.210 -44.183  -9.857  1.00  0.00     0.232 A
HETATM    2  N2  UNL     1     -16.713 -44.931  -8.826  1.00  0.00    -0.259 N
ATOM      3  H2  UNL     1     -17.014 -45.896  -8.690  1.00  0.00     0.191 HD
HETATM    4  N3  UNL     1     -15.832 -44.375  -8.008  1.00  0.00    -0.226 N
ATOM      5  H3  UNL     1     -15.453 -44.919  -7.233  1.00  0.00     0.210 HD
HETATM    6  N4  UNL     1     -15.436 -43.121  -8.180  1.00  0.00    -0.226 N
ATOM      7  H4  UNL     1     -14.757 -42.717  -7.537  1.00  0.00     0.210 HD
HETATM    8  N5  UNL     1     -15.918 -42.373  -9.192  1.00  0.00    -0.265 N
ATOM      9  H5  UNL     1     -15.602 -41.410  -9.308  1.00  0.00     0.190 HD
HETATM   10  C2  UNL     1     -16.809 -42.887 -10.044  1.00  0.00     0.191 A
ENDROOT
BRANCH  10  11
HETATM   11  N6  UNL     1     -17.271 -42.197 -10.999  1.00  0.00    -0.281 N
ATOM     12  H6  UNL     1     -16.592 -41.668 -11.546  1.00  0.00     0.188 HD
BRANCH  11  13
HETATM   13  N7  UNL     1     -18.589 -42.084 -11.379  1.00  0.00    -0.309 N
HETATM   14  C3  UNL     1     -18.863 -41.557 -12.529  1.00  0.00     0.120 C
ATOM     15  H7  UNL     1     -19.336 -42.410 -10.766  1.00  0.00     0.186 HD
BRANCH  14  16
HETATM   16  C4  UNL     1     -20.236 -41.405 -12.997  1.00  0.00     0.005 A
HETATM   17  C5  UNL     1     -21.299 -42.088 -12.449  1.00  0.00     0.031 A
HETATM   18  C6  UNL     1     -22.581 -41.880 -12.962  1.00  0.00     0.088 A
HETATM   19  N8  UNL     1     -22.817 -41.036 -13.972  1.00  0.00    -0.374 N
HETATM   20  C7  UNL     1     -21.800 -40.362 -14.521  1.00  0.00     0.112 A
ATOM     21  H8  UNL     1     -23.767 -40.908 -14.322  1.00  0.00     0.164 HD
HETATM   22  C8  UNL     1     -20.503 -40.546 -14.032  1.00  0.00     0.061 A
HETATM   23 CL1  UNL     1     -19.187 -39.660 -14.756  1.00  0.00    -0.082 Cl
ENDBRANCH  14  16
ENDBRANCH  11  13
ENDBRANCH  10  11
BRANCH   1  24
HETATM   24  O1  UNL     1     -18.128 -44.755 -10.712  1.00  0.00    -0.221 OA
BRANCH  24  25
HETATM   25  N1  UNL     1     -18.021 -46.105 -10.974  1.00  0.00    -0.303 N
ATOM     26  H12 UNL     1     -17.858 -46.760 -10.210  1.00  0.00     0.184 HD
ATOM     27  H11 UNL     1     -18.109 -46.416 -11.941  1.00  0.00     0.184 HD
ENDBRANCH  24  25
ENDBRANCH   1  24
TORSDOF 5
ENDMDL