MODEL 4
REMARK VINA RESULT: -8.281919500      3.978      6.924
REMARK  10 active torsions:
REMARK  status: ('A' for Active; 'I' for Inactive)
REMARK    1  A    between atoms: N2_7  and  C3_8
REMARK    2  A    between atoms: C3_8  and  C4_9
REMARK    3  A    between atoms: C4_9  and  O3_10
REMARK    4  A    between atoms: C4_9  and  C5_12
REMARK    5  A    between atoms: C5_12  and  O4_13
REMARK    6  A    between atoms: C5_12  and  C6_15
REMARK    7  A    between atoms: C6_15  and  O5_16
REMARK    8  A    between atoms: C8_19  and  O6_20
REMARK    9  A    between atoms: C9_22  and  O7_23
REMARK   10  A    between atoms: C10_28  and  N4_29
ROOT
HETATM    1  C4  UNL     1       4.499   7.861  24.047  1.00  0.00     0.170 C
ENDROOT
BRANCH   1   2
HETATM    2  C3  UNL     1       4.722   8.856  22.925  1.00  0.00     0.187 C
BRANCH   2   3
HETATM    3  N2  UNL     1       3.522   9.306  22.296  1.00  0.00    -0.129 N
HETATM    4  C2  UNL     1       3.186   8.636  21.165  1.00  0.00     0.344 A
HETATM    5  N1  UNL     1       2.082   8.993  20.516  1.00  0.00    -0.259 N
HETATM    6  O2  UNL     1       3.878   7.694  20.709  1.00  0.00    -0.246 OA
HETATM    7  C1  UNL     1       1.325  10.010  20.999  1.00  0.00     0.342 A
ATOM      8  H1  UNL     1       1.807   8.505  19.663  1.00  0.00     0.175 HD
HETATM    9  O1  UNL     1       0.273  10.350  20.378  1.00  0.00    -0.246 OA
HETATM   10  N5  UNL     1       1.660  10.654  22.101  1.00  0.00    -0.140 N
HETATM   11  C10 UNL     1       2.812  10.311  22.813  1.00  0.00     0.699 A
ATOM     12  H5  UNL     1       1.070  11.415  22.437  1.00  0.00     0.189 HD
BRANCH  11  13
HETATM   13  N4  UNL     1       2.935  10.974  23.853  1.00  0.00    -0.152 N
HETATM   14  S1  UNL     1       2.042  12.082  24.738  1.00  0.00     0.058 SA
ATOM     15  H4  UNL     1       3.836  10.795  24.295  1.00  0.00     0.193 HD
ENDBRANCH  11  13
ENDBRANCH   2   3
ENDBRANCH   1   2
BRANCH   1  16
HETATM   16  O3  UNL     1       4.761   6.602  23.666  1.00  0.00    -0.391 OA
ATOM     17  H3  UNL     1       4.112   5.989  23.988  1.00  0.00     0.210 HD
ENDBRANCH   1  16
BRANCH   1  18
HETATM   18  C5  UNL     1       5.160   8.343  25.296  1.00  0.00     0.211 C
BRANCH  18  19
HETATM   19  O4  UNL     1       5.688   9.620  25.086  1.00  0.00    -0.388 OA
ATOM     20  H4  UNL     1       5.512  10.166  25.842  1.00  0.00     0.210 HD
ENDBRANCH  18  19
BRANCH  18  21
HETATM   21  C6  UNL     1       4.322   8.381  26.516  1.00  0.00     0.258 C
HETATM   22  C7  UNL     1       4.975   9.243  27.577  1.00  0.00     0.107 C
HETATM   23  C8  UNL     1       4.817   8.562  28.887  1.00  0.00     0.179 C
HETATM   24  C9  UNL     1       3.860   7.434  28.581  1.00  0.00     0.351 C
HETATM   25  N3  UNL     1       4.104   7.143  27.181  1.00  0.00    -0.012 N
ATOM     26  H32 UNL     1       3.361   6.589  26.755  1.00  0.00     0.284 HD
ATOM     27  H31 UNL     1       4.864   6.477  27.040  1.00  0.00     0.284 HD
BRANCH  21  28
HETATM   28  O5  UNL     1       3.077   8.954  26.244  1.00  0.00    -0.363 OA
ATOM     29  H5  UNL     1       2.417   8.626  26.843  1.00  0.00     0.212 HD
ENDBRANCH  21  28
BRANCH  23  30
HETATM   30  O6  UNL     1       6.023   8.042  29.378  1.00  0.00    -0.391 OA
ATOM     31  H6  UNL     1       6.242   8.374  30.242  1.00  0.00     0.210 HD
ENDBRANCH  23  30
BRANCH  24  32
HETATM   32  O7  UNL     1       2.565   7.925  28.739  1.00  0.00    -0.368 OA
ATOM     33  H7  UNL     1       2.371   8.472  27.986  1.00  0.00     0.212 HD
ENDBRANCH  24  32
ENDBRANCH  18  21
ENDBRANCH   1  18
TORSDOF 10
ENDMDL