MODEL 4
REMARK VINA RESULT: -7.958729913      4.179     10.909
REMARK  9 active torsions:
REMARK  status: ('A' for Active; 'I' for Inactive)
REMARK    1  A    between atoms: N1_1  and  C1_4
REMARK    2  A    between atoms: C2_9  and  C3_10
REMARK    3  A    between atoms: N4_11  and  N5_13
REMARK    4  A    between atoms: N6_15  and  N7_17
REMARK    5  A    between atoms: C6_26  and  C7_27
REMARK    6  A    between atoms: C7_27  and  O2_28
REMARK    7  A    between atoms: C7_27  and  C8_30
REMARK    8  A    between atoms: C8_30  and  N11_31
REMARK    9  A    between atoms: C8_30  and  N12_35
ROOT
HETATM    1  N7  UNL     1       7.608   4.282  28.600  1.00  0.00    -0.199 N
HETATM    2  N8  UNL     1       8.309   3.106  28.343  1.00  0.00    -0.255 N
ATOM      3  H8  UNL     1       8.686   2.980  27.403  1.00  0.00     0.191 HD
HETATM    4  C4  UNL     1       8.518   2.167  29.199  1.00  0.00     0.211 C
HETATM    5  N9  UNL     1       9.230   0.980  28.923  1.00  0.00    -0.062 NA
HETATM    6  N10 UNL     1       7.967   2.395  30.518  1.00  0.00    -0.298 N
ATOM      7  H10 UNL     1       8.093   1.692  31.247  1.00  0.00     0.171 HD
HETATM    8  C5  UNL     1       7.252   3.585  30.804  1.00  0.00     0.253 C
HETATM    9  O1  UNL     1       6.419   3.626  31.727  1.00  0.00    -0.271 OA
HETATM   10  C6  UNL     1       7.524   4.777  29.977  1.00  0.00     0.253 C
ENDROOT
BRANCH   1  11
HETATM   11  N6  UNL     1       6.979   5.008  27.581  1.00  0.00    -0.210 N
HETATM   12  N5  UNL     1       6.157   5.931  27.789  1.00  0.00    -0.227 N
ATOM     13  H5  UNL     1       5.905   6.202  28.739  1.00  0.00     0.210 HD
ATOM     14  H6  UNL     1       7.201   4.771  26.615  1.00  0.00     0.211 HD
BRANCH  12  15
HETATM   15  N4  UNL     1       5.597   6.580  26.688  1.00  0.00    -0.294 N
HETATM   16  C3  UNL     1       6.082   6.362  25.519  1.00  0.00     0.145 C
ATOM     17  H4  UNL     1       4.812   7.219  26.811  1.00  0.00     0.187 HD
BRANCH  16  18
HETATM   18  C2  UNL     1       5.497   7.038  24.373  1.00  0.00     0.134 A
HETATM   19  N3  UNL     1       5.163   6.344  23.263  1.00  0.00    -0.280 N
HETATM   20  N2  UNL     1       4.627   6.968  22.217  1.00  0.00    -0.132 N
ATOM     21  H3  UNL     1       5.320   5.337  23.227  1.00  0.00     0.188 HD
HETATM   22  C1  UNL     1       4.417   8.290  22.255  1.00  0.00     0.693 A
ATOM     23  H2  UNL     1       4.376   6.438  21.383  1.00  0.00     0.205 HD
HETATM   24  N13 UNL     1       4.728   9.033  23.323  1.00  0.00    -0.153 N
HETATM   25  C9  UNL     1       5.274   8.396  24.394  1.00  0.00     0.289 A
ATOM     26  H13 UNL     1       4.561  10.039  23.335  1.00  0.00     0.187 HD
HETATM   27  O3  UNL     1       5.571   9.068  25.398  1.00  0.00    -0.265 OA
BRANCH  22  28
HETATM   28  N1  UNL     1       3.893   8.833  21.202  1.00  0.00    -0.233 N
ATOM     29  H12 UNL     1       3.889   9.845  21.086  1.00  0.00     0.174 HD
ATOM     30  H11 UNL     1       3.492   8.202  20.508  1.00  0.00     0.174 HD
ENDBRANCH  22  28
ENDBRANCH  16  18
ENDBRANCH  12  15
ENDBRANCH   1  11
BRANCH  10  31
HETATM   31  C7  UNL     1       8.783   5.506  30.335  1.00  0.00     0.211 C
BRANCH  31  32
HETATM   32  O2  UNL     1       9.936   4.736  30.191  1.00  0.00    -0.389 OA
ATOM     33  H2  UNL     1       9.809   3.816  30.393  1.00  0.00     0.210 HD
ENDBRANCH  31  32
BRANCH  31  34
HETATM   34  C8  UNL     1       8.787   6.103  31.695  1.00  0.00     0.408 C
BRANCH  34  35
HETATM   35  N11 UNL     1       9.224   5.180  32.721  1.00  0.00    -0.048 N
ATOM     36 3H11 UNL     1       8.788   5.399  33.616  1.00  0.00     0.276 HD
ATOM     37 2H11 UNL     1       8.831   4.251  32.565  1.00  0.00     0.276 HD
ATOM     38 1H11 UNL     1      10.239   5.135  32.813  1.00  0.00     0.276 HD
ENDBRANCH  34  35
BRANCH  34  39
HETATM   39  N12 UNL     1       7.509   6.643  32.105  1.00  0.00    -0.048 N
ATOM     40 3H12 UNL     1       7.073   6.040  32.803  1.00  0.00     0.276 HD
ATOM     41 2H12 UNL     1       7.641   7.486  32.663  1.00  0.00     0.276 HD
ATOM     42 1H12 UNL     1       6.866   6.820  31.334  1.00  0.00     0.276 HD
ENDBRANCH  34  39
ENDBRANCH  31  34
ENDBRANCH  10  31
TORSDOF 9
ENDMDL