MODEL 2
REMARK VINA RESULT: -7.822335724      3.457      5.923
REMARK  9 active torsions:
REMARK  status: ('A' for Active; 'I' for Inactive)
REMARK    1  A    between atoms: S1_2  and  N1_5
REMARK    2  A    between atoms: N1_5  and  C2_7
REMARK    3  A    between atoms: C3_8  and  C4_9
REMARK    4  A    between atoms: C4_9  and  O3_10
REMARK    5  A    between atoms: C4_9  and  C5_12
REMARK    6  A    between atoms: C5_12  and  N2_13
REMARK    7  A    between atoms: C5_12  and  O4_17
REMARK    8  A    between atoms: C6_20  and  O5_21
REMARK    9  A    between atoms: C7_26  and  O6_27
ROOT
HETATM    1  C2  UNL     1       1.877  11.518  22.941  1.00  0.00     0.117 C
HETATM    2  C3  UNL     1       1.633  11.976  21.691  1.00  0.00     0.077 C
HETATM    3  N3  UNL     1       1.349  13.351  21.798  1.00  0.00    -0.302 N
HETATM    4  C6  UNL     1       1.372  14.459  20.829  1.00  0.00     0.436 C
HETATM    5  N4  UNL     1       2.415  15.338  21.397  1.00  0.00     0.013 N
ATOM      6  H41 UNL     1       2.750  16.048  20.745  1.00  0.00     0.287 HD
ATOM      7  H42 UNL     1       3.310  14.871  21.539  1.00  0.00     0.287 HD
HETATM    8  C7  UNL     1       1.851  15.884  22.604  1.00  0.00     0.429 C
HETATM    9  N5  UNL     1       1.372  14.978  23.567  1.00  0.00    -0.347 N
ATOM     10  H5  UNL     1       1.290  15.261  24.543  1.00  0.00     0.160 HD
HETATM   11  C8  UNL     1       1.002  13.665  23.172  1.00  0.00     0.265 C
HETATM   12  C9  UNL     1       1.743  12.601  23.898  1.00  0.00     0.220 C
HETATM   13  O7  UNL     1       2.129  12.707  25.085  1.00  0.00    -0.286 OA
ENDROOT
BRANCH   2  14
HETATM   14  C4  UNL     1       1.674  11.136  20.478  1.00  0.00     0.226 C
BRANCH  14  15
HETATM   15  O3  UNL     1       3.005  10.829  20.127  1.00  0.00    -0.385 OA
ATOM     16  H3  UNL     1       3.109  10.813  19.183  1.00  0.00     0.210 HD
ENDBRANCH  14  15
BRANCH  14  17
HETATM   17  C5  UNL     1       0.909   9.847  20.714  1.00  0.00     0.351 C
BRANCH  17  18
HETATM   18  N2  UNL     1      -0.176   9.788  19.776  1.00  0.00    -0.050 N
ATOM     19  H23 UNL     1      -0.345   8.843  19.432  1.00  0.00     0.277 HD
ATOM     20  H22 UNL     1      -1.083   9.940  20.215  1.00  0.00     0.277 HD
ATOM     21  H21 UNL     1       0.014  10.452  19.025  1.00  0.00     0.277 HD
ENDBRANCH  17  18
BRANCH  17  22
HETATM   22  O4  UNL     1       1.755   8.754  20.418  1.00  0.00    -0.368 OA
ATOM     23  H4  UNL     1       1.875   8.238  21.207  1.00  0.00     0.212 HD
ENDBRANCH  17  22
ENDBRANCH  14  17
ENDBRANCH   2  14
BRANCH   1  24
HETATM   24  N1  UNL     1       2.205  10.176  23.261  1.00  0.00    -0.279 N
ATOM     25  H1  UNL     1       1.438   9.536  23.467  1.00  0.00     0.179 HD
BRANCH  24  26
HETATM   26  S1  UNL     1       3.793   9.561  23.324  1.00  0.00     0.227 S
HETATM   27  C1  UNL     1       3.843   8.395  24.694  1.00  0.00     0.186 C
HETATM   28  O1  UNL     1       4.239   8.840  22.117  1.00  0.00    -0.206 OA
HETATM   29  O2  UNL     1       4.798  10.628  23.683  1.00  0.00    -0.206 OA
ENDBRANCH  24  26
ENDBRANCH   1  24
BRANCH   4  30
HETATM   30  O5  UNL     1       0.165  15.139  20.772  1.00  0.00    -0.354 OA
ATOM     31  H5  UNL     1      -0.435  14.870  21.458  1.00  0.00     0.214 HD
ENDBRANCH   4  30
BRANCH   8  32
HETATM   32  O6  UNL     1       0.942  16.887  22.256  1.00  0.00    -0.355 OA
ATOM     33  H6  UNL     1       0.461  17.141  23.035  1.00  0.00     0.213 HD
ENDBRANCH   8  32
TORSDOF 9
ENDMDL