MODEL 4
REMARK VINA RESULT: -8.945657996      2.824      8.916
REMARK  9 active torsions:
REMARK  status: ('A' for Active; 'I' for Inactive)
REMARK    1  A    between atoms: N1_2  and  C2_4
REMARK    2  A    between atoms: C2_4  and  C3_5
REMARK    3  A    between atoms: C3_5  and  N2_6
REMARK    4  A    between atoms: C6_11  and  N4_12
REMARK    5  A    between atoms: N4_12  and  N5_14
REMARK       I    between atoms: C7_16  and  N7_18
REMARK    6  A    between atoms: N7_18  and  C8_20
REMARK    7  A    between atoms: N11_25  and  N12_26
REMARK    8  A    between atoms: C9_31  and  N14_32
REMARK    9  A    between atoms: N14_32  and  O1_34
ROOT
HETATM    1  N2  UNL     1       6.232   5.755  25.384  1.00  0.00    -0.325 N
HETATM    2  C4  UNL     1       6.459   5.718  24.060  1.00  0.00     0.185 A
HETATM    3  N3  UNL     1       5.716   6.648  23.441  1.00  0.00    -0.346 N
ATOM      4  H3  UNL     1       5.700   6.829  22.438  1.00  0.00     0.167 HD
HETATM    5  C5  UNL     1       5.004   7.291  24.361  1.00  0.00     0.124 A
HETATM    6  C6  UNL     1       4.088   8.321  24.297  1.00  0.00     0.166 A
HETATM    7  N13 UNL     1       3.549   8.732  25.456  1.00  0.00    -0.171 N
ATOM      8  H13 UNL     1       2.870   9.493  25.433  1.00  0.00     0.186 HD
HETATM    9  C9  UNL     1       3.862   8.188  26.647  1.00  0.00     0.705 A
HETATM   10  N15 UNL     1       4.752   7.184  26.730  1.00  0.00    -0.172 N
ATOM     11  H15 UNL     1       4.990   6.771  27.632  1.00  0.00     0.186 HD
HETATM   12  C10 UNL     1       5.324   6.734  25.588  1.00  0.00     0.155 A
ENDROOT
BRANCH   6  13
HETATM   13  N4  UNL     1       3.783   8.843  23.163  1.00  0.00    -0.281 N
ATOM     14  H4  UNL     1       3.387   8.234  22.447  1.00  0.00     0.188 HD
BRANCH  13  15
HETATM   15  N5  UNL     1       3.960  10.176  22.855  1.00  0.00    -0.271 N
HETATM   16  C7  UNL     1       2.998  10.989  22.592  1.00  0.00     0.221 C
HETATM   17  N6  UNL     1       1.655  10.526  22.612  1.00  0.00    -0.061 NA
HETATM   18  N7  UNL     1       3.250  12.344  22.278  1.00  0.00    -0.158 N
ATOM     19  H7  UNL     1       4.108  12.776  22.623  1.00  0.00     0.187 HD
ATOM     20  H5  UNL     1       4.913  10.539  22.834  1.00  0.00     0.189 HD
BRANCH  18  21
HETATM   21  C8  UNL     1       2.434  13.059  21.570  1.00  0.00     0.731 A
HETATM   22  N8  UNL     1       1.458  13.862  22.030  1.00  0.00    -0.115 N
HETATM   23  N9  UNL     1       0.855  14.407  20.976  1.00  0.00     0.008 NA
ATOM     24  H8  UNL     1       1.222  14.023  23.010  1.00  0.00     0.203 HD
HETATM   25  N10 UNL     1       1.416  13.974  19.860  1.00  0.00     0.030 NA
HETATM   26  N11 UNL     1       2.395  13.139  20.236  1.00  0.00    -0.012 N
BRANCH  26  27
HETATM   27  N12 UNL     1       3.245  12.455  19.362  1.00  0.00    -0.311 N
ATOM     28 2H12 UNL     1       4.026  11.863  19.648  1.00  0.00     0.179 HD
ATOM     29 1H12 UNL     1       3.180  12.471  18.345  1.00  0.00     0.179 HD
ENDBRANCH  26  27
ENDBRANCH  18  21
ENDBRANCH  13  15
ENDBRANCH   6  13
BRANCH   9  30
HETATM   30  N14 UNL     1       3.293   8.647  27.727  1.00  0.00    -0.098 N
ATOM     31  H14 UNL     1       3.268   9.652  27.901  1.00  0.00     0.213 HD
BRANCH  30  32
HETATM   32  O1  UNL     1       2.730   7.786  28.625  1.00  0.00    -0.276 OA
ATOM     33  H1  UNL     1       2.143   8.113  29.296  1.00  0.00     0.245 HD
ENDBRANCH  30  32
ENDBRANCH   9  30
BRANCH   1  34
HETATM   34  C3  UNL     1       6.826   4.923  26.438  1.00  0.00     0.150 C
BRANCH  34  35
HETATM   35  C2  UNL     1       8.298   4.700  26.157  1.00  0.00     0.133 C
BRANCH  35  36
HETATM   36  N1  UNL     1       8.666   3.324  26.169  1.00  0.00    -0.424 N
HETATM   37  C1  UNL     1       7.616   2.390  25.928  1.00  0.00     0.139 C
ATOM     38  H1  UNL     1       9.627   3.024  26.340  1.00  0.00     0.152 HD
ENDBRANCH  35  36
ENDBRANCH  34  35
ENDBRANCH   1  34
TORSDOF 9
ENDMDL