MODEL 4
REMARK VINA RESULT: -7.800643381      5.424      7.421
REMARK  9 active torsions:
REMARK  status: ('A' for Active; 'I' for Inactive)
REMARK    1  A    between atoms: C2_2  and  O1_3
REMARK    2  A    between atoms: C2_2  and  C3_5
REMARK    3  A    between atoms: C3_5  and  O2_6
REMARK    4  A    between atoms: C3_5  and  C4_8
REMARK    5  A    between atoms: C4_8  and  C5_9
REMARK    6  A    between atoms: C5_9  and  O3_10
REMARK    7  A    between atoms: C5_9  and  O4_12
REMARK    8  A    between atoms: C6_15  and  O6_16
REMARK    9  A    between atoms: C7_18  and  N1_19
ROOT
HETATM    1  C4  UNL     1       2.027  13.301  21.544  1.00  0.00     0.248 C
HETATM    2  O5  UNL     1       0.704  13.080  21.929  1.00  0.00    -0.314 OA
HETATM    3  C6  UNL     1       0.564  13.693  23.186  1.00  0.00     0.311 C
HETATM    4  C7  UNL     1       1.942  13.545  23.784  1.00  0.00     0.309 C
HETATM    5  O9  UNL     1       2.748  13.626  22.691  1.00  0.00    -0.317 OA
ENDROOT
BRANCH   4   6
HETATM    6  N1  UNL     1       2.228  14.305  24.931  1.00  0.00    -0.099 N
HETATM    7  C8  UNL     1       2.422  13.600  26.188  1.00  0.00     0.699 C
HETATM    8  N2  UNL     1       2.617  12.317  26.017  1.00  0.00    -0.233 N
HETATM    9  N3  UNL     1       2.435  14.037  27.524  1.00  0.00    -0.128 N
ATOM     10  H22 UNL     1       2.607  12.000  25.048  1.00  0.00     0.174 HD
ATOM     11  H21 UNL     1       2.753  11.822  26.898  1.00  0.00     0.174 HD
HETATM   12  N4  UNL     1       2.036  15.290  27.997  1.00  0.00    -0.237 N
ATOM     13  H3  UNL     1       2.771  13.370  28.220  1.00  0.00     0.205 HD
HETATM   14  C9  UNL     1       1.757  16.495  27.283  1.00  0.00     0.343 C
ATOM     15  H4  UNL     1       1.927  15.353  29.009  1.00  0.00     0.192 HD
HETATM   16  O7  UNL     1       1.228  17.454  27.913  1.00  0.00    -0.245 OA
HETATM   17  N5  UNL     1       2.032  16.697  25.904  1.00  0.00    -0.259 N
HETATM   18  C10 UNL     1       2.321  15.735  24.870  1.00  0.00     0.347 C
ATOM     19  H5  UNL     1       2.025  17.670  25.600  1.00  0.00     0.175 HD
HETATM   20  O8  UNL     1       2.701  16.154  23.770  1.00  0.00    -0.246 OA
ENDBRANCH   4   6
BRANCH   3  21
HETATM   21  O6  UNL     1       0.097  14.984  23.125  1.00  0.00    -0.367 OA
ATOM     22  H6  UNL     1      -0.707  15.124  23.612  1.00  0.00     0.212 HD
ENDBRANCH   3  21
BRANCH   1  23
HETATM   23  C3  UNL     1       2.578  12.205  20.732  1.00  0.00     0.214 C
BRANCH  23  24
HETATM   24  C2  UNL     1       1.741  11.086  20.300  1.00  0.00     0.148 C
HETATM   25  C1  UNL     1       1.538  10.175  21.528  1.00  0.00     0.042 C
BRANCH  24  26
HETATM   26  O1  UNL     1       0.453  11.481  19.938  1.00  0.00    -0.393 OA
ATOM     27  H1  UNL     1       0.209  10.887  19.238  1.00  0.00     0.210 HD
ENDBRANCH  24  26
ENDBRANCH  23  24
BRANCH  23  28
HETATM   28  O2  UNL     1       3.110  12.800  19.560  1.00  0.00    -0.387 OA
ATOM     29  H2  UNL     1       2.642  12.427  18.822  1.00  0.00     0.210 HD
ENDBRANCH  23  28
ENDBRANCH   1  23
BRANCH   1  30
HETATM   30  C5  UNL     1       1.975  14.544  20.640  1.00  0.00     0.320 C
BRANCH  30  31
HETATM   31  O3  UNL     1       2.395  15.696  21.293  1.00  0.00    -0.366 OA
ATOM     32  H3  UNL     1       1.963  16.477  20.968  1.00  0.00     0.212 HD
ENDBRANCH  30  31
BRANCH  30  33
HETATM   33  O4  UNL     1       0.651  14.798  20.243  1.00  0.00    -0.366 OA
ATOM     34  H4  UNL     1       0.398  14.203  19.547  1.00  0.00     0.212 HD
ENDBRANCH  30  33
ENDBRANCH   1  30
TORSDOF 9
ENDMDL