MODEL 1
REMARK VINA RESULT: -9.442750012      0.000      0.000
REMARK  8 active torsions:
REMARK  status: ('A' for Active; 'I' for Inactive)
REMARK    1  A    between atoms: C3_3  and  O1_4
REMARK    2  A    between atoms: C3_3  and  C4_6
REMARK    3  A    between atoms: C4_6  and  O2_7
REMARK    4  A    between atoms: C4_6  and  C5_9
REMARK    5  A    between atoms: C6_11  and  N1_12
REMARK    6  A    between atoms: N1_12  and  N2_14
REMARK    7  A    between atoms: C8_18  and  N4_19
REMARK    8  A    between atoms: C10_24  and  N6_25
ROOT
HETATM    1  C1  UNL     1       2.032  14.824  23.346  1.00  0.00     0.015 C
HETATM    2  C2  UNL     1       2.080  14.840  22.140  1.00  0.00    -0.083 C
HETATM    3  C3  UNL     1       2.161  14.871  20.661  1.00  0.00     0.229 C
ENDROOT
BRANCH   3   4
HETATM    4  O1  UNL     1       3.101  15.880  20.364  1.00  0.00    -0.381 OA
ATOM      5  H1  UNL     1       2.842  16.220  19.516  1.00  0.00     0.211 HD
ENDBRANCH   3   4
BRANCH   3   6
HETATM    6  C4  UNL     1       2.734  13.546  20.238  1.00  0.00     0.214 C
BRANCH   6   7
HETATM    7  O2  UNL     1       2.418  13.381  18.881  1.00  0.00    -0.387 OA
ATOM      8  H2  UNL     1       1.808  12.656  18.826  1.00  0.00     0.210 HD
ENDBRANCH   6   7
BRANCH   6   9
HETATM    9  C5  UNL     1       2.116  12.385  20.971  1.00  0.00     0.297 C
HETATM   10  O3  UNL     1       1.532  11.557  20.006  1.00  0.00    -0.328 OA
HETATM   11  C6  UNL     1       1.764  10.254  20.391  1.00  0.00     0.288 C
HETATM   12  C8  UNL     1       2.356  10.411  21.764  1.00  0.00     0.290 C
HETATM   13  O6  UNL     1       3.071  11.599  21.619  1.00  0.00    -0.329 OA
BRANCH  11  14
HETATM   14  N1  UNL     1       0.498   9.540  20.404  1.00  0.00    -0.303 N
ATOM     15  H1  UNL     1      -0.301   9.930  20.903  1.00  0.00     0.183 HD
BRANCH  14  16
HETATM   16  N2  UNL     1       0.375   8.324  19.735  1.00  0.00    -0.300 N
HETATM   17  C7  UNL     1      -0.695   7.952  19.159  1.00  0.00     0.206 C
HETATM   18  N3  UNL     1      -1.877   8.741  19.137  1.00  0.00    -0.095 NA
ATOM     19  H2  UNL     1       1.182   7.701  19.707  1.00  0.00     0.186 HD
ENDBRANCH  14  16
ENDBRANCH  11  14
BRANCH  12  20
HETATM   20  N4  UNL     1       3.139   9.308  22.195  1.00  0.00    -0.218 N
HETATM   21  C9  UNL     1       3.665   8.374  21.374  1.00  0.00     0.347 A
HETATM   22  O4  UNL     1       3.463   8.468  20.154  1.00  0.00    -0.246 OA
HETATM   23  N5  UNL     1       4.405   7.338  21.810  1.00  0.00    -0.141 N
HETATM   24  C10 UNL     1       4.639   7.214  23.126  1.00  0.00     0.683 A
ATOM     25  H5  UNL     1       4.781   6.658  21.151  1.00  0.00     0.189 HD
HETATM   26  N7  UNL     1       4.131   8.123  23.969  1.00  0.00    -0.141 N
HETATM   27  C11 UNL     1       3.392   9.154  23.507  1.00  0.00     0.347 A
ATOM     28  H7  UNL     1       4.305   8.034  24.970  1.00  0.00     0.189 HD
HETATM   29  O5  UNL     1       2.936   9.986  24.353  1.00  0.00    -0.246 OA
BRANCH  24  30
HETATM   30  N6  UNL     1       5.351   6.224  23.587  1.00  0.00    -0.234 N
ATOM     31  H62 UNL     1       5.518   5.403  23.005  1.00  0.00     0.174 HD
ATOM     32  H61 UNL     1       5.746   6.258  24.526  1.00  0.00     0.174 HD
ENDBRANCH  24  30
ENDBRANCH  12  20
ENDBRANCH   6   9
ENDBRANCH   3   6
TORSDOF 8
ENDMDL