MODEL 1
REMARK VINA RESULT: -8.235399491      0.000      0.000
REMARK  10 active torsions:
REMARK  status: ('A' for Active; 'I' for Inactive)
REMARK    1  A    between atoms: C2_2  and  O1_3
REMARK    2  A    between atoms: C2_2  and  C3_5
REMARK    3  A    between atoms: C3_5  and  O2_6
REMARK    4  A    between atoms: C3_5  and  C4_8
REMARK    5  A    between atoms: C4_8  and  O3_9
REMARK    6  A    between atoms: C4_8  and  C5_11
REMARK    7  A    between atoms: C6_13  and  N1_14
REMARK    8  A    between atoms: N3_21  and  N4_22
REMARK    9  A    between atoms: C9_25  and  O7_27
REMARK   10  A    between atoms: C11_29  and  O8_30
ROOT
HETATM    1  C5  UNL     1       2.752  13.236  20.653  1.00  0.00     0.187 C
HETATM    2  O4  UNL     1       2.897  13.042  22.024  1.00  0.00    -0.351 OA
HETATM    3  C6  UNL     1       3.131  11.677  22.159  1.00  0.00     0.288 C
HETATM    4  C9  UNL     1       2.275  10.978  21.133  1.00  0.00     0.128 C
HETATM    5  C10 UNL     1       1.100  10.263  21.732  1.00  0.00     0.053 C
HETATM    6  C11 UNL     1       1.829  12.132  20.255  1.00  0.00     0.188 C
ENDROOT
BRANCH   3   7
HETATM    7  N1  UNL     1       2.917  11.218  23.490  1.00  0.00    -0.184 N
HETATM    8  C7  UNL     1       3.353  10.055  23.993  1.00  0.00     0.349 A
HETATM    9  O5  UNL     1       4.030   9.161  23.378  1.00  0.00    -0.245 OA
HETATM   10  N2  UNL     1       2.950   9.988  25.274  1.00  0.00    -0.256 N
HETATM   11  C8  UNL     1       2.270  11.109  25.547  1.00  0.00     0.364 A
ATOM     12  H2  UNL     1       3.131   9.221  25.922  1.00  0.00     0.175 HD
HETATM   13  O6  UNL     1       1.744  11.386  26.664  1.00  0.00    -0.243 OA
HETATM   14  N3  UNL     1       2.259  11.862  24.432  1.00  0.00    -0.140 N
BRANCH  14  15
HETATM   15  N4  UNL     1       1.620  13.112  24.386  1.00  0.00    -0.319 N
ATOM     16  H42 UNL     1       0.679  13.224  24.009  1.00  0.00     0.179 HD
ATOM     17  H41 UNL     1       1.956  14.026  24.690  1.00  0.00     0.179 HD
ENDBRANCH  14  15
ENDBRANCH   3   7
BRANCH   4  18
HETATM   18  O7  UNL     1       3.054  10.069  20.454  1.00  0.00    -0.383 OA
ATOM     19  H7  UNL     1       3.340  10.464  19.638  1.00  0.00     0.210 HD
ENDBRANCH   4  18
BRANCH   1  20
HETATM   20  C4  UNL     1       2.203  14.602  20.430  1.00  0.00     0.181 C
BRANCH  20  21
HETATM   21  C3  UNL     1       1.270  15.052  21.531  1.00  0.00     0.177 C
BRANCH  21  22
HETATM   22  C2  UNL     1       1.845  16.239  22.280  1.00  0.00     0.145 C
HETATM   23  C1  UNL     1       0.728  16.995  22.994  1.00  0.00     0.042 C
BRANCH  22  24
HETATM   24  O1  UNL     1       2.736  15.793  23.254  1.00  0.00    -0.393 OA
ATOM     25  H1  UNL     1       3.615  15.928  22.919  1.00  0.00     0.210 HD
ENDBRANCH  22  24
ENDBRANCH  21  22
BRANCH  21  26
HETATM   26  O2  UNL     1       0.039  15.444  21.007  1.00  0.00    -0.390 OA
ATOM     27  H2  UNL     1      -0.639  15.041  21.537  1.00  0.00     0.210 HD
ENDBRANCH  21  26
ENDBRANCH  20  21
BRANCH  20  28
HETATM   28  O3  UNL     1       3.151  15.574  20.193  1.00  0.00    -0.390 OA
ATOM     29  H3  UNL     1       3.798  15.250  19.577  1.00  0.00     0.210 HD
ENDBRANCH  20  28
ENDBRANCH   1  20
BRANCH   6  30
HETATM   30  O8  UNL     1       0.486  12.437  20.481  1.00  0.00    -0.390 OA
ATOM     31  H8  UNL     1       0.174  13.154  19.943  1.00  0.00     0.210 HD
ENDBRANCH   6  30
TORSDOF 10
ENDMDL