MODEL 2
REMARK VINA RESULT: -8.297977307      5.049      8.692
REMARK  8 active torsions:
REMARK  status: ('A' for Active; 'I' for Inactive)
REMARK    1  A    between atoms: N5_15  and  C6_16
REMARK    2  A    between atoms: C7_18  and  C8_19
REMARK    3  A    between atoms: C7_18  and  N6_22
REMARK    4  A    between atoms: C8_19  and  O2_20
REMARK       I    between atoms: N6_22  and  C9_24
REMARK    5  A    between atoms: C9_24  and  C10_26
REMARK    6  A    between atoms: C10_26  and  N7_27
REMARK    7  A    between atoms: N8_31  and  N9_32
REMARK    8  A    between atoms: C11_35  and  O4_36
ROOT
HETATM    1  C6  UNL     1       2.460  12.582  21.716  1.00  0.00     0.279 A
HETATM    2  O1  UNL     1       2.969  12.832  22.963  1.00  0.00    -0.315 OA
HETATM    3  C7  UNL     1       1.996  13.447  23.741  1.00  0.00     0.241 A
HETATM    4  N8  UNL     1       0.803  13.547  22.990  1.00  0.00    -0.149 NA
HETATM    5  C11 UNL     1       1.019  13.003  21.690  1.00  0.00     0.265 A
ENDROOT
BRANCH   1   6
HETATM    6  N5  UNL     1       2.601  11.169  21.341  1.00  0.00    -0.296 N
HETATM    7  C3  UNL     1       3.387  10.230  21.911  1.00  0.00     0.142 A
HETATM    8  N3  UNL     1       4.231  10.335  22.953  1.00  0.00    -0.336 N
HETATM    9  C4  UNL     1       3.232   9.026  21.265  1.00  0.00     0.122 A
HETATM   10  C2  UNL     1       4.899   9.229  23.319  1.00  0.00     0.183 A
ATOM     11  H3  UNL     1       4.360  11.219  23.445  1.00  0.00     0.168 HD
HETATM   12  N2  UNL     1       4.774   8.040  22.714  1.00  0.00    -0.337 N
HETATM   13  C1  UNL     1       3.937   7.923  21.677  1.00  0.00     0.131 A
ATOM     14  H2  UNL     1       5.309   7.235  23.041  1.00  0.00     0.168 HD
HETATM   15  N1  UNL     1       3.763   6.808  21.042  1.00  0.00    -0.383 N
ATOM     16  H12 UNL     1       4.288   5.988  21.348  1.00  0.00     0.157 HD
ATOM     17  H11 UNL     1       3.125   6.718  20.251  1.00  0.00     0.157 HD
HETATM   18  N4  UNL     1       2.334   9.251  20.288  1.00  0.00    -0.346 N
HETATM   19  C5  UNL     1       1.967  10.527  20.343  1.00  0.00     0.188 A
ATOM     20  H4  UNL     1       1.993   8.560  19.620  1.00  0.00     0.167 HD
ENDBRANCH   1   6
BRANCH   5  21
HETATM   21  O4  UNL     1       0.704  13.868  20.640  1.00  0.00    -0.375 OA
ATOM     22  H4  UNL     1       0.152  14.598  20.897  1.00  0.00     0.211 HD
ENDBRANCH   5  21
BRANCH   3  23
HETATM   23  C8  UNL     1       1.801  12.534  24.956  1.00  0.00     0.245 C
BRANCH  23  24
HETATM   24  O2  UNL     1       2.781  11.601  25.095  1.00  0.00    -0.395 OA
ATOM     25  H2  UNL     1       2.787  11.184  25.949  1.00  0.00     0.209 HD
ENDBRANCH  23  24
ENDBRANCH   3  23
BRANCH   3  26
HETATM   26  N6  UNL     1       2.427  14.721  24.245  1.00  0.00    -0.312 N
HETATM   27  C9  UNL     1       3.019  15.018  25.482  1.00  0.00     0.246 C
HETATM   28  O3  UNL     1       3.213  14.093  26.307  1.00  0.00    -0.272 OA
ATOM     29  H6  UNL     1       2.284  15.514  23.621  1.00  0.00     0.167 HD
BRANCH  27  30
HETATM   30  C10 UNL     1       3.429  16.407  25.856  1.00  0.00     0.332 C
BRANCH  30  31
HETATM   31  N7  UNL     1       4.002  17.065  24.699  1.00  0.00    -0.071 N
ATOM     32  H73 UNL     1       4.268  16.403  23.969  1.00  0.00     0.274 HD
ATOM     33  H72 UNL     1       3.307  17.591  24.170  1.00  0.00     0.274 HD
ATOM     34  H71 UNL     1       4.784  17.649  24.996  1.00  0.00     0.274 HD
ENDBRANCH  30  31
ENDBRANCH  27  30
ENDBRANCH   3  26
BRANCH   4  35
HETATM   35  N9  UNL     1       0.275  14.800  22.893  1.00  0.00    -0.357 NA
ATOM     36  H92 UNL     1      -0.220  15.040  23.753  1.00  0.00     0.171 HD
ATOM     37  H91 UNL     1      -0.343  14.955  22.096  1.00  0.00     0.171 HD
ENDBRANCH   4  35
TORSDOF 8
ENDMDL