MODEL 5
REMARK VINA RESULT: -8.707259662      2.482      6.397
REMARK  10 active torsions:
REMARK  status: ('A' for Active; 'I' for Inactive)
REMARK    1  A    between atoms: N1_1  and  N2_4
REMARK    2  A    between atoms: C4_9  and  O2_10
REMARK    3  A    between atoms: C6_16  and  O4_17
REMARK    4  A    between atoms: O4_17  and  C7_18
REMARK    5  A    between atoms: C7_18  and  C8_19
REMARK    6  A    between atoms: C8_19  and  C9_21
REMARK    7  A    between atoms: C9_21  and  O6_22
REMARK    8  A    between atoms: C9_21  and  O7_24
REMARK    9  A    between atoms: C10_26  and  N4_27
REMARK   10  A    between atoms: C10_26  and  O8_31
ROOT
HETATM    1  N2  UNL     1       1.901  11.019  22.645  1.00  0.00    -0.188 N
HETATM    2  C1  UNL     1       2.916  10.592  23.550  1.00  0.00     0.283 C
HETATM    3  O1  UNL     1       3.090  11.231  24.607  1.00  0.00    -0.265 OA
HETATM    4  C2  UNL     1       3.721   9.422  23.236  1.00  0.00     0.089 A
HETATM    5  C3  UNL     1       3.495   8.732  22.068  1.00  0.00     0.084 A
HETATM    6  C4  UNL     1       4.172   7.518  21.840  1.00  0.00     0.155 A
HETATM    7  N3  UNL     1       5.007   7.062  22.746  1.00  0.00    -0.301 N
ATOM      8  H3  UNL     1       5.480   6.179  22.553  1.00  0.00     0.171 HD
HETATM    9  C5  UNL     1       5.282   7.674  23.904  1.00  0.00     0.282 A
HETATM   10  O3  UNL     1       6.081   7.176  24.727  1.00  0.00    -0.265 OA
HETATM   11  C6  UNL     1       4.649   8.883  24.184  1.00  0.00     0.159 A
HETATM   12  C10 UNL     1       2.613   9.241  21.023  1.00  0.00     0.339 C
HETATM   13  C11 UNL     1       1.718  10.273  21.466  1.00  0.00     0.314 C
HETATM   14  O9  UNL     1       0.672  10.570  20.780  1.00  0.00    -0.265 OA
ENDROOT
BRANCH  11  15
HETATM   15  O4  UNL     1       4.878   9.588  25.319  1.00  0.00    -0.312 OA
BRANCH  15  16
HETATM   16  C7  UNL     1       4.970   9.249  26.617  1.00  0.00     0.198 C
BRANCH  16  17
HETATM   17  C8  UNL     1       3.913   8.550  27.332  1.00  0.00     0.225 C
HETATM   18  O5  UNL     1       3.588   7.407  27.392  1.00  0.00    -0.286 OA
BRANCH  17  19
HETATM   19  C9  UNL     1       3.013   9.455  28.204  1.00  0.00     0.331 C
BRANCH  19  20
HETATM   20  O6  UNL     1       2.341  10.340  27.380  1.00  0.00    -0.365 OA
ATOM     21  H6  UNL     1       1.957  11.025  27.915  1.00  0.00     0.213 HD
ENDBRANCH  19  20
BRANCH  19  22
HETATM   22  O7  UNL     1       2.180   8.668  28.964  1.00  0.00    -0.365 OA
ATOM     23  H7  UNL     1       1.427   8.415  28.443  1.00  0.00     0.213 HD
ENDBRANCH  19  22
ENDBRANCH  17  19
ENDBRANCH  16  17
ENDBRANCH  15  16
ENDBRANCH  11  15
BRANCH   1  24
HETATM   24  N1  UNL     1       1.111  12.163  22.941  1.00  0.00    -0.333 N
ATOM     25  H12 UNL     1       0.094  12.150  22.864  1.00  0.00     0.177 HD
ATOM     26  H11 UNL     1       1.555  13.031  23.239  1.00  0.00     0.177 HD
ENDBRANCH   1  24
BRANCH   6  27
HETATM   27  O2  UNL     1       3.895   6.884  20.646  1.00  0.00    -0.345 OA
ATOM     28  H2  UNL     1       4.644   6.669  20.103  1.00  0.00     0.219 HD
ENDBRANCH   6  27
BRANCH  12  29
HETATM   29  N4  UNL     1       1.895   8.208  20.317  1.00  0.00    -0.033 N
ATOM     30  H43 UNL     1       2.375   7.312  20.404  1.00  0.00     0.279 HD
ATOM     31  H42 UNL     1       1.024   7.984  20.797  1.00  0.00     0.279 HD
ATOM     32  H41 UNL     1       1.719   8.428  19.337  1.00  0.00     0.279 HD
ENDBRANCH  12  29
BRANCH  12  33
HETATM   33  O8  UNL     1       3.475   9.828  20.050  1.00  0.00    -0.354 OA
ATOM     34  H8  UNL     1       2.916  10.380  19.515  1.00  0.00     0.213 HD
ENDBRANCH  12  33
TORSDOF 10
ENDMDL