MODEL 3
REMARK VINA RESULT: -7.347760814      5.391      9.335
REMARK  12 active torsions:
REMARK  status: ('A' for Active; 'I' for Inactive)
REMARK    1  A    between atoms: C2_2  and  O1_3
REMARK    2  A    between atoms: C2_2  and  C3_5
REMARK    3  A    between atoms: C3_5  and  O2_6
REMARK    4  A    between atoms: C3_5  and  C4_8
REMARK    5  A    between atoms: C4_8  and  O3_9
REMARK    6  A    between atoms: C4_8  and  C5_11
REMARK    7  A    between atoms: C5_11  and  O4_12
REMARK    8  A    between atoms: C5_11  and  C6_14
REMARK    9  A    between atoms: C6_14  and  O5_15
REMARK   10  A    between atoms: C6_14  and  N1_17
REMARK   11  A    between atoms: C8_19  and  O6_20
REMARK   12  A    between atoms: C12_31  and  N5_32
ROOT
HETATM    1  N1  UNL     1       2.478   9.536  21.411  1.00  0.00     0.163 N
HETATM    2  C7  UNL     1       2.816   8.222  20.922  1.00  0.00     0.319 C
HETATM    3  C8  UNL     1       4.303   8.120  21.178  1.00  0.00     0.221 C
HETATM    4  C9  UNL     1       4.512   8.968  22.358  1.00  0.00     0.220 C
HETATM    5  O7  UNL     1       5.492   8.968  23.077  1.00  0.00    -0.290 OA
HETATM    6  C10 UNL     1       3.304   9.818  22.504  1.00  0.00     0.346 C
HETATM    7  N2  UNL     1       3.711  11.155  22.733  1.00  0.00    -0.320 N
ATOM      8  H2  UNL     1       4.456  11.616  22.210  1.00  0.00     0.165 HD
HETATM    9  C11 UNL     1       3.039  11.723  23.671  1.00  0.00     0.188 C
HETATM   10  N3  UNL     1       3.183  13.068  24.168  1.00  0.00    -0.064 NA
HETATM   11  N4  UNL     1       2.089  10.796  24.168  1.00  0.00    -0.333 N
ATOM     12  H4  UNL     1       1.220  11.008  24.658  1.00  0.00     0.164 HD
HETATM   13  C12 UNL     1       2.608   9.485  23.837  1.00  0.00     0.352 C
ENDROOT
BRANCH   1  14
HETATM   14  C6  UNL     1       2.251  10.440  20.388  1.00  0.00     0.392 C
BRANCH  14  15
HETATM   15  C5  UNL     1       1.286  11.564  20.735  1.00  0.00     0.208 C
BRANCH  15  16
HETATM   16  C4  UNL     1       2.006  12.886  20.541  1.00  0.00     0.182 C
BRANCH  16  17
HETATM   17  C3  UNL     1       1.395  14.034  21.262  1.00  0.00     0.177 C
BRANCH  17  18
HETATM   18  C2  UNL     1       2.353  15.147  21.630  1.00  0.00     0.145 C
HETATM   19  C1  UNL     1       1.693  16.360  22.221  1.00  0.00     0.042 C
BRANCH  18  20
HETATM   20  O1  UNL     1       2.884  15.587  20.381  1.00  0.00    -0.393 OA
ATOM     21  H1  UNL     1       2.953  14.800  19.852  1.00  0.00     0.210 HD
ENDBRANCH  18  20
ENDBRANCH  17  18
BRANCH  17  22
HETATM   22  O2  UNL     1       0.537  14.651  20.287  1.00  0.00    -0.390 OA
ATOM     23  H2  UNL     1      -0.245  14.112  20.316  1.00  0.00     0.210 HD
ENDBRANCH  17  22
ENDBRANCH  16  17
BRANCH  16  24
HETATM   24  O3  UNL     1       1.838  13.184  19.153  1.00  0.00    -0.390 OA
ATOM     25  H3  UNL     1       2.084  12.388  18.696  1.00  0.00     0.210 HD
ENDBRANCH  16  24
ENDBRANCH  15  16
BRANCH  15  26
HETATM   26  O4  UNL     1       0.191  11.530  19.836  1.00  0.00    -0.388 OA
ATOM     27  H4  UNL     1      -0.606  11.620  20.345  1.00  0.00     0.210 HD
ENDBRANCH  15  26
ENDBRANCH  14  15
BRANCH  14  28
HETATM   28  O5  UNL     1       3.348  11.045  19.810  1.00  0.00    -0.366 OA
ATOM     29  H5  UNL     1       3.256  10.913  18.873  1.00  0.00     0.212 HD
ENDBRANCH  14  28
ENDBRANCH   1  14
BRANCH   3  30
HETATM   30  O6  UNL     1       4.689   6.794  21.397  1.00  0.00    -0.386 OA
ATOM     31  H6  UNL     1       5.574   6.746  21.737  1.00  0.00     0.210 HD
ENDBRANCH   3  30
BRANCH  13  32
HETATM   32  N5  UNL     1       3.570   9.136  24.853  1.00  0.00    -0.053 N
ATOM     33  H53 UNL     1       3.442   8.177  25.177  1.00  0.00     0.277 HD
ATOM     34  H52 UNL     1       4.509   9.046  24.466  1.00  0.00     0.277 HD
ATOM     35  H51 UNL     1       3.545   9.799  25.628  1.00  0.00     0.277 HD
ENDBRANCH  13  32
TORSDOF 12
ENDMDL