MODEL 1
REMARK VINA RESULT: -8.826245687      0.000      0.000
REMARK  6 active torsions:
REMARK  status: ('A' for Active; 'I' for Inactive)
REMARK    1  A    between atoms: N1_1  and  C1_4
REMARK    2  A    between atoms: C2_7  and  N3_8
REMARK    3  A    between atoms: N3_8  and  N4_10
REMARK    4  A    between atoms: C3_16  and  N7_17
REMARK    5  A    between atoms: N7_17  and  C4_19
REMARK    6  A    between atoms: C4_19  and  C5_20
ROOT
HETATM    1  C1  UNL     1       4.874   2.321  11.029  1.00  0.00     0.705 A
HETATM    2  N2  UNL     1       3.900   2.058  11.933  1.00  0.00    -0.018 N
ATOM      3  H2  UNL     1       3.180   2.761  12.100  1.00  0.00     0.203 HD
HETATM    4  C2  UNL     1       3.850   0.907  12.614  1.00  0.00     0.747 A
HETATM    5  N5  UNL     1       4.814   0.004  12.368  1.00  0.00     0.107 N
HETATM    6  N6  UNL     1       5.021  -1.211  12.884  1.00  0.00    -0.095 N
ATOM      7  H6  UNL     1       4.439  -1.663  13.589  1.00  0.00     0.207 HD
HETATM    8  C3  UNL     1       6.123  -1.741  12.321  1.00  0.00     0.709 A
HETATM    9  N12 UNL     1       6.577  -0.821  11.455  1.00  0.00    -0.018 N
ATOM     10  H12 UNL     1       7.407  -0.932  10.871  1.00  0.00     0.203 HD
HETATM   11  C6  UNL     1       5.788   0.267  11.462  1.00  0.00     0.748 A
HETATM   12  N13 UNL     1       5.838   1.420  10.780  1.00  0.00    -0.019 N
ATOM     13  H13 UNL     1       6.578   1.605  10.102  1.00  0.00     0.203 HD
ENDROOT
BRANCH   8  14
HETATM   14  N7  UNL     1       6.613  -2.905  12.590  1.00  0.00    -0.217 N
ATOM     15  H7  UNL     1       7.478  -3.225  12.154  1.00  0.00     0.178 HD
BRANCH  14  16
HETATM   16  C4  UNL     1       5.900  -3.736  13.524  1.00  0.00     0.217 C
BRANCH  16  17
HETATM   17  C5  UNL     1       5.317  -4.934  12.908  1.00  0.00     0.128 A
HETATM   18  N8  UNL     1       5.014  -6.089  13.502  1.00  0.00    -0.269 N
HETATM   19  N9  UNL     1       4.512  -6.881  12.572  1.00  0.00    -0.005 NA
ATOM     20  H8  UNL     1       5.144  -6.318  14.488  1.00  0.00     0.185 HD
HETATM   21  N10 UNL     1       4.496  -6.240  11.402  1.00  0.00    -0.225 N
HETATM   22  N11 UNL     1       4.991  -5.047  11.623  1.00  0.00    -0.274 N
ATOM     23  H10 UNL     1       4.163  -6.607  10.511  1.00  0.00     0.205 HD
ATOM     24  H11 UNL     1       5.110  -4.319  10.919  1.00  0.00     0.189 HD
ENDBRANCH  16  17
ENDBRANCH  14  16
ENDBRANCH   8  14
BRANCH   4  25
HETATM   25  N3  UNL     1       2.909   0.702  13.462  1.00  0.00    -0.136 N
ATOM     26  H3  UNL     1       2.835  -0.198  13.933  1.00  0.00     0.205 HD
BRANCH  25  27
HETATM   27  N4  UNL     1       1.993   1.705  13.736  1.00  0.00    -0.331 N
ATOM     28  H42 UNL     1       1.688   2.317  12.980  1.00  0.00     0.177 HD
ATOM     29  H41 UNL     1       1.633   1.823  14.684  1.00  0.00     0.177 HD
ENDBRANCH  25  27
ENDBRANCH   4  25
BRANCH   1  30
HETATM   30  N1  UNL     1       4.924   3.430  10.370  1.00  0.00    -0.234 N
ATOM     31  H12 UNL     1       4.079   3.712   9.873  1.00  0.00     0.174 HD
ATOM     32  H11 UNL     1       5.762   4.009  10.340  1.00  0.00     0.174 HD
ENDBRANCH   1  30
TORSDOF 6
ENDMDL