MODEL 1
REMARK VINA RESULT: -8.864737932      0.000      0.000
REMARK  5 active torsions:
REMARK  status: ('A' for Active; 'I' for Inactive)
REMARK       I    between atoms: C1_4  and  N3_6
REMARK       I    between atoms: N3_6  and  C2_8
REMARK    1  A    between atoms: C2_8  and  C3_10
REMARK    2  A    between atoms: C4_13  and  C5_14
REMARK    3  A    between atoms: C5_14  and  N5_15
REMARK    4  A    between atoms: C5_14  and  O2_19
REMARK    5  A    between atoms: C7_24  and  N7_25
ROOT
HETATM    1  C3  UNL     1       5.132  -0.135  12.026  1.00  0.00     0.191 A
HETATM    2  N4  UNL     1       4.741  -1.369  12.402  1.00  0.00    -0.333 N
ATOM      3  H4  UNL     1       3.748  -1.588  12.488  1.00  0.00     0.167 HD
HETATM    4  C4  UNL     1       5.659  -2.304  12.665  1.00  0.00     0.115 A
HETATM    5  C6  UNL     1       7.001  -1.946  12.530  1.00  0.00     0.188 A
HETATM    6  N6  UNL     1       8.140  -2.635  12.714  1.00  0.00    -0.170 N
ATOM      7  H6  UNL     1       8.217  -3.610  13.005  1.00  0.00     0.186 HD
HETATM    8  C7  UNL     1       9.165  -1.799  12.444  1.00  0.00     0.693 A
HETATM    9  N8  UNL     1       8.682  -0.590  12.090  1.00  0.00    -0.109 N
ATOM     10  H8  UNL     1       9.215   0.241  11.831  1.00  0.00     0.208 HD
HETATM   11  N9  UNL     1       7.368  -0.715  12.154  1.00  0.00    -0.161 N
HETATM   12  N10 UNL     1       6.432   0.163  11.910  1.00  0.00    -0.257 N
ATOM     13  H10 UNL     1       6.700   1.103  11.623  1.00  0.00     0.191 HD
ENDROOT
BRANCH   1  14
HETATM   14  C2  UNL     1       4.181   0.919  11.729  1.00  0.00     0.293 C
HETATM   15  N3  UNL     1       4.582   2.097  11.050  1.00  0.00    -0.295 N
HETATM   16  C1  UNL     1       3.693   3.149  10.740  1.00  0.00     0.188 C
ATOM     17  H3  UNL     1       5.560   2.189  10.773  1.00  0.00     0.171 HD
HETATM   18  N1  UNL     1       4.108   4.186  10.129  1.00  0.00    -0.373 N
HETATM   19  N2  UNL     1       2.339   3.042  11.114  1.00  0.00    -0.064 NA
ATOM     20  H12 UNL     1       3.465   4.946   9.905  1.00  0.00     0.158 HD
ATOM     21  H11 UNL     1       5.088   4.264   9.858  1.00  0.00     0.158 HD
HETATM   22  O1  UNL     1       2.999   0.766  12.084  1.00  0.00    -0.264 OA
ENDBRANCH   1  14
BRANCH   4  23
HETATM   23  C5  UNL     1       5.339  -3.694  13.088  1.00  0.00     0.371 C
BRANCH  23  24
HETATM   24  N5  UNL     1       5.301  -4.509  11.888  1.00  0.00    -0.047 N
ATOM     25  H53 UNL     1       4.797  -4.066  11.120  1.00  0.00     0.277 HD
ATOM     26  H52 UNL     1       6.208  -4.582  11.426  1.00  0.00     0.277 HD
ATOM     27  H51 UNL     1       4.913  -5.415  12.151  1.00  0.00     0.277 HD
ENDBRANCH  23  24
BRANCH  23  28
HETATM   28  O2  UNL     1       6.229  -4.172  14.024  1.00  0.00    -0.365 OA
ATOM     29  H2  UNL     1       6.494  -5.066  13.844  1.00  0.00     0.212 HD
ENDBRANCH  23  28
ENDBRANCH   4  23
BRANCH   8  30
HETATM   30  N7  UNL     1      10.434  -2.075  12.501  1.00  0.00    -0.233 N
ATOM     31  H72 UNL     1      10.807  -2.920  12.935  1.00  0.00     0.174 HD
ATOM     32  H71 UNL     1      11.201  -1.511  12.137  1.00  0.00     0.174 HD
ENDBRANCH   8  30
TORSDOF 5
ENDMDL