MODEL 1
REMARK VINA RESULT: -9.036915951      0.000      0.000
REMARK  6 active torsions:
REMARK  status: ('A' for Active; 'I' for Inactive)
REMARK    1  A    between atoms: N1_1  and  C1_4
REMARK    2  A    between atoms: C2_10  and  N5_11
REMARK    3  A    between atoms: C3_16  and  N7_17
REMARK    4  A    between atoms: N7_17  and  C4_19
REMARK    5  A    between atoms: C4_19  and  C5_20
REMARK    6  A    between atoms: C5_20  and  N8_21
ROOT
HETATM    1  C1  UNL     1       9.514  -1.408  12.488  1.00  0.00     0.706 A
HETATM    2  N2  UNL     1       9.574  -0.196  11.880  1.00  0.00    -0.116 N
ATOM      3  H2  UNL     1      10.478   0.246  11.710  1.00  0.00     0.207 HD
HETATM    4  N3  UNL     1       8.464   0.411  11.509  1.00  0.00    -0.192 N
ATOM      5  H3  UNL     1       8.518   1.321  11.053  1.00  0.00     0.210 HD
HETATM    6  N4  UNL     1       7.273  -0.146  11.722  1.00  0.00     0.106 N
HETATM    7  C2  UNL     1       6.140   0.472  11.345  1.00  0.00     0.728 A
HETATM    8  N6  UNL     1       4.917  -0.089  11.559  1.00  0.00    -0.020 N
ATOM      9  H6  UNL     1       4.059   0.382  11.273  1.00  0.00     0.203 HD
HETATM   10  C3  UNL     1       4.889  -1.288  12.162  1.00  0.00     0.707 A
HETATM   11  N11 UNL     1       6.013  -1.900  12.535  1.00  0.00    -0.019 N
ATOM     12  H11 UNL     1       5.958  -2.810  12.992  1.00  0.00     0.203 HD
HETATM   13  C7  UNL     1       7.211  -1.343  12.323  1.00  0.00     0.749 A
HETATM   14  N12 UNL     1       8.345  -1.997  12.718  1.00  0.00    -0.018 N
ATOM     15  H12 UNL     1       8.295  -2.907  13.175  1.00  0.00     0.203 HD
ENDROOT
BRANCH  10  16
HETATM   16  N7  UNL     1       3.761  -1.863  12.387  1.00  0.00    -0.224 N
ATOM     17  H7  UNL     1       2.909  -1.478  11.980  1.00  0.00     0.177 HD
BRANCH  16  18
HETATM   18  C4  UNL     1       3.688  -3.050  13.211  1.00  0.00     0.157 C
BRANCH  18  19
HETATM   19  C5  UNL     1       3.178  -4.172  12.334  1.00  0.00     0.142 C
BRANCH  19  20
HETATM   20  N8  UNL     1       4.199  -5.142  12.022  1.00  0.00    -0.365 N
HETATM   21  C6  UNL     1       3.952  -6.040  11.137  1.00  0.00     0.197 C
HETATM   22  N9  UNL     1       2.698  -6.078  10.478  1.00  0.00    -0.067 NA
HETATM   23  N10 UNL     1       4.936  -7.010  10.810  1.00  0.00    -0.067 NA
ATOM     24  H8  UNL     1       5.101  -5.116  12.496  1.00  0.00     0.161 HD
ENDBRANCH  19  20
ENDBRANCH  18  19
ENDBRANCH  16  18
ENDBRANCH  10  16
BRANCH   7  25
HETATM   25  N5  UNL     1       6.223   1.622  10.769  1.00  0.00    -0.232 N
ATOM     26  H52 UNL     1       7.044   1.847  10.206  1.00  0.00     0.174 HD
ATOM     27  H51 UNL     1       5.459   2.288  10.889  1.00  0.00     0.174 HD
ENDBRANCH   7  25
BRANCH   1  28
HETATM   28  N1  UNL     1      10.602  -2.018  12.859  1.00  0.00    -0.233 N
ATOM     29  H12 UNL     1      11.277  -1.508  13.429  1.00  0.00     0.174 HD
ATOM     30  H11 UNL     1      10.775  -2.985  12.584  1.00  0.00     0.174 HD
ENDBRANCH   1  28
TORSDOF 6
ENDMDL