MODEL 5
REMARK VINA RESULT: -7.729588123      1.501      1.748
REMARK  7 active torsions:
REMARK  status: ('A' for Active; 'I' for Inactive)
REMARK    1  A    between atoms: C2_2  and  N1_3
REMARK    2  A    between atoms: C2_2  and  C3_7
REMARK    3  A    between atoms: C3_7  and  O2_9
REMARK    4  A    between atoms: O2_9  and  N2_10
REMARK    5  A    between atoms: N2_10  and  N3_12
REMARK    6  A    between atoms: N3_12  and  C4_14
REMARK    7  A    between atoms: C8_23  and  N7_24
ROOT
HETATM    1  C4  UNL     1       4.296  -0.374  12.561  1.00  0.00     0.701 C
HETATM    2  N4  UNL     1       4.159   0.729  11.825  1.00  0.00    -0.175 N
ATOM      3  H4  UNL     1       3.194   0.982  11.610  1.00  0.00     0.185 HD
HETATM    4  C5  UNL     1       5.087   1.566  11.320  1.00  0.00     0.160 C
HETATM    5  N5  UNL     1       4.656   2.772  10.715  1.00  0.00    -0.080 NA
HETATM    6  C6  UNL     1       6.450   1.317  11.357  1.00  0.00     0.141 C
HETATM    7  N6  UNL     1       7.240   2.390  10.868  1.00  0.00    -0.094 NA
HETATM    8  C7  UNL     1       7.162   0.206  11.785  1.00  0.00     0.243 C
HETATM    9  O3  UNL     1       8.399   0.172  11.593  1.00  0.00    -0.282 OA
HETATM   10  C8  UNL     1       6.672  -0.916  12.424  1.00  0.00     0.167 C
HETATM   11  N8  UNL     1       5.410  -1.095  12.841  1.00  0.00    -0.172 N
ATOM     12  H8  UNL     1       5.267  -1.891  13.463  1.00  0.00     0.186 HD
ENDROOT
BRANCH   1  13
HETATM   13  N3  UNL     1       3.229  -0.843  13.093  1.00  0.00    -0.112 N
ATOM     14  H3  UNL     1       2.438  -0.212  13.222  1.00  0.00     0.207 HD
BRANCH  13  15
HETATM   15  N2  UNL     1       3.087  -2.167  13.507  1.00  0.00    -0.184 N
ATOM     16  H2  UNL     1       3.518  -2.447  14.388  1.00  0.00     0.217 HD
BRANCH  15  17
HETATM   17  O2  UNL     1       2.397  -3.112  12.792  1.00  0.00    -0.181 OA
BRANCH  17  18
HETATM   18  C3  UNL     1       3.033  -4.263  12.361  1.00  0.00     0.312 C
HETATM   19  O1  UNL     1       2.380  -5.055  11.633  1.00  0.00    -0.261 OA
BRANCH  18  20
HETATM   20  C2  UNL     1       4.421  -4.628  12.692  1.00  0.00     0.280 C
HETATM   21  C1  UNL     1       4.458  -6.144  12.900  1.00  0.00     0.051 C
BRANCH  20  22
HETATM   22  N1  UNL     1       5.341  -4.339  11.610  1.00  0.00    -0.066 N
ATOM     23  H13 UNL     1       5.732  -5.176  11.177  1.00  0.00     0.275 HD
ATOM     24  H12 UNL     1       4.883  -3.967  10.778  1.00  0.00     0.275 HD
ATOM     25  H11 UNL     1       6.051  -3.714  11.994  1.00  0.00     0.275 HD
ENDBRANCH  20  22
ENDBRANCH  18  20
ENDBRANCH  17  18
ENDBRANCH  15  17
ENDBRANCH  13  15
ENDBRANCH   1  13
BRANCH  10  26
HETATM   26  N7  UNL     1       7.493  -1.903  12.652  1.00  0.00    -0.382 N
ATOM     27  H72 UNL     1       8.382  -1.867  12.155  1.00  0.00     0.157 HD
ATOM     28  H71 UNL     1       7.200  -2.635  13.300  1.00  0.00     0.157 HD
ENDBRANCH  10  26
TORSDOF 7
ENDMDL