MODEL 2
REMARK VINA RESULT: -8.658899223      3.514      6.909
REMARK  5 active torsions:
REMARK  status: ('A' for Active; 'I' for Inactive)
REMARK    1  A    between atoms: C2_2  and  C8_29
REMARK    2  A    between atoms: N1_3  and  N2_5
REMARK    3  A    between atoms: N2_5  and  C3_7
REMARK    4  A    between atoms: N4_10  and  N5_11
REMARK    5  A    between atoms: C4_14  and  N6_15
REMARK       I    between atoms: N6_15  and  C5_17
REMARK       I    between atoms: C5_17  and  N7_18
REMARK       I    between atoms: C5_17  and  N8_22
ROOT
HETATM    1  C3  UNL     1       5.942  -1.833  12.034  1.00  0.00     0.161 A
HETATM    2  N3  UNL     1       6.778  -0.928  11.508  1.00  0.00    -0.260 N
ATOM      3  H3  UNL     1       7.742  -1.134  11.245  1.00  0.00     0.191 HD
HETATM    4  N4  UNL     1       6.218   0.257  11.367  1.00  0.00    -0.183 N
HETATM    5  C4  UNL     1       4.959   0.147  11.816  1.00  0.00     0.168 A
HETATM    6  C6  UNL     1       4.754  -1.171  12.246  1.00  0.00     0.138 A
HETATM    7  C7  UNL     1       3.536  -1.715  12.800  1.00  0.00     0.107 C
HETATM    8  N9  UNL     1       2.552  -2.153  13.242  1.00  0.00    -0.191 NA
ENDROOT
BRANCH   1   9
HETATM    9  N2  UNL     1       6.204  -3.211  12.327  1.00  0.00    -0.283 N
ATOM     10  H2  UNL     1       6.860  -3.477  13.062  1.00  0.00     0.188 HD
BRANCH   9  11
HETATM   11  N1  UNL     1       5.537  -4.172  11.579  1.00  0.00    -0.297 N
HETATM   12  C2  UNL     1       4.916  -5.174  12.138  1.00  0.00     0.098 C
HETATM   13  C1  UNL     1       4.904  -5.319  13.605  1.00  0.00     0.077 C
ATOM     14  H1  UNL     1       5.531  -4.091  10.562  1.00  0.00     0.187 HD
BRANCH  12  15
HETATM   15  C8  UNL     1       4.230  -6.158  11.327  1.00  0.00     0.223 C
HETATM   16  O1  UNL     1       3.003  -6.011  11.110  1.00  0.00    -0.643 OA
HETATM   17  O2  UNL     1       4.916  -7.234  10.807  1.00  0.00    -0.643 OA
ENDBRANCH  12  15
ENDBRANCH   9  11
ENDBRANCH   1   9
BRANCH   5  18
HETATM   18  N6  UNL     1       4.053   1.028  11.875  1.00  0.00    -0.323 N
HETATM   19  C5  UNL     1       4.114   2.418  11.584  1.00  0.00     0.481 C
HETATM   20  N7  UNL     1       4.185   2.738  10.176  1.00  0.00    -0.033 N
HETATM   21  N8  UNL     1       2.971   3.151  12.110  1.00  0.00    -0.033 N
ATOM     22  H73 UNL     1       4.969   2.250   9.742  1.00  0.00     0.278 HD
ATOM     23  H72 UNL     1       3.409   2.306   9.675  1.00  0.00     0.278 HD
ATOM     24  H71 UNL     1       4.229   3.735   9.967  1.00  0.00     0.278 HD
ATOM     25  H83 UNL     1       2.094   2.747  11.782  1.00  0.00     0.278 HD
ATOM     26  H82 UNL     1       2.862   2.991  13.111  1.00  0.00     0.278 HD
ATOM     27  H81 UNL     1       3.015   4.149  11.900  1.00  0.00     0.278 HD
ATOM     28  H6  UNL     1       3.139   0.689  12.178  1.00  0.00     0.165 HD
ENDBRANCH   5  18
BRANCH   4  29
HETATM   29  N5  UNL     1       6.845   1.412  10.840  1.00  0.00    -0.322 N
ATOM     30  H52 UNL     1       7.564   1.451  10.117  1.00  0.00     0.179 HD
ATOM     31  H51 UNL     1       6.656   2.374  11.121  1.00  0.00     0.179 HD
ENDBRANCH   4  29
TORSDOF 5
ENDMDL