MODEL 3
REMARK VINA RESULT: -8.397436229      1.134      2.159
REMARK  6 active torsions:
REMARK  status: ('A' for Active; 'I' for Inactive)
REMARK    1  A    between atoms: N1_1  and  N2_4
REMARK    2  A    between atoms: N2_4  and  C1_6
REMARK    3  A    between atoms: N6_13  and  C2_14
REMARK    4  A    between atoms: C4_19  and  N9_20
REMARK    5  A    between atoms: N9_20  and  S1_22
REMARK    6  A    between atoms: S1_22  and  N10_23
ROOT
HETATM    1  C2  UNL     1       4.954  -0.839  12.530  1.00  0.00     0.723 A
HETATM    2  N7  UNL     1       6.243  -0.905  12.899  1.00  0.00    -0.172 N
ATOM      3  H7  UNL     1       6.762  -0.141  13.332  1.00  0.00     0.185 HD
HETATM    4  C3  UNL     1       6.755  -2.117  12.618  1.00  0.00     0.177 A
HETATM    5  N8  UNL     1       8.052  -2.629  12.828  1.00  0.00    -0.078 NA
HETATM    6  C4  UNL     1       5.735  -2.849  12.045  1.00  0.00     0.173 A
HETATM    7  N11 UNL     1       4.661  -2.038  12.009  1.00  0.00    -0.170 N
ATOM      8  H11 UNL     1       3.748  -2.301  11.637  1.00  0.00     0.186 HD
ENDROOT
BRANCH   1   9
HETATM    9  N6  UNL     1       4.074   0.291  12.668  1.00  0.00     0.109 N
HETATM   10  C1  UNL     1       4.155   1.407  11.937  1.00  0.00     0.749 A
HETATM   11  N3  UNL     1       3.175   2.231  12.348  1.00  0.00    -0.113 N
HETATM   12  N4  UNL     1       2.540   1.600  13.301  1.00  0.00    -0.212 N
ATOM     13  H3  UNL     1       2.968   3.163  11.987  1.00  0.00     0.207 HD
HETATM   14  N5  UNL     1       3.075   0.433  13.499  1.00  0.00    -0.191 N
ATOM     15  H4  UNL     1       1.741   1.970  13.815  1.00  0.00     0.210 HD
ATOM     16  H5  UNL     1       2.768  -0.256  14.187  1.00  0.00     0.211 HD
BRANCH  10  17
HETATM   17  N2  UNL     1       4.998   1.691  10.998  1.00  0.00    -0.135 N
ATOM     18  H2  UNL     1       5.615   0.949  10.665  1.00  0.00     0.205 HD
BRANCH  17  19
HETATM   19  N1  UNL     1       5.112   2.939  10.421  1.00  0.00    -0.331 N
ATOM     20  H12 UNL     1       5.056   2.987   9.404  1.00  0.00     0.177 HD
ATOM     21  H11 UNL     1       5.247   3.798  10.952  1.00  0.00     0.177 HD
ENDBRANCH  17  19
ENDBRANCH  10  17
ENDBRANCH   1   9
BRANCH   6  22
HETATM   22  N9  UNL     1       5.813  -4.211  11.579  1.00  0.00    -0.250 N
ATOM     23  H9  UNL     1       6.537  -4.492  10.917  1.00  0.00     0.182 HD
BRANCH  22  24
HETATM   24  S1  UNL     1       4.667  -5.354  12.155  1.00  0.00     0.318 S
HETATM   25  O1  UNL     1       4.621  -6.551  11.254  1.00  0.00    -0.183 OA
HETATM   26  O2  UNL     1       3.314  -4.718  12.164  1.00  0.00    -0.183 OA
BRANCH  24  27
HETATM   27  N10 UNL     1       5.080  -5.786  13.773  1.00  0.00    -0.311 N
ATOM     28 2H10 UNL     1       5.804  -5.333  14.329  1.00  0.00     0.170 HD
ATOM     29 1H10 UNL     1       4.483  -6.558  14.068  1.00  0.00     0.170 HD
ENDBRANCH  24  27
ENDBRANCH  22  24
ENDBRANCH   6  22
TORSDOF 6
ENDMDL