MODEL 5
REMARK VINA RESULT: -6.761004086      2.257      5.856
REMARK  6 active torsions:
REMARK  status: ('A' for Active; 'I' for Inactive)
REMARK    1  A    between atoms: C4_6  and  N2_7
REMARK    2  A    between atoms: N2_7  and  N3_9
REMARK    3  A    between atoms: C5_11  and  C6_12
REMARK    4  A    between atoms: N4_15  and  N5_16
REMARK       I    between atoms: N5_16  and  C7_18
REMARK       I    between atoms: C7_18  and  N7_22
REMARK    5  A    between atoms: N7_22  and  N8_24
REMARK    6  A    between atoms: N8_24  and  N9_25
ROOT
HETATM    1  C1  UNL     1       4.654  -6.156  11.118  1.00  0.00     0.049 C
HETATM    2  C2  UNL     1       4.483  -5.649  12.530  1.00  0.00     0.123 A
HETATM    3  C3  UNL     1       4.170  -6.787  13.469  1.00  0.00     0.049 C
HETATM    4  N1  UNL     1       5.671  -4.995  13.027  1.00  0.00    -0.205 N
ATOM      5  H1  UNL     1       6.569  -5.462  13.155  1.00  0.00     0.179 HD
HETATM    6  C4  UNL     1       5.458  -3.749  13.287  1.00  0.00     0.718 A
HETATM    7  N4  UNL     1       4.110  -3.397  13.006  1.00  0.00    -0.034 N
HETATM    8  C8  UNL     1       3.473  -4.579  12.529  1.00  0.00     0.287 A
HETATM    9  O3  UNL     1       2.254  -4.623  12.184  1.00  0.00    -0.268 OA
ENDROOT
BRANCH   7  10
HETATM   10  N5  UNL     1       3.541  -2.114  13.176  1.00  0.00    -0.107 N
HETATM   11  C7  UNL     1       4.003  -1.004  12.412  1.00  0.00     0.704 C
HETATM   12  N6  UNL     1       4.910  -1.209  11.520  1.00  0.00    -0.232 N
HETATM   13  N7  UNL     1       3.511   0.292  12.593  1.00  0.00    -0.116 N
ATOM     14  H62 UNL     1       5.269  -2.155  11.387  1.00  0.00     0.174 HD
ATOM     15  H61 UNL     1       5.240  -0.414  10.973  1.00  0.00     0.174 HD
ATOM     16  H7  UNL     1       2.505   0.451  12.534  1.00  0.00     0.203 HD
ATOM     17  H5  UNL     1       2.791  -1.981  13.855  1.00  0.00     0.207 HD
BRANCH  13  18
HETATM   18  N8  UNL     1       4.366   1.390  12.856  1.00  0.00    -0.015 NA
BRANCH  18  19
HETATM   19  N9  UNL     1       4.273   2.314  11.809  1.00  0.00    -0.328 N
ATOM     20  H92 UNL     1       3.502   2.356  11.143  1.00  0.00     0.174 HD
ATOM     21  H91 UNL     1       5.088   2.927  11.823  1.00  0.00     0.174 HD
ENDBRANCH  18  19
ENDBRANCH  13  18
ENDBRANCH   7  10
BRANCH   6  22
HETATM   22  N2  UNL     1       6.417  -2.796  13.797  1.00  0.00    -0.131 N
ATOM     23  H2  UNL     1       6.156  -2.222  14.599  1.00  0.00     0.205 HD
BRANCH  22  24
HETATM   24  N3  UNL     1       7.668  -2.629  13.247  1.00  0.00    -0.291 N
HETATM   25  C5  UNL     1       8.133  -1.446  13.027  1.00  0.00     0.192 C
ATOM     26  H3  UNL     1       8.232  -3.446  13.012  1.00  0.00     0.186 HD
BRANCH  25  27
HETATM   27  C6  UNL     1       9.449  -1.313  12.448  1.00  0.00     0.216 C
HETATM   28  O1  UNL     1      10.252  -2.266  12.489  1.00  0.00    -0.643 OA
HETATM   29  O2  UNL     1       9.840  -0.138  11.844  1.00  0.00    -0.643 OA
ENDBRANCH  25  27
ENDBRANCH  22  24
ENDBRANCH   6  22
TORSDOF 6
ENDMDL