MODEL 1
REMARK VINA RESULT: -9.278750525      0.000      0.000
REMARK  5 active torsions:
REMARK  status: ('A' for Active; 'I' for Inactive)
REMARK    1  A    between atoms: N1_1  and  C1_4
REMARK    2  A    between atoms: C2_7  and  C3_8
REMARK       I    between atoms: C3_8  and  N3_10
REMARK    3  A    between atoms: N3_10  and  C4_12
REMARK    4  A    between atoms: C4_12  and  N4_13
REMARK    5  A    between atoms: C7_23  and  N9_24
ROOT
HETATM    1  C1  UNL     1       6.335   1.082  11.184  1.00  0.00     0.678 A
HETATM    2  N2  UNL     1       6.422  -0.244  11.380  1.00  0.00    -0.184 N
ATOM      3  H2  UNL     1       7.280  -0.734  11.127  1.00  0.00     0.184 HD
HETATM    4  C2  UNL     1       5.406  -0.927  11.901  1.00  0.00     0.144 A
HETATM    5  C6  UNL     1       4.269  -0.220  12.229  1.00  0.00     0.123 A
HETATM    6  N8  UNL     1       3.158  -0.913  12.788  1.00  0.00    -0.096 NA
HETATM    7  C7  UNL     1       4.180   1.145  12.026  1.00  0.00     0.141 A
HETATM    8  N10 UNL     1       5.241   1.795  11.493  1.00  0.00    -0.175 N
ATOM      9  H10 UNL     1       5.210   2.801  11.329  1.00  0.00     0.186 HD
ENDROOT
BRANCH   4  10
HETATM   10  C3  UNL     1       5.451  -2.368  12.135  1.00  0.00     0.272 C
HETATM   11  O1  UNL     1       6.061  -3.105  11.327  1.00  0.00    -0.266 OA
HETATM   12  N3  UNL     1       4.820  -2.958  13.255  1.00  0.00    -0.338 N
ATOM     13  H3  UNL     1       4.320  -2.370  13.920  1.00  0.00     0.164 HD
BRANCH  12  14
HETATM   14  C4  UNL     1       4.879  -4.390  13.465  1.00  0.00     0.280 C
BRANCH  14  15
HETATM   15  N4  UNL     1       4.252  -5.109  12.376  1.00  0.00    -0.210 N
HETATM   16  N5  UNL     1       4.728  -6.082  11.634  1.00  0.00    -0.218 N
HETATM   17  N6  UNL     1       3.813  -6.453  10.743  1.00  0.00    -0.002 NA
ATOM     18  H5  UNL     1       5.657  -6.490  11.727  1.00  0.00     0.206 HD
HETATM   19  N7  UNL     1       2.722  -5.720  10.896  1.00  0.00    -0.233 N
HETATM   20  C5  UNL     1       2.994  -4.883  11.912  1.00  0.00     0.356 A
ATOM     21  H7  UNL     1       1.859  -5.778  10.357  1.00  0.00     0.189 HD
HETATM   22  O2  UNL     1       2.185  -4.019  12.356  1.00  0.00    -0.244 OA
ENDBRANCH  14  15
ENDBRANCH  12  14
ENDBRANCH   4  10
BRANCH   1  23
HETATM   23  N1  UNL     1       7.348   1.731  10.671  1.00  0.00    -0.234 N
ATOM     24  H12 UNL     1       8.061   2.070  11.317  1.00  0.00     0.174 HD
ATOM     25  H11 UNL     1       7.398   1.878   9.663  1.00  0.00     0.174 HD
ENDBRANCH   1  23
BRANCH   7  26
HETATM   26  N9  UNL     1       3.098   1.793  12.341  1.00  0.00    -0.383 N
ATOM     27  H92 UNL     1       2.231   1.633  11.830  1.00  0.00     0.157 HD
ATOM     28  H91 UNL     1       3.101   2.471  13.104  1.00  0.00     0.157 HD
ENDBRANCH   7  26
TORSDOF 5
ENDMDL