MODEL 4
REMARK VINA RESULT: -9.306014841      1.771      6.292
REMARK  3 active torsions:
REMARK  status: ('A' for Active; 'I' for Inactive)
REMARK    1  A    between atoms: C2_3  and  N2_4
REMARK    2  A    between atoms: N2_4  and  N3_6
REMARK    3  A    between atoms: N3_6  and  C3_8
ROOT
HETATM    1  N2  UNL     1       5.474  -3.288  13.494  1.00  0.00    -0.269 N
ATOM      2  H2  UNL     1       5.395  -3.290  14.511  1.00  0.00     0.189 HD
ENDROOT
BRANCH   1   3
HETATM    3  C2  UNL     1       4.690  -4.178  12.713  1.00  0.00     0.154 A
HETATM    4  C1  UNL     1       3.325  -3.976  12.595  1.00  0.00     0.159 A
HETATM    5  N1  UNL     1       2.716  -2.879  13.259  1.00  0.00    -0.092 NA
HETATM    6  C7  UNL     1       2.586  -4.854  11.829  1.00  0.00     0.277 A
HETATM    7  N8  UNL     1       3.156  -5.899  11.196  1.00  0.00    -0.274 N
HETATM    8  O4  UNL     1       1.341  -4.713  11.692  1.00  0.00    -0.266 OA
HETATM    9  C6  UNL     1       4.487  -6.073  11.327  1.00  0.00     0.328 A
ATOM     10  H8  UNL     1       2.595  -6.540  10.634  1.00  0.00     0.173 HD
HETATM   11  N7  UNL     1       5.214  -5.217  12.073  1.00  0.00    -0.292 N
HETATM   12  O3  UNL     1       5.012  -7.048  10.732  1.00  0.00    -0.247 OA
ATOM     13  H7  UNL     1       6.219  -5.377  12.150  1.00  0.00     0.172 HD
ENDBRANCH   1   3
BRANCH   1  14
HETATM   14  N3  UNL     1       6.347  -2.417  12.862  1.00  0.00    -0.130 N
ATOM     15  H3  UNL     1       7.323  -2.679  12.723  1.00  0.00     0.205 HD
BRANCH  14  16
HETATM   16  C3  UNL     1       5.875  -1.162  12.411  1.00  0.00     0.705 A
HETATM   17  N4  UNL     1       4.643  -0.696  12.738  1.00  0.00    -0.139 N
HETATM   18  C4  UNL     1       4.200   0.499  12.306  1.00  0.00     0.342 A
ATOM     19  H4  UNL     1       4.036  -1.266  13.327  1.00  0.00     0.189 HD
HETATM   20  O1  UNL     1       3.038   0.924  12.622  1.00  0.00    -0.246 OA
HETATM   21  N5  UNL     1       4.988   1.263  11.528  1.00  0.00    -0.260 N
HETATM   22  C5  UNL     1       6.215   0.844  11.177  1.00  0.00     0.342 A
ATOM     23  H5  UNL     1       4.651   2.168  11.202  1.00  0.00     0.175 HD
HETATM   24  O2  UNL     1       6.951   1.558  10.450  1.00  0.00    -0.246 OA
HETATM   25  N6  UNL     1       6.629  -0.352  11.624  1.00  0.00    -0.139 N
ATOM     26  H6  UNL     1       7.561  -0.669  11.358  1.00  0.00     0.189 HD
ENDBRANCH  14  16
ENDBRANCH   1  14
TORSDOF 3
ENDMDL