MODEL 2
REMARK VINA RESULT: -7.540992106      1.922      6.122
REMARK  8 active torsions:
REMARK  status: ('A' for Active; 'I' for Inactive)
REMARK    1  A    between atoms: C2_2  and  C7_28
REMARK    2  A    between atoms: N1_3  and  N2_5
REMARK    3  A    between atoms: N2_5  and  C3_7
REMARK    4  A    between atoms: C4_10  and  N4_11
REMARK    5  A    between atoms: N4_11  and  N5_12
REMARK       I    between atoms: N4_11  and  C5_15
REMARK    6  A    between atoms: C6_22  and  N9_23
REMARK    7  A    between atoms: C7_28  and  N11_29
REMARK    8  A    between atoms: C7_28  and  N12_33
ROOT
HETATM    1  C3  UNL     1       6.111  -1.583  12.564  1.00  0.00     0.726 A
HETATM    2  N3  UNL     1       7.426  -1.424  12.537  1.00  0.00    -0.018 N
ATOM      3  H3  UNL     1       8.027  -2.138  12.947  1.00  0.00     0.203 HD
HETATM    4  C4  UNL     1       7.980  -0.331  11.973  1.00  0.00     0.734 A
HETATM    5  N8  UNL     1       7.180   0.600  11.437  1.00  0.00    -0.020 N
ATOM      6  H8  UNL     1       7.589   1.430  11.008  1.00  0.00     0.203 HD
HETATM    7  C6  UNL     1       5.844   0.454  11.458  1.00  0.00     0.705 A
HETATM    8  N10 UNL     1       5.321  -0.645  12.026  1.00  0.00    -0.020 N
ATOM      9  H10 UNL     1       4.308  -0.767  12.046  1.00  0.00     0.203 HD
ENDROOT
BRANCH   1  10
HETATM   10  N2  UNL     1       5.629  -2.649  13.116  1.00  0.00    -0.131 N
ATOM     11  H2  UNL     1       6.188  -3.197  13.769  1.00  0.00     0.205 HD
BRANCH  10  12
HETATM   12  N1  UNL     1       4.343  -3.026  12.801  1.00  0.00    -0.291 N
HETATM   13  C2  UNL     1       4.025  -4.209  12.497  1.00  0.00     0.057 C
HETATM   14  C1  UNL     1       2.572  -4.452  12.178  1.00  0.00     0.069 C
ATOM     15  H1  UNL     1       3.612  -2.315  12.813  1.00  0.00     0.187 HD
BRANCH  13  16
HETATM   16  C7  UNL     1       4.930  -5.344  12.433  1.00  0.00     0.424 C
BRANCH  16  17
HETATM   17  N11 UNL     1       4.604  -6.102  11.236  1.00  0.00    -0.045 N
ATOM     18 3H11 UNL     1       4.210  -5.522  10.495  1.00  0.00     0.277 HD
ATOM     19 2H11 UNL     1       5.431  -6.421  10.732  1.00  0.00     0.277 HD
ATOM     20 1H11 UNL     1       3.987  -6.866  11.512  1.00  0.00     0.277 HD
ENDBRANCH  16  17
BRANCH  16  21
HETATM   21  N12 UNL     1       4.956  -6.142  13.609  1.00  0.00    -0.045 N
ATOM     22 3H12 UNL     1       4.114  -5.985  14.164  1.00  0.00     0.277 HD
ATOM     23 2H12 UNL     1       4.829  -7.126  13.375  1.00  0.00     0.277 HD
ATOM     24 1H12 UNL     1       5.789  -6.017  14.185  1.00  0.00     0.277 HD
ENDBRANCH  16  21
ENDBRANCH  13  16
ENDBRANCH  10  12
ENDBRANCH   1  10
BRANCH   4  25
HETATM   25  N4  UNL     1       9.393  -0.200  11.965  1.00  0.00    -0.062 N
HETATM   26  C5  UNL     1      10.186  -1.311  12.383  1.00  0.00     0.224 C
HETATM   27  N6  UNL     1      10.788  -1.990  11.487  1.00  0.00    -0.372 N
HETATM   28  N7  UNL     1      10.304  -1.652  13.749  1.00  0.00    -0.061 NA
ATOM     29  H62 UNL     1      10.702  -1.743  10.501  1.00  0.00     0.158 HD
ATOM     30  H61 UNL     1      11.354  -2.784  11.786  1.00  0.00     0.158 HD
BRANCH  25  31
HETATM   31  N5  UNL     1      10.008   0.968  11.564  1.00  0.00    -0.322 N
ATOM     32  H52 UNL     1       9.890   1.300  10.607  1.00  0.00     0.178 HD
ATOM     33  H51 UNL     1      10.583   1.516  12.204  1.00  0.00     0.178 HD
ENDBRANCH  25  31
ENDBRANCH   4  25
BRANCH   7  34
HETATM   34  N9  UNL     1       5.053   1.362  10.935  1.00  0.00    -0.234 N
ATOM     35  H92 UNL     1       4.858   2.223  11.446  1.00  0.00     0.174 HD
ATOM     36  H91 UNL     1       4.624   1.224  10.020  1.00  0.00     0.174 HD
ENDBRANCH   7  34
TORSDOF 8
ENDMDL