MODEL 5
REMARK VINA RESULT: -7.742104403      2.369      6.212
REMARK  8 active torsions:
REMARK  status: ('A' for Active; 'I' for Inactive)
REMARK    1  A    between atoms: O1_2  and  C2_3
REMARK    2  A    between atoms: C4_5  and  C5_6
REMARK    3  A    between atoms: C5_6  and  O2_7
REMARK    4  A    between atoms: N1_9  and  C6_10
REMARK    5  A    between atoms: C8_12  and  C9_13
REMARK    6  A    between atoms: N3_16  and  C10_17
REMARK    7  A    between atoms: C13_20  and  N4_21
REMARK    8  A    between atoms: C15_28  and  N6_29
ROOT
HETATM    1  C6  UNL     1       4.767  28.804  55.982  1.00  0.00     0.059 A
HETATM    2  C7  UNL     1       4.947  29.554  57.120  1.00  0.00     0.063 A
HETATM    3  C8  UNL     1       6.231  29.887  57.572  1.00  0.00     0.067 A
HETATM    4  N5  UNL     1       7.282  29.453  56.861  1.00  0.00    -0.339 N
ATOM      5  H5  UNL     1       8.218  29.694  57.186  1.00  0.00     0.167 HD
HETATM    6  C15 UNL     1       7.167  28.717  55.742  1.00  0.00     0.128 A
HETATM    7  C22 UNL     1       5.878  28.395  55.308  1.00  0.00     0.104 A
HETATM    8 CL1  UNL     1       5.757  27.445  53.877  1.00  0.00    -0.078 Cl
ENDROOT
BRANCH   1   9
HETATM    9  N1  UNL     1       3.460  28.452  55.493  1.00  0.00    -0.367 N
HETATM   10  C4  UNL     1       2.875  29.051  54.347  1.00  0.00     0.111 C
HETATM   11  C3  UNL     1       2.089  28.044  53.578  1.00  0.00     0.065 C
HETATM   12  C2  UNL     1       1.020  27.357  54.376  1.00  0.00     0.196 C
HETATM   13  C24 UNL     1       1.442  26.996  55.761  1.00  0.00     0.284 C
HETATM   14  C23 UNL     1       2.743  27.450  56.234  1.00  0.00     0.205 C
HETATM   15  F2  UNL     1       1.345  25.605  55.947  1.00  0.00    -0.202 F
HETATM   16  F3  UNL     1       0.451  27.493  56.626  1.00  0.00    -0.202 F
BRANCH  10  17
HETATM   17  C5  UNL     1       1.967  30.242  54.681  1.00  0.00     0.189 C
BRANCH  17  18
HETATM   18  O2  UNL     1       1.458  30.658  53.436  1.00  0.00    -0.399 OA
ATOM     19  H2  UNL     1       2.164  31.159  53.044  1.00  0.00     0.209 HD
ENDBRANCH  17  18
ENDBRANCH  10  17
BRANCH  12  20
HETATM   20  O1  UNL     1      -0.128  28.140  54.346  1.00  0.00    -0.385 OA
HETATM   21  C1  UNL     1      -0.795  27.930  53.147  1.00  0.00     0.202 C
ENDBRANCH  12  20
ENDBRANCH   1   9
BRANCH   3  22
HETATM   22  C9  UNL     1       6.382  30.685  58.782  1.00  0.00     0.117 A
HETATM   23  N2  UNL     1       7.052  31.829  58.968  1.00  0.00    -0.291 N
HETATM   24  N3  UNL     1       6.934  32.226  60.223  1.00  0.00    -0.270 N
ATOM     25  H2  UNL     1       7.579  32.322  58.246  1.00  0.00     0.187 HD
HETATM   26  C13 UNL     1       6.174  31.336  60.883  1.00  0.00     0.158 A
HETATM   27  C14 UNL     1       5.816  30.358  59.993  1.00  0.00     0.191 A
HETATM   28  F1  UNL     1       5.040  29.254  60.247  1.00  0.00    -0.199 F
BRANCH  24  29
HETATM   29  C10 UNL     1       7.497  33.407  60.857  1.00  0.00     0.102 C
HETATM   30  C11 UNL     1       6.575  34.606  60.654  1.00  0.00     0.034 C
HETATM   31  C12 UNL     1       8.873  33.670  60.265  1.00  0.00     0.034 C
ENDBRANCH  24  29
BRANCH  26  32
HETATM   32  N4  UNL     1       5.825  31.367  62.133  1.00  0.00    -0.382 N
ATOM     33  H42 UNL     1       5.902  32.183  62.740  1.00  0.00     0.157 HD
ATOM     34  H41 UNL     1       5.431  30.607  62.688  1.00  0.00     0.157 HD
ENDBRANCH  26  32
ENDBRANCH   3  22
BRANCH   6  35
HETATM   35  N6  UNL     1       8.315  28.279  55.022  1.00  0.00    -0.363 N
HETATM   36  C16 UNL     1       9.411  27.449  55.484  1.00  0.00     0.132 C
HETATM   37  C17 UNL     1       9.982  26.755  54.284  1.00  0.00     0.036 C
HETATM   38  C18 UNL     1      11.472  27.070  54.099  1.00  0.00     0.035 C
HETATM   39  C20 UNL     1       9.386  27.419  53.084  1.00  0.00     0.145 C
HETATM   40  C19 UNL     1      11.553  27.164  52.591  1.00  0.00     0.168 C
HETATM   41  O3  UNL     1      10.401  27.828  52.258  1.00  0.00    -0.384 OA
HETATM   42  C21 UNL     1       8.603  28.600  53.639  1.00  0.00     0.157 C
ENDBRANCH   6  35
TORSDOF 8
ENDMDL