MODEL 2
REMARK VINA RESULT: -8.452211330      1.517      2.320
REMARK  8 active torsions:
REMARK  status: ('A' for Active; 'I' for Inactive)
REMARK    1  A    between atoms: N1_1  and  C1_5
REMARK    2  A    between atoms: C4_8  and  N2_9
REMARK    3  A    between atoms: N2_9  and  S1_11
REMARK    4  A    between atoms: S1_11  and  C5_14
REMARK    5  A    between atoms: C9_21  and  N3_22
REMARK    6  A    between atoms: C12_27  and  N5_28
REMARK    7  A    between atoms: N5_28  and  C13_30
REMARK    8  A    between atoms: C13_30  and  C14_31
ROOT
HETATM    1  C1  UNL     1       5.808  28.263  59.722  1.00  0.00     0.208 C
HETATM    2  C2  UNL     1       4.671  28.912  60.492  1.00  0.00     0.037 C
HETATM    3  C3  UNL     1       4.434  30.276  59.887  1.00  0.00     0.030 C
HETATM    4  C4  UNL     1       5.663  30.424  58.935  1.00  0.00     0.118 C
HETATM    5  C9  UNL     1       5.724  29.055  58.399  1.00  0.00     0.146 C
ENDROOT
BRANCH   5   6
HETATM    6  N3  UNL     1       6.768  28.705  57.503  1.00  0.00    -0.318 N
HETATM    7  C10 UNL     1       8.020  28.362  57.842  1.00  0.00     0.185 A
HETATM    8  N4  UNL     1       8.710  28.097  56.721  1.00  0.00    -0.346 N
HETATM    9  C11 UNL     1       7.909  28.268  55.673  1.00  0.00     0.122 A
ATOM     10  H4  UNL     1       9.688  27.811  56.680  1.00  0.00     0.167 HD
HETATM   11  C12 UNL     1       8.073  28.141  54.315  1.00  0.00     0.133 A
HETATM   12  C16 UNL     1       6.694  28.649  56.161  1.00  0.00     0.141 A
HETATM   13  N6  UNL     1       7.052  28.389  53.472  1.00  0.00    -0.337 N
HETATM   14  C15 UNL     1       5.863  28.763  53.969  1.00  0.00     0.183 A
ATOM     15  H6  UNL     1       7.182  28.293  52.465  1.00  0.00     0.168 HD
HETATM   16  N7  UNL     1       5.691  28.889  55.276  1.00  0.00    -0.336 N
ATOM     17  H7  UNL     1       4.778  29.175  55.629  1.00  0.00     0.168 HD
BRANCH  11  18
HETATM   18  N5  UNL     1       9.232  27.776  53.823  1.00  0.00    -0.369 N
ATOM     19  H5  UNL     1       9.822  27.118  54.334  1.00  0.00     0.161 HD
BRANCH  18  20
HETATM   20  C13 UNL     1       9.668  28.305  52.562  1.00  0.00     0.192 C
BRANCH  20  21
HETATM   21  C14 UNL     1      11.113  27.891  52.333  1.00  0.00     0.370 C
HETATM   22  F1  UNL     1      11.804  27.840  53.528  1.00  0.00    -0.213 F
HETATM   23  F2  UNL     1      11.740  28.804  51.519  1.00  0.00    -0.213 F
ENDBRANCH  20  21
ENDBRANCH  18  20
ENDBRANCH  11  18
ENDBRANCH   5   6
BRANCH   1  24
HETATM   24  N1  UNL     1       5.614  26.862  59.508  1.00  0.00    -0.073 N
ATOM     25  H13 UNL     1       6.406  26.458  59.009  1.00  0.00     0.274 HD
ATOM     26  H12 UNL     1       5.687  26.347  60.385  1.00  0.00     0.274 HD
ATOM     27  H11 UNL     1       4.737  26.648  59.034  1.00  0.00     0.274 HD
ENDBRANCH   1  24
BRANCH   4  28
HETATM   28  N2  UNL     1       5.515  31.519  58.091  1.00  0.00    -0.308 N
ATOM     29  H2  UNL     1       4.619  31.641  57.619  1.00  0.00     0.172 HD
BRANCH  28  30
HETATM   30  S1  UNL     1       6.698  32.631  57.805  1.00  0.00     0.265 S
HETATM   31  O1  UNL     1       6.437  33.559  56.635  1.00  0.00    -0.200 OA
HETATM   32  O2  UNL     1       7.974  31.881  57.383  1.00  0.00    -0.200 OA
BRANCH  30  33
HETATM   33  C5  UNL     1       7.204  33.659  59.114  1.00  0.00     0.123 A
HETATM   34  C6  UNL     1       8.402  34.220  59.426  1.00  0.00     0.059 A
HETATM   35  C7  UNL     1       8.479  34.976  60.531  1.00  0.00     0.064 A
HETATM   36 CL1  UNL     1       9.986  35.774  61.061  1.00  0.00    -0.082 Cl
HETATM   37  C8  UNL     1       7.342  35.133  61.272  1.00  0.00     0.097 A
HETATM   38 CL2  UNL     1       7.137  36.067  62.768  1.00  0.00    -0.074 Cl
HETATM   39  S2  UNL     1       6.194  34.216  60.404  1.00  0.00    -0.063 SA
ENDBRANCH  30  33
ENDBRANCH  28  30
ENDBRANCH   4  28
TORSDOF 8
ENDMDL