MODEL 4
REMARK VINA RESULT: -7.660331784      3.782      8.548
REMARK  9 active torsions:
REMARK  status: ('A' for Active; 'I' for Inactive)
REMARK    1  A    between atoms: C2_2  and  C3_3
REMARK    2  A    between atoms: C3_3  and  C4_6
REMARK    3  A    between atoms: C4_6  and  O1_7
REMARK    4  A    between atoms: C4_6  and  O2_9
REMARK    5  A    between atoms: C4_6  and  C5_11
REMARK    6  A    between atoms: C5_11  and  N1_12
REMARK    7  A    between atoms: C9_18  and  S2_19
REMARK    8  A    between atoms: S2_19  and  N2_22
REMARK    9  A    between atoms: C11_24  and  C12_25
ROOT
HETATM    1  N1  UNL     1       5.715  33.852  62.160  1.00  0.00    -0.302 N
HETATM    2  C6  UNL     1       4.842  33.788  63.180  1.00  0.00     0.291 A
HETATM    3  O3  UNL     1       4.435  34.653  63.999  1.00  0.00    -0.259 OA
HETATM    4  S1  UNL     1       4.290  32.146  63.201  1.00  0.00    -0.027 SA
HETATM    5  C7  UNL     1       5.226  31.614  61.870  1.00  0.00     0.038 A
HETATM    6  C8  UNL     1       5.330  30.361  61.237  1.00  0.00     0.046 A
HETATM    7  C9  UNL     1       6.162  30.199  60.151  1.00  0.00     0.076 A
HETATM    8  C16 UNL     1       6.847  31.322  59.765  1.00  0.00     0.027 A
HETATM    9  C17 UNL     1       6.742  32.528  60.383  1.00  0.00     0.032 A
HETATM   10  C18 UNL     1       5.902  32.723  61.493  1.00  0.00     0.055 A
ENDROOT
BRANCH   7  11
HETATM   11  S2  UNL     1       6.298  28.654  59.362  1.00  0.00     0.245 S
HETATM   12  O4  UNL     1       5.651  27.551  60.186  1.00  0.00    -0.206 OA
HETATM   13  O5  UNL     1       7.756  28.247  59.219  1.00  0.00    -0.206 OA
BRANCH  11  14
HETATM   14  N2  UNL     1       5.556  28.642  57.818  1.00  0.00    -0.187 NA
HETATM   15  C10 UNL     1       4.783  29.826  57.619  1.00  0.00     0.124 C
HETATM   16  C11 UNL     1       3.998  29.782  56.321  1.00  0.00     0.101 C
HETATM   17  C13 UNL     1       4.516  28.650  55.490  1.00  0.00     0.019 C
HETATM   18  C14 UNL     1       6.000  28.543  55.410  1.00  0.00     0.038 C
HETATM   19  C15 UNL     1       6.574  28.552  56.809  1.00  0.00     0.170 C
HETATM   20 CL1  UNL     1       7.763  29.843  56.968  1.00  0.00    -0.107 Cl
BRANCH  16  21
HETATM   21  C12 UNL     1       3.985  31.084  55.629  1.00  0.00     0.178 C
HETATM   22  O6  UNL     1       3.326  31.203  54.579  1.00  0.00    -0.648 OA
HETATM   23  O7  UNL     1       4.674  32.163  56.104  1.00  0.00    -0.648 OA
ENDBRANCH  16  21
ENDBRANCH  11  14
ENDBRANCH   7  11
BRANCH   1  24
HETATM   24  C5  UNL     1       6.379  35.133  61.881  1.00  0.00     0.208 C
BRANCH  24  25
HETATM   25  C4  UNL     1       7.549  35.543  62.599  1.00  0.00     0.244 C
BRANCH  25  26
HETATM   26  C3  UNL     1       8.895  35.714  62.078  1.00  0.00     0.299 C
HETATM   27  F1  UNL     1       9.580  36.849  62.396  1.00  0.00    -0.200 F
HETATM   28  F2  UNL     1       9.699  34.695  62.652  1.00  0.00    -0.200 F
BRANCH  26  29
HETATM   29  C2  UNL     1       9.051  35.448  60.599  1.00  0.00     0.080 C
HETATM   30  C1  UNL     1      10.050  34.328  60.395  1.00  0.00     0.011 C
ENDBRANCH  26  29
ENDBRANCH  25  26
BRANCH  25  31
HETATM   31  O1  UNL     1       7.697  34.683  63.734  1.00  0.00    -0.360 OA
ATOM     32  H1  UNL     1       6.811  34.456  63.988  1.00  0.00     0.213 HD
ENDBRANCH  25  31
BRANCH  25  33
HETATM   33  O2  UNL     1       7.275  36.768  63.331  1.00  0.00    -0.360 OA
ATOM     34  H2  UNL     1       7.766  36.685  64.139  1.00  0.00     0.213 HD
ENDBRANCH  25  33
ENDBRANCH  24  25
ENDBRANCH   1  24
TORSDOF 9
ENDMDL