MODEL 1
REMARK VINA RESULT: -8.162744669      0.000      0.000
REMARK  7 active torsions:
REMARK  status: ('A' for Active; 'I' for Inactive)
REMARK    1  A    between atoms: C2_2  and  N1_3
REMARK    2  A    between atoms: N2_6  and  C5_7
REMARK    3  A    between atoms: C7_11  and  N4_12
REMARK    4  A    between atoms: N6_17  and  C9_18
REMARK    5  A    between atoms: C12_21  and  O1_22
REMARK    6  A    between atoms: C12_21  and  C13_24
REMARK    7  A    between atoms: C18_32  and  C19_33
ROOT
HETATM    1  C9  UNL     1       7.078  31.018  57.729  1.00  0.00     0.125 C
HETATM    2  C10 UNL     1       5.714  31.608  57.713  1.00  0.00     0.032 C
HETATM    3  C11 UNL     1       5.284  32.294  58.961  1.00  0.00     0.046 C
HETATM    4  C12 UNL     1       6.372  32.830  59.825  1.00  0.00     0.118 C
HETATM    5  C14 UNL     1       7.622  32.018  59.868  1.00  0.00     0.065 C
HETATM    6  C15 UNL     1       7.505  30.704  59.144  1.00  0.00     0.120 C
HETATM    7  C16 UNL     1       6.599  29.773  59.777  1.00  0.00     0.066 C
HETATM    8  N7  UNL     1       5.882  29.023  60.281  1.00  0.00    -0.197 NA
ENDROOT
BRANCH   1   9
HETATM    9  N6  UNL     1       7.102  29.823  56.909  1.00  0.00    -0.295 N
HETATM   10  N5  UNL     1       6.064  29.300  56.269  1.00  0.00    -0.282 N
HETATM   11  C8  UNL     1       6.436  28.197  55.606  1.00  0.00     0.138 A
ATOM     12  H5  UNL     1       5.119  29.682  56.280  1.00  0.00     0.189 HD
HETATM   13  N4  UNL     1       5.741  27.409  54.871  1.00  0.00    -0.327 N
HETATM   14  C18 UNL     1       7.797  28.011  55.841  1.00  0.00     0.091 A
ATOM     15  H4  UNL     1       6.209  26.610  54.444  1.00  0.00     0.169 HD
HETATM   16  C17 UNL     1       8.172  29.053  56.663  1.00  0.00     0.131 A
BRANCH  13  17
HETATM   17  C7  UNL     1       4.374  27.586  54.624  1.00  0.00     0.108 A
HETATM   18  N3  UNL     1       3.565  26.517  54.710  1.00  0.00    -0.350 N
HETATM   19  C6  UNL     1       2.232  26.584  54.487  1.00  0.00     0.120 A
ATOM     20  H3  UNL     1       3.974  25.615  54.953  1.00  0.00     0.166 HD
HETATM   21  C5  UNL     1       1.648  27.792  54.156  1.00  0.00     0.068 A
HETATM   22  C21 UNL     1       2.468  28.890  54.065  1.00  0.00     0.065 A
HETATM   23  C20 UNL     1       3.836  28.798  54.297  1.00  0.00     0.074 A
HETATM   24 CL1  UNL     1       1.846  30.459  53.650  1.00  0.00    -0.082 Cl
BRANCH  21  25
HETATM   25  N2  UNL     1       0.261  27.936  53.912  1.00  0.00    -0.375 N
HETATM   26  C4  UNL     1      -0.660  28.206  55.007  1.00  0.00     0.153 C
HETATM   27  C3  UNL     1      -2.000  27.556  54.626  1.00  0.00     0.292 C
HETATM   28  N1  UNL     1      -1.688  26.402  53.815  1.00  0.00     0.091 N
HETATM   29  C23 UNL     1      -1.396  26.843  52.465  1.00  0.00     0.292 C
HETATM   30  C22 UNL     1      -0.235  27.811  52.543  1.00  0.00     0.153 C
BRANCH  28  31
HETATM   31  C2  UNL     1      -2.749  25.415  53.840  1.00  0.00     0.268 C
HETATM   32  C1  UNL     1      -2.723  24.534  52.610  1.00  0.00     0.037 C
ENDBRANCH  28  31
ENDBRANCH  21  25
ENDBRANCH  13  17
BRANCH  14  33
HETATM   33  C19 UNL     1       8.607  26.930  55.309  1.00  0.00     0.270 C
HETATM   34  N8  UNL     1       9.090  26.967  53.984  1.00  0.00    -0.057 NA
HETATM   35  O2  UNL     1       8.872  25.957  56.048  1.00  0.00    -0.271 OA
ENDBRANCH  14  33
ENDBRANCH   1   9
BRANCH   4  36
HETATM   36  O1  UNL     1       5.880  32.870  61.152  1.00  0.00    -0.384 OA
ATOM     37  H1  UNL     1       6.626  32.990  61.730  1.00  0.00     0.210 HD
ENDBRANCH   4  36
BRANCH   4  38
HETATM   38  C13 UNL     1       6.665  34.294  59.482  1.00  0.00     0.387 C
HETATM   39  F1  UNL     1       6.830  35.036  60.634  1.00  0.00    -0.211 F
HETATM   40  F2  UNL     1       7.838  34.382  58.758  1.00  0.00    -0.211 F
ENDBRANCH   4  38
TORSDOF 7
ENDMDL