MODEL 4
REMARK VINA RESULT: -7.992076018      0.408      1.218
REMARK  10 active torsions:
REMARK  status: ('A' for Active; 'I' for Inactive)
REMARK    1  A    between atoms: C2_2  and  O1_4
REMARK    2  A    between atoms: O1_4  and  C4_5
REMARK    3  A    between atoms: N1_9  and  C7_11
REMARK    4  A    between atoms: C7_11  and  C8_12
REMARK    5  A    between atoms: C10_18  and  C11_19
REMARK    6  A    between atoms: C11_19  and  O3_20
REMARK    7  A    between atoms: C11_19  and  C12_22
REMARK    8  A    between atoms: C13_24  and  C14_25
REMARK    9  A    between atoms: C17_28  and  O5_29
REMARK   10  A    between atoms: C23_37  and  O7_38
ROOT
HETATM    1  C4  UNL     1       3.734  30.387  56.198  1.00  0.00     0.177 C
HETATM    2  C5  UNL     1       4.804  29.573  55.506  1.00  0.00     0.161 C
HETATM    3 CL1  UNL     1       4.128  28.204  54.620  1.00  0.00    -0.116 Cl
HETATM    4  C6  UNL     1       5.823  29.046  56.452  1.00  0.00     0.035 C
HETATM    5  N1  UNL     1       6.922  28.938  55.824  1.00  0.00    -0.384 N
ATOM      6  H1  UNL     1       6.891  29.219  54.844  1.00  0.00     0.159 HD
HETATM    7  C9  UNL     1       5.939  28.618  57.872  1.00  0.00     0.197 C
HETATM    8  O2  UNL     1       6.595  29.531  58.664  1.00  0.00    -0.367 OA
HETATM    9  C10 UNL     1       5.848  30.603  59.072  1.00  0.00     0.185 C
HETATM   10  C20 UNL     1       4.429  30.618  58.603  1.00  0.00     0.185 C
HETATM   11  O6  UNL     1       3.787  29.408  58.655  1.00  0.00    -0.373 OA
HETATM   12  C21 UNL     1       4.537  28.314  58.352  1.00  0.00     0.152 C
HETATM   13  C22 UNL     1       4.625  27.314  59.498  1.00  0.00     0.042 C
HETATM   14  C23 UNL     1       4.380  31.284  57.262  1.00  0.00     0.180 C
ENDROOT
BRANCH   9  15
HETATM   15  C11 UNL     1       5.881  30.810  60.575  1.00  0.00     0.181 C
BRANCH  15  16
HETATM   16  O3  UNL     1       4.595  30.792  61.076  1.00  0.00    -0.390 OA
ATOM     17  H3  UNL     1       3.971  30.766  60.360  1.00  0.00     0.210 HD
ENDBRANCH  15  16
BRANCH  15  18
HETATM   18  C12 UNL     1       6.506  32.182  60.857  1.00  0.00     0.187 A
HETATM   19  O4  UNL     1       6.594  32.893  59.559  1.00  0.00    -0.368 OA
HETATM   20  C13 UNL     1       7.775  32.482  60.401  1.00  0.00     0.186 A
BRANCH  20  21
HETATM   21  C14 UNL     1       8.484  33.716  60.793  1.00  0.00    -0.027 A
HETATM   22  C15 UNL     1       9.660  34.108  60.164  1.00  0.00     0.012 A
HETATM   23  C16 UNL     1      10.301  35.266  60.551  1.00  0.00     0.037 A
HETATM   24  C17 UNL     1       9.816  36.074  61.562  1.00  0.00     0.065 A
HETATM   25  C18 UNL     1       8.648  35.684  62.190  1.00  0.00     0.037 A
HETATM   26  C19 UNL     1       8.016  34.534  61.801  1.00  0.00     0.012 A
BRANCH  24  27
HETATM   27  O5  UNL     1      10.475  37.247  61.948  1.00  0.00    -0.361 OA
ATOM     28  H5  UNL     1       9.998  38.017  62.236  1.00  0.00     0.217 HD
ENDBRANCH  24  27
ENDBRANCH  20  21
ENDBRANCH  15  18
ENDBRANCH   9  15
BRANCH  14  29
HETATM   29  O7  UNL     1       3.741  32.523  57.290  1.00  0.00    -0.390 OA
ATOM     30  H7  UNL     1       2.920  32.475  56.814  1.00  0.00     0.210 HD
ENDBRANCH  14  29
BRANCH   1  31
HETATM   31  O1  UNL     1       3.210  31.250  55.259  1.00  0.00    -0.377 OA
BRANCH  31  32
HETATM   32  C2  UNL     1       1.857  31.128  55.057  1.00  0.00     0.114 C
HETATM   33  C1  UNL     1       1.467  30.289  53.891  1.00  0.00     0.039 C
HETATM   34  C3  UNL     1       1.138  32.458  54.968  1.00  0.00     0.039 C
ENDBRANCH  31  32
ENDBRANCH   1  31
BRANCH   5  35
HETATM   35  C7  UNL     1       8.169  28.490  56.278  1.00  0.00     0.236 C
BRANCH  35  36
HETATM   36  C8  UNL     1       8.612  27.337  55.364  1.00  0.00     0.403 C
HETATM   37  F1  UNL     1       7.779  27.230  54.267  1.00  0.00    -0.169 F
HETATM   38  F2  UNL     1       8.596  26.137  56.045  1.00  0.00    -0.169 F
HETATM   39  F3  UNL     1       9.888  27.552  54.897  1.00  0.00    -0.169 F
ENDBRANCH  35  36
ENDBRANCH   5  35
TORSDOF 10
ENDMDL