MODEL 1
REMARK VINA RESULT: -8.351145219      0.000      0.000
REMARK  8 active torsions:
REMARK  status: ('A' for Active; 'I' for Inactive)
REMARK    1  A    between atoms: C2_2  and  O1_3
REMARK    2  A    between atoms: C2_2  and  C3_5
REMARK    3  A    between atoms: C10_15  and  O2_16
REMARK    4  A    between atoms: O2_16  and  S1_17
REMARK    5  A    between atoms: S1_17  and  O5_20
REMARK    6  A    between atoms: O5_20  and  C11_21
REMARK    7  A    between atoms: C19_31  and  O6_32
REMARK    8  A    between atoms: C20_34  and  O7_35
ROOT
HETATM    1  C3  UNL     1       7.658  28.306  56.358  1.00  0.00     0.160 C
HETATM    2  F1  UNL     1       8.341  29.431  56.863  1.00  0.00    -0.238 F
HETATM    3  C4  UNL     1       8.030  28.237  54.917  1.00  0.00     0.053 C
HETATM    4  C5  UNL     1       7.034  27.632  54.001  1.00  0.00     0.073 C
HETATM    5  C6  UNL     1       5.629  27.841  54.446  1.00  0.00     0.406 C
HETATM    6  F2  UNL     1       4.808  28.003  53.383  1.00  0.00    -0.216 F
HETATM    7  N1  UNL     1       5.589  28.959  55.402  1.00  0.00     0.137 N
HETATM    8  C7  UNL     1       4.279  29.467  55.465  1.00  0.00     0.258 C
HETATM    9  C8  UNL     1       3.395  28.761  56.503  1.00  0.00     0.042 C
HETATM   10  C9  UNL     1       3.488  29.559  57.753  1.00  0.00     0.044 C
HETATM   11  C10 UNL     1       4.866  30.233  57.895  1.00  0.00     0.113 C
HETATM   12  C17 UNL     1       5.910  29.169  57.857  1.00  0.00     0.081 C
HETATM   13  C18 UNL     1       6.162  28.463  56.606  1.00  0.00     0.272 C
HETATM   14  C19 UNL     1       5.046  31.324  56.895  1.00  0.00     0.185 C
HETATM   15  C20 UNL     1       4.229  30.982  55.673  1.00  0.00     0.183 C
ENDROOT
BRANCH  11  16
HETATM   16  O2  UNL     1       4.829  30.769  59.160  1.00  0.00    -0.239 OA
BRANCH  16  17
HETATM   17  S1  UNL     1       6.221  31.324  59.811  1.00  0.00     0.407 S
HETATM   18  O3  UNL     1       7.477  30.709  59.326  1.00  0.00    -0.168 OA
HETATM   19  O4  UNL     1       6.136  31.305  61.333  1.00  0.00    -0.168 OA
BRANCH  17  20
HETATM   20  O5  UNL     1       6.314  33.000  59.411  1.00  0.00    -0.211 OA
BRANCH  20  21
HETATM   21  C11 UNL     1       7.155  33.869  60.035  1.00  0.00     0.093 A
HETATM   22  C12 UNL     1       8.466  34.038  59.657  1.00  0.00     0.040 A
HETATM   23  C13 UNL     1       9.300  34.940  60.323  1.00  0.00     0.028 A
HETATM   24  C14 UNL     1       8.806  35.673  61.375  1.00  0.00     0.056 A
HETATM   25 CL1  UNL     1       9.849  36.803  62.210  1.00  0.00    -0.083 Cl
HETATM   26  C15 UNL     1       7.497  35.518  61.768  1.00  0.00     0.058 A
HETATM   27 CL2  UNL     1       6.913  36.477  63.117  1.00  0.00    -0.082 Cl
HETATM   28  C16 UNL     1       6.693  34.619  61.092  1.00  0.00     0.063 A
ENDBRANCH  20  21
ENDBRANCH  17  20
ENDBRANCH  16  17
ENDBRANCH  11  16
BRANCH  14  29
HETATM   29  O6  UNL     1       4.579  32.570  57.346  1.00  0.00    -0.390 OA
ATOM     30  H6  UNL     1       5.196  33.016  57.915  1.00  0.00     0.210 HD
ENDBRANCH  14  29
BRANCH  15  31
HETATM   31  O7  UNL     1       2.938  31.439  55.710  1.00  0.00    -0.391 OA
ATOM     32  H7  UNL     1       2.865  32.227  56.237  1.00  0.00     0.210 HD
ENDBRANCH  15  31
BRANCH   1  33
HETATM   33  C2  UNL     1       8.174  27.169  57.197  1.00  0.00     0.156 C
HETATM   34  C1  UNL     1       9.238  27.506  58.173  1.00  0.00     0.042 C
BRANCH  33  35
HETATM   35  O1  UNL     1       8.670  26.178  56.343  1.00  0.00    -0.393 OA
ATOM     36  H1  UNL     1       8.272  26.302  55.489  1.00  0.00     0.210 HD
ENDBRANCH  33  35
ENDBRANCH   1  33
TORSDOF 8
ENDMDL