MODEL 5
REMARK VINA RESULT: -6.423963201      3.742      9.567
REMARK  9 active torsions:
REMARK  status: ('A' for Active; 'I' for Inactive)
REMARK    1  A    between atoms: C2_3  and  C3_4
REMARK    2  A    between atoms: C8_11  and  O2_12
REMARK    3  A    between atoms: O2_12  and  C9_13
REMARK    4  A    between atoms: C10_16  and  C11_17
REMARK    5  A    between atoms: C11_17  and  O3_18
REMARK    6  A    between atoms: N3_24  and  C12_25
REMARK    7  A    between atoms: N4_28  and  C15_29
REMARK    8  A    between atoms: C16_30  and  O4_31
REMARK    9  A    between atoms: C20_36  and  O5_37
ROOT
HETATM    1  O1  UNL     1       2.872  29.081  57.131  1.00  0.00    -0.266 OA
HETATM    2  C1  UNL     1       3.851  28.654  56.459  1.00  0.00     0.276 A
HETATM    3  C2  UNL     1       5.154  29.004  56.771  1.00  0.00     0.074 A
HETATM    4  C10 UNL     1       6.236  28.547  56.051  1.00  0.00     0.067 A
HETATM    5  N1  UNL     1       5.957  27.733  55.015  1.00  0.00    -0.287 N
ATOM      6  H1  UNL     1       6.730  27.373  54.456  1.00  0.00     0.188 HD
HETATM    7  N2  UNL     1       4.721  27.380  54.691  1.00  0.00    -0.237 N
ATOM      8  H2  UNL     1       4.561  26.761  53.896  1.00  0.00     0.208 HD
HETATM    9  N3  UNL     1       3.677  27.834  55.406  1.00  0.00    -0.237 N
ENDROOT
BRANCH   9  10
HETATM   10  C12 UNL     1       2.353  27.410  54.999  1.00  0.00     0.116 C
HETATM   11  C13 UNL     1       2.017  26.009  55.379  1.00  0.00     0.057 C
HETATM   12  C14 UNL     1       1.153  25.302  54.328  1.00  0.00     0.275 C
HETATM   13  N4  UNL     1       0.155  26.216  53.890  1.00  0.00     0.098 N
HETATM   14  C21 UNL     1       0.769  27.279  53.123  1.00  0.00     0.275 C
HETATM   15  C22 UNL     1       2.161  27.617  53.513  1.00  0.00     0.057 C
BRANCH  13  16
HETATM   16  C15 UNL     1      -0.876  25.646  53.049  1.00  0.00     0.279 C
HETATM   17  C16 UNL     1      -2.106  26.461  53.280  1.00  0.00     0.154 C
HETATM   18  C17 UNL     1      -3.389  25.830  52.807  1.00  0.00     0.034 C
HETATM   19  C18 UNL     1      -3.468  24.376  53.235  1.00  0.00     0.005 C
HETATM   20  C19 UNL     1      -2.313  23.690  52.561  1.00  0.00     0.034 C
HETATM   21  C20 UNL     1      -1.027  24.173  53.152  1.00  0.00     0.154 C
BRANCH  17  22
HETATM   22  O4  UNL     1      -2.196  26.815  54.647  1.00  0.00    -0.393 OA
ATOM     23  H4  UNL     1      -1.495  27.416  54.871  1.00  0.00     0.210 HD
ENDBRANCH  17  22
BRANCH  21  24
HETATM   24  O5  UNL     1      -0.016  23.593  52.343  1.00  0.00    -0.393 OA
ATOM     25  H5  UNL     1      -0.196  23.848  51.446  1.00  0.00     0.210 HD
ENDBRANCH  21  24
ENDBRANCH  13  16
ENDBRANCH   9  10
BRANCH   3  26
HETATM   26  C3  UNL     1       5.418  29.874  57.885  1.00  0.00     0.037 A
HETATM   27  C4  UNL     1       5.665  29.325  59.110  1.00  0.00     0.049 A
HETATM   28 CL1  UNL     1       5.669  27.553  59.366  1.00  0.00    -0.083 Cl
HETATM   29  C5  UNL     1       5.923  30.113  60.214  1.00  0.00     0.048 A
HETATM   30  C6  UNL     1       5.930  31.480  60.061  1.00  0.00     0.038 A
HETATM   31 CL2  UNL     1       6.258  32.480  61.459  1.00  0.00    -0.084 Cl
HETATM   32  C7  UNL     1       5.674  32.032  58.798  1.00  0.00     0.061 A
HETATM   33  C8  UNL     1       5.418  31.238  57.704  1.00  0.00     0.089 A
BRANCH  33  34
HETATM   34  O2  UNL     1       5.162  31.790  56.434  1.00  0.00    -0.289 OA
BRANCH  34  35
HETATM   35  C9  UNL     1       4.000  32.403  56.008  1.00  0.00     0.505 C
HETATM   36  F1  UNL     1       2.951  32.247  56.932  1.00  0.00    -0.184 F
HETATM   37  F2  UNL     1       3.501  31.794  54.841  1.00  0.00    -0.184 F
ENDBRANCH  34  35
ENDBRANCH  33  34
ENDBRANCH   3  26
BRANCH   4  38
HETATM   38  C11 UNL     1       7.653  28.897  56.348  1.00  0.00     0.223 C
BRANCH  38  39
HETATM   39  O3  UNL     1       8.446  28.788  55.201  1.00  0.00    -0.395 OA
ATOM     40  H3  UNL     1       9.327  29.100  55.367  1.00  0.00     0.209 HD
ENDBRANCH  38  39
ENDBRANCH   4  38
TORSDOF 9
ENDMDL