MODEL 4
REMARK VINA RESULT: -9.387258884      1.400      1.458
REMARK  7 active torsions:
REMARK  status: ('A' for Active; 'I' for Inactive)
REMARK    1  A    between atoms: C2_2  and  C4_4
REMARK    2  A    between atoms: N1_6  and  C6_7
REMARK    3  A    between atoms: N4_15  and  C10_16
REMARK    4  A    between atoms: C12_20  and  C13_21
REMARK       I    between atoms: C13_21  and  N6_23
REMARK    5  A    between atoms: N6_23  and  C14_25
REMARK    6  A    between atoms: C14_25  and  C15_26
REMARK    7  A    between atoms: N8_38  and  O3_39
ROOT
HETATM    1  C6  UNL     1       6.254  27.907  54.191  1.00  0.00     0.690 A
HETATM    2  N2  UNL     1       5.450  26.852  53.974  1.00  0.00    -0.201 N
ATOM      3  H2  UNL     1       5.874  25.967  53.698  1.00  0.00     0.183 HD
HETATM    4  C7  UNL     1       4.112  26.908  54.102  1.00  0.00     0.120 A
HETATM    5  C8  UNL     1       3.499  28.108  54.480  1.00  0.00     0.044 A
HETATM    6  C9  UNL     1       4.328  29.177  54.698  1.00  0.00     0.150 A
HETATM    7  N3  UNL     1       5.672  29.063  54.553  1.00  0.00    -0.175 N
ATOM      8  H3  UNL     1       6.259  29.880  54.724  1.00  0.00     0.186 HD
HETATM    9  N4  UNL     1       3.556  30.337  55.066  1.00  0.00    -0.159 N
HETATM   10  C16 UNL     1       2.181  30.020  54.795  1.00  0.00     0.149 C
HETATM   11  C17 UNL     1       1.269  30.514  55.866  1.00  0.00     0.037 C
HETATM   12  C18 UNL     1       2.108  28.524  54.719  1.00  0.00     0.166 C
HETATM   13 CL2  UNL     1       1.436  27.766  56.180  1.00  0.00    -0.094 Cl
HETATM   14 CL3  UNL     1       1.069  28.086  53.318  1.00  0.00    -0.094 Cl
ENDROOT
BRANCH   9  15
HETATM   15  C10 UNL     1       4.094  31.539  55.591  1.00  0.00     0.687 A
HETATM   16  N5  UNL     1       3.567  32.788  55.407  1.00  0.00    -0.199 N
HETATM   17  C11 UNL     1       4.299  33.695  56.032  1.00  0.00     0.142 A
ATOM     18  H5  UNL     1       2.728  32.992  54.864  1.00  0.00     0.183 HD
HETATM   19  C12 UNL     1       5.338  33.046  56.648  1.00  0.00     0.132 A
HETATM   20  N7  UNL     1       5.178  31.735  56.357  1.00  0.00    -0.184 N
ATOM     21  H7  UNL     1       5.799  30.993  56.677  1.00  0.00     0.184 HD
BRANCH  19  22
HETATM   22  C13 UNL     1       6.372  33.678  57.439  1.00  0.00     0.270 C
HETATM   23  O1  UNL     1       7.158  34.472  56.863  1.00  0.00    -0.266 OA
HETATM   24  N6  UNL     1       6.506  33.418  58.826  1.00  0.00    -0.352 N
ATOM     25  H6  UNL     1       5.867  32.774  59.292  1.00  0.00     0.162 HD
BRANCH  24  26
HETATM   26  C14 UNL     1       7.544  34.066  59.569  1.00  0.00     0.176 C
BRANCH  26  27
HETATM   27  C15 UNL     1       8.497  33.040  60.189  1.00  0.00     0.283 C
HETATM   28  F1  UNL     1       9.810  33.460  60.052  1.00  0.00    -0.231 F
HETATM   29 CL1  UNL     1       8.224  31.493  59.367  1.00  0.00    -0.088 Cl
ENDBRANCH  26  27
ENDBRANCH  24  26
ENDBRANCH  19  22
ENDBRANCH   9  15
BRANCH   1  30
HETATM   30  N1  UNL     1       7.678  27.777  54.034  1.00  0.00    -0.129 N
HETATM   31  C5  UNL     1       8.471  28.435  53.016  1.00  0.00     0.181 C
HETATM   32  C4  UNL     1       9.885  28.208  53.426  1.00  0.00     0.142 C
HETATM   33  N8  UNL     1       9.843  27.000  54.182  1.00  0.00    -0.203 N
HETATM   34  C19 UNL     1       8.563  26.990  54.833  1.00  0.00     0.363 C
HETATM   35  O2  UNL     1       8.250  26.405  55.909  1.00  0.00    -0.244 OA
BRANCH  32  36
HETATM   36  C2  UNL     1      10.737  28.116  52.183  1.00  0.00     0.004 C
HETATM   37  C1  UNL     1      10.363  29.107  51.124  1.00  0.00     0.012 C
HETATM   38  C3  UNL     1      12.202  28.194  52.466  1.00  0.00     0.012 C
ENDBRANCH  32  36
BRANCH  33  39
HETATM   39  O3  UNL     1      10.729  25.999  54.345  1.00  0.00    -0.283 OA
ATOM     40  H3  UNL     1      11.676  25.962  54.274  1.00  0.00     0.245 HD
ENDBRANCH  33  39
ENDBRANCH   1  30
TORSDOF 7
ENDMDL