MODEL 3
REMARK VINA RESULT: -7.519295198      5.447      9.308
REMARK  9 active torsions:
REMARK  status: ('A' for Active; 'I' for Inactive)
REMARK    1  A    between atoms: C4_4  and  C5_5
REMARK    2  A    between atoms: C5_5  and  N1_7
REMARK    3  A    between atoms: N1_7  and  C7_9
REMARK    4  A    between atoms: C8_12  and  N3_13
REMARK    5  A    between atoms: C13_19  and  C14_20
REMARK    6  A    between atoms: C17_29  and  C18_30
REMARK    7  A    between atoms: C18_30  and  N5_31
REMARK    8  A    between atoms: C21_34  and  O1_35
REMARK    9  A    between atoms: C22_37  and  O2_38
ROOT
HETATM    1  N1  UNL     1       6.025  30.331  57.170  1.00  0.00    -0.217 N
ATOM      2  H1  UNL     1       5.400  31.131  57.270  1.00  0.00     0.178 HD
ENDROOT
BRANCH   1   3
HETATM    3  C5  UNL     1       7.142  30.199  58.049  1.00  0.00     0.135 C
HETATM    4  C6  UNL     1       6.862  29.091  59.038  1.00  0.00     0.038 C
BRANCH   3   5
HETATM    5  C4  UNL     1       7.299  31.498  58.808  1.00  0.00     0.006 A
HETATM    6  C3  UNL     1       8.471  32.118  59.154  1.00  0.00     0.024 A
HETATM    7  C2  UNL     1       8.382  33.274  59.833  1.00  0.00    -0.046 A
HETATM    8  C1  UNL     1       9.602  34.071  60.282  1.00  0.00     0.049 C
HETATM    9  C17 UNL     1       7.125  33.730  60.120  1.00  0.00     0.017 A
HETATM   10  S1  UNL     1       6.114  32.541  59.439  1.00  0.00    -0.095 SA
BRANCH   9  11
HETATM   11  C18 UNL     1       6.786  35.000  60.856  1.00  0.00     0.319 C
BRANCH  11  12
HETATM   12  N5  UNL     1       6.644  34.726  62.282  1.00  0.00     0.095 N
HETATM   13  C19 UNL     1       5.263  34.352  62.468  1.00  0.00     0.275 C
HETATM   14  C20 UNL     1       4.769  34.396  63.865  1.00  0.00     0.064 C
HETATM   15  C21 UNL     1       5.505  35.309  64.792  1.00  0.00     0.150 C
HETATM   16  C22 UNL     1       6.050  36.440  63.947  1.00  0.00     0.175 C
HETATM   17  C23 UNL     1       7.091  35.850  63.020  1.00  0.00     0.306 C
BRANCH  15  18
HETATM   18  O1  UNL     1       6.568  34.652  65.414  1.00  0.00    -0.393 OA
ATOM     19  H1  UNL     1       6.624  34.881  66.334  1.00  0.00     0.210 HD
ENDBRANCH  15  18
BRANCH  16  20
HETATM   20  O2  UNL     1       5.020  36.971  63.196  1.00  0.00    -0.391 OA
ATOM     21  H2  UNL     1       4.211  36.533  63.435  1.00  0.00     0.210 HD
ENDBRANCH  16  20
ENDBRANCH  11  12
ENDBRANCH   9  11
ENDBRANCH   3   5
ENDBRANCH   1   3
BRANCH   1  22
HETATM   22  C7  UNL     1       5.792  29.454  56.253  1.00  0.00     0.680 A
HETATM   23  N2  UNL     1       4.552  29.035  55.942  1.00  0.00    -0.174 N
HETATM   24  C8  UNL     1       4.305  28.114  54.979  1.00  0.00     0.160 A
ATOM     25  H2  UNL     1       3.763  29.429  56.453  1.00  0.00     0.186 HD
HETATM   26  C15 UNL     1       5.376  27.587  54.293  1.00  0.00     0.176 A
HETATM   27  F3  UNL     1       5.129  26.669  53.335  1.00  0.00    -0.201 F
HETATM   28  C16 UNL     1       6.658  27.996  54.591  1.00  0.00     0.152 A
HETATM   29  N4  UNL     1       6.833  28.918  55.561  1.00  0.00    -0.199 N
ATOM     30  H4  UNL     1       7.781  29.223  55.784  1.00  0.00     0.183 HD
BRANCH  24  31
HETATM   31  N3  UNL     1       3.010  27.685  54.662  1.00  0.00    -0.352 N
HETATM   32  C9  UNL     1       2.250  28.170  53.506  1.00  0.00     0.131 C
HETATM   33  C10 UNL     1       0.799  28.133  53.918  1.00  0.00     0.020 C
HETATM   34  C11 UNL     1      -0.128  27.866  52.755  1.00  0.00     0.013 C
HETATM   35  C12 UNL     1       0.731  27.092  54.985  1.00  0.00     0.115 C
HETATM   36 CL1  UNL     1      -0.150  27.712  56.408  1.00  0.00    -0.122 Cl
HETATM   37  C13 UNL     1       2.167  26.734  55.338  1.00  0.00     0.169 C
BRANCH  37  38
HETATM   38  C14 UNL     1       2.385  25.309  54.841  1.00  0.00     0.377 C
HETATM   39  F1  UNL     1       1.319  24.886  54.073  1.00  0.00    -0.212 F
HETATM   40  F2  UNL     1       2.400  24.497  55.968  1.00  0.00    -0.212 F
ENDBRANCH  37  38
ENDBRANCH  24  31
ENDBRANCH   1  22
TORSDOF 9
ENDMDL