MODEL 2
REMARK VINA RESULT: -8.431475331      1.516      2.299
REMARK  8 active torsions:
REMARK  status: ('A' for Active; 'I' for Inactive)
REMARK    1  A    between atoms: N2_8  and  C7_9
REMARK    2  A    between atoms: C8_12  and  N4_13
REMARK    3  A    between atoms: C9_16  and  C10_17
REMARK    4  A    between atoms: C11_20  and  C12_21
REMARK    5  A    between atoms: C15_26  and  C16_27
REMARK    6  A    between atoms: C18_29  and  O1_30
REMARK    7  A    between atoms: O1_30  and  C19_31
REMARK    8  A    between atoms: C23_41  and  C24_42
ROOT
HETATM    1  C7  UNL     1       3.036  28.983  55.558  1.00  0.00     0.134 A
HETATM    2  N3  UNL     1       2.815  29.629  56.717  1.00  0.00    -0.325 N
ATOM      3  H3  UNL     1       1.883  29.587  57.131  1.00  0.00     0.169 HD
HETATM    4  C8  UNL     1       3.768  30.326  57.351  1.00  0.00     0.130 A
HETATM    5  C9  UNL     1       5.034  30.414  56.835  1.00  0.00     0.106 A
HETATM    6  N8  UNL     1       5.274  29.769  55.670  1.00  0.00    -0.347 N
ATOM      7  H8  UNL     1       6.206  29.813  55.260  1.00  0.00     0.166 HD
HETATM    8  C23 UNL     1       4.306  29.065  55.033  1.00  0.00     0.119 A
ENDROOT
BRANCH   5   9
HETATM    9  C10 UNL     1       6.092  31.174  57.518  1.00  0.00     0.092 A
HETATM   10  N5  UNL     1       6.036  32.497  57.745  1.00  0.00    -0.342 N
HETATM   11  C11 UNL     1       7.138  32.905  58.383  1.00  0.00     0.086 A
ATOM     12  H5  UNL     1       5.262  33.103  57.471  1.00  0.00     0.167 HD
HETATM   13  N6  UNL     1       7.901  31.797  58.554  1.00  0.00    -0.343 N
HETATM   14  C15 UNL     1       7.281  30.741  58.036  1.00  0.00     0.074 A
ATOM     15  H6  UNL     1       8.813  31.777  59.010  1.00  0.00     0.167 HD
BRANCH  11  16
HETATM   16  C12 UNL     1       7.459  34.279  58.812  1.00  0.00     0.053 A
HETATM   17  C13 UNL     1       7.214  34.632  60.244  1.00  0.00     0.013 A
HETATM   18  C14 UNL     1       8.619  34.495  59.744  1.00  0.00     0.013 A
ENDBRANCH  11  16
BRANCH  14  19
HETATM   19  C16 UNL     1       7.716  29.349  57.987  1.00  0.00     0.011 A
HETATM   20  C17 UNL     1       7.646  28.588  59.149  1.00  0.00     0.058 A
HETATM   21  C18 UNL     1       8.056  27.285  59.090  1.00  0.00     0.143 A
HETATM   22  C20 UNL     1       8.515  26.802  57.878  1.00  0.00     0.280 A
HETATM   23  O2  UNL     1       8.895  25.586  57.836  1.00  0.00    -0.265 OA
HETATM   24  N7  UNL     1       8.571  27.566  56.770  1.00  0.00    -0.326 N
HETATM   25  C21 UNL     1       9.059  27.038  55.505  1.00  0.00     0.159 C
HETATM   26  C22 UNL     1       8.171  28.858  56.804  1.00  0.00     0.107 A
BRANCH  21  27
HETATM   27  O1  UNL     1       8.022  26.470  60.171  1.00  0.00    -0.284 OA
BRANCH  27  28
HETATM   28  C19 UNL     1       6.962  25.682  60.598  1.00  0.00     0.505 C
HETATM   29  F1  UNL     1       7.338  24.340  60.447  1.00  0.00    -0.184 F
HETATM   30  F2  UNL     1       5.860  25.885  59.774  1.00  0.00    -0.184 F
ENDBRANCH  27  28
ENDBRANCH  21  27
ENDBRANCH  14  19
ENDBRANCH   5   9
BRANCH   4  31
HETATM   31  N4  UNL     1       3.492  30.918  58.450  1.00  0.00    -0.384 N
ATOM     32  H42 UNL     1       2.754  30.549  59.049  1.00  0.00     0.157 HD
ATOM     33  H41 UNL     1       4.013  31.754  58.717  1.00  0.00     0.157 HD
ENDBRANCH   4  31
BRANCH   8  34
HETATM   34  C24 UNL     1       4.633  28.391  53.773  1.00  0.00     0.406 C
HETATM   35  F3  UNL     1       5.911  28.793  53.372  1.00  0.00    -0.207 F
HETATM   36  F4  UNL     1       4.746  27.015  54.004  1.00  0.00    -0.207 F
ENDBRANCH   8  34
BRANCH   1  37
HETATM   37  N2  UNL     1       2.057  28.241  54.864  1.00  0.00    -0.358 N
HETATM   38  C2  UNL     1       1.341  28.680  53.686  1.00  0.00     0.110 C
HETATM   39  C1  UNL     1       0.409  29.835  53.970  1.00  0.00     0.034 C
HETATM   40  C3  UNL     1       0.612  27.485  53.110  1.00  0.00     0.296 C
HETATM   41  N1  UNL     1      -0.274  26.858  54.036  1.00  0.00     0.087 N
HETATM   42  C4  UNL     1      -0.679  25.547  53.621  1.00  0.00     0.310 C
HETATM   43  C5  UNL     1       0.231  26.764  55.385  1.00  0.00     0.291 C
HETATM   44  C6  UNL     1       1.721  26.918  55.352  1.00  0.00     0.155 C
ENDBRANCH   1  37
TORSDOF 8
ENDMDL