MODEL 2
REMARK VINA RESULT: -6.939601737      5.325      9.137
REMARK  8 active torsions:
REMARK  status: ('A' for Active; 'I' for Inactive)
REMARK    1  A    between atoms: O1_2  and  C2_3
REMARK    2  A    between atoms: C2_3  and  C3_5
REMARK    3  A    between atoms: C3_5  and  O3_6
REMARK    4  A    between atoms: C3_5  and  C5_8
REMARK    5  A    between atoms: C5_8  and  N2_12
REMARK    6  A    between atoms: N2_12  and  N3_14
REMARK    7  A    between atoms: N3_14  and  C6_16
REMARK    8  A    between atoms: C7_19  and  N5_20
ROOT
HETATM    1  C6  UNL     1      37.078  -2.747  14.936  1.00  0.00     0.696 A
HETATM    2  N4  UNL     1      37.384  -1.613  14.463  1.00  0.00    -0.198 N
ATOM      3  H4  UNL     1      37.975  -1.032  15.057  1.00  0.00     0.180 HD
HETATM    4  C7  UNL     1      37.013  -1.038  13.214  1.00  0.00     0.258 A
HETATM    5  C11 UNL     1      36.141  -1.913  12.422  1.00  0.00     0.123 A
HETATM    6  N8  UNL     1      35.543  -1.784  11.205  1.00  0.00    -0.238 N
ATOM      7  H8  UNL     1      35.610  -0.973  10.590  1.00  0.00     0.196 HD
HETATM    8  O4  UNL     1      34.878  -2.865  10.963  1.00  0.00    -0.155 OA
HETATM    9  N9  UNL     1      34.987  -3.712  11.933  1.00  0.00    -0.223 N
ATOM     10  H9  UNL     1      34.557  -4.635  11.980  1.00  0.00     0.198 HD
HETATM   11  C12 UNL     1      35.778  -3.147  12.875  1.00  0.00     0.171 A
HETATM   12  N10 UNL     1      36.242  -3.590  14.147  1.00  0.00    -0.172 N
ATOM     13  H10 UNL     1      35.976  -4.512  14.494  1.00  0.00     0.186 HD
ENDROOT
BRANCH   1  14
HETATM   14  N3  UNL     1      37.517  -3.208  16.209  1.00  0.00    -0.131 N
ATOM     15  H3  UNL     1      37.844  -4.168  16.321  1.00  0.00     0.205 HD
BRANCH  14  16
HETATM   16  N2  UNL     1      37.499  -2.354  17.289  1.00  0.00    -0.272 N
ATOM     17  H2  UNL     1      36.589  -2.057  17.640  1.00  0.00     0.189 HD
BRANCH  16  18
HETATM   18  C5  UNL     1      38.643  -1.858  17.945  1.00  0.00     0.129 C
HETATM   19  N1  UNL     1      38.568  -1.512  19.169  1.00  0.00    -0.385 N
ATOM     20  H12 UNL     1      39.397  -1.153  19.644  1.00  0.00     0.157 HD
ATOM     21  H11 UNL     1      37.684  -1.594  19.672  1.00  0.00     0.157 HD
BRANCH  18  22
HETATM   22  C3  UNL     1      39.916  -1.740  17.221  1.00  0.00     0.288 C
BRANCH  22  23
HETATM   23  C2  UNL     1      39.962  -0.343  16.659  1.00  0.00     0.295 C
HETATM   24  O2  UNL     1      40.093   0.667  17.382  1.00  0.00    -0.262 OA
BRANCH  23  25
HETATM   25  O1  UNL     1      39.858  -0.143  15.289  1.00  0.00    -0.324 OA
HETATM   26  C1  UNL     1      40.856  -0.628  14.432  1.00  0.00     0.213 C
ENDBRANCH  23  25
ENDBRANCH  22  23
BRANCH  22  27
HETATM   27  O3  UNL     1      41.028  -1.895  17.999  1.00  0.00    -0.373 OA
HETATM   28  C4  UNL     1      42.029  -2.655  17.405  1.00  0.00     0.203 C
ENDBRANCH  22  27
ENDBRANCH  18  22
ENDBRANCH  16  18
ENDBRANCH  14  16
ENDBRANCH   1  14
BRANCH   4  29
HETATM   29  N5  UNL     1      36.516   0.289  13.370  1.00  0.00    -0.335 N
HETATM   30  C8  UNL     1      37.119   1.399  13.235  1.00  0.00     0.173 C
HETATM   31  N6  UNL     1      36.588   2.714  13.401  1.00  0.00    -0.361 N
HETATM   32  N7  UNL     1      38.480   1.570  12.884  1.00  0.00    -0.361 N
HETATM   33  C9  UNL     1      37.696   3.562  13.773  1.00  0.00     0.142 C
ATOM     34  H6  UNL     1      35.616   2.999  13.279  1.00  0.00     0.162 HD
HETATM   35  C10 UNL     1      38.954   2.813  13.481  1.00  0.00     0.142 C
ATOM     36  H7  UNL     1      39.035   0.933  12.312  1.00  0.00     0.162 HD
ATOM     37  H5  UNL     1      35.531   0.358  13.628  1.00  0.00     0.165 HD
ENDBRANCH   4  29
TORSDOF 8
ENDMDL