MODEL 3
REMARK VINA RESULT: -5.430583045      3.656      4.662
REMARK  12 active torsions:
REMARK  status: ('A' for Active; 'I' for Inactive)
REMARK    1  A    between atoms: C2_2  and  C4_7
REMARK    2  A    between atoms: C4_7  and  O2_9
REMARK    3  A    between atoms: O2_9  and  C5_10
REMARK    4  A    between atoms: C5_10  and  O3_11
REMARK    5  A    between atoms: C5_10  and  C6_13
REMARK    6  A    between atoms: C6_13  and  N3_14
REMARK    7  A    between atoms: C6_13  and  C7_18
REMARK    8  A    between atoms: C7_18  and  O4_19
REMARK    9  A    between atoms: C7_18  and  C8_21
REMARK   10  A    between atoms: C11_26  and  N5_27
REMARK   11  A    between atoms: N5_27  and  N6_29
REMARK   12  A    between atoms: C14_35  and  N8_36
ROOT
HETATM    1  C1  UNL     1      36.974   7.438  14.614  1.00  0.00     0.075 C
HETATM    2  C2  UNL     1      36.970   6.011  14.196  1.00  0.00     0.090 C
HETATM    3  N1  UNL     1      35.899   5.366  14.333  1.00  0.00    -0.292 N
ATOM      4  H1  UNL     1      35.090   5.850  14.722  1.00  0.00     0.178 HD
HETATM    5  C3  UNL     1      35.763   4.035  13.983  1.00  0.00     0.182 C
HETATM    6  N2  UNL     1      35.622   2.901  13.693  1.00  0.00    -0.172 NA
ENDROOT
BRANCH   2   7
HETATM    7  C4  UNL     1      38.168   5.428  13.661  1.00  0.00     0.308 C
HETATM    8  O1  UNL     1      38.507   5.583  12.481  1.00  0.00    -0.258 OA
BRANCH   7   9
HETATM    9  O2  UNL     1      38.979   4.660  14.497  1.00  0.00    -0.283 OA
BRANCH   9  10
HETATM   10  C5  UNL     1      40.094   3.919  13.998  1.00  0.00     0.300 C
BRANCH  10  11
HETATM   11  O3  UNL     1      41.204   4.349  14.676  1.00  0.00    -0.368 OA
ATOM     12  H3  UNL     1      41.519   5.129  14.235  1.00  0.00     0.212 HD
ENDBRANCH  10  11
BRANCH  10  13
HETATM   13  C6  UNL     1      39.783   2.457  14.219  1.00  0.00     0.271 C
BRANCH  13  14
HETATM   14  N3  UNL     1      40.931   1.865  14.851  1.00  0.00    -0.068 N
ATOM     15  H33 UNL     1      40.941   1.997  15.862  1.00  0.00     0.275 HD
ATOM     16  H32 UNL     1      40.904   0.846  14.850  1.00  0.00     0.275 HD
ATOM     17  H31 UNL     1      41.760   2.243  14.392  1.00  0.00     0.275 HD
ENDBRANCH  13  14
BRANCH  13  18
HETATM   18  C7  UNL     1      39.305   1.779  12.976  1.00  0.00     0.186 C
BRANCH  18  19
HETATM   19  O4  UNL     1      38.383   2.567  12.282  1.00  0.00    -0.389 OA
ATOM     20  H4  UNL     1      37.709   2.907  12.858  1.00  0.00     0.210 HD
ENDBRANCH  18  19
BRANCH  18  21
HETATM   21  C8  UNL     1      38.863   0.388  13.115  1.00  0.00     0.005 C
HETATM   22  C9  UNL     1      39.337  -0.611  12.383  1.00  0.00     0.013 C
HETATM   23  C10 UNL     1      40.352  -0.375  11.329  1.00  0.00     0.068 C
HETATM   24  N4  UNL     1      39.036  -1.971  12.764  1.00  0.00    -0.347 N
HETATM   25  C11 UNL     1      38.353  -2.290  13.787  1.00  0.00     0.116 C
ATOM     26  H4  UNL     1      39.395  -2.723  12.175  1.00  0.00     0.167 HD
HETATM   27  C12 UNL     1      37.953  -1.227  14.734  1.00  0.00     0.196 C
HETATM   28  C13 UNL     1      39.105  -1.042  15.647  1.00  0.00     0.074 C
HETATM   29  C14 UNL     1      37.701   0.034  13.976  1.00  0.00     0.241 C
HETATM   30  N7  UNL     1      39.997  -0.909  16.371  1.00  0.00    -0.196 NA
BRANCH  25  31
HETATM   31  N5  UNL     1      38.105  -3.659  14.058  1.00  0.00    -0.294 N
ATOM     32  H5  UNL     1      38.739  -4.387  13.728  1.00  0.00     0.187 HD
BRANCH  31  33
HETATM   33  N6  UNL     1      36.963  -3.974  14.793  1.00  0.00    -0.344 N
ATOM     34  H62 UNL     1      36.201  -3.301  14.873  1.00  0.00     0.176 HD
ATOM     35  H61 UNL     1      36.926  -4.891  15.238  1.00  0.00     0.176 HD
ENDBRANCH  31  33
ENDBRANCH  25  31
BRANCH  29  36
HETATM   36  N8  UNL     1      36.611  -0.265  13.035  1.00  0.00    -0.069 N
ATOM     37  H83 UNL     1      36.526   0.407  12.273  1.00  0.00     0.275 HD
ATOM     38  H82 UNL     1      36.781  -1.084  12.451  1.00  0.00     0.275 HD
ATOM     39  H81 UNL     1      35.776  -0.338  13.617  1.00  0.00     0.275 HD
ENDBRANCH  29  36
ENDBRANCH  18  21
ENDBRANCH  13  18
ENDBRANCH  10  13
ENDBRANCH   9  10
ENDBRANCH   7   9
ENDBRANCH   2   7
TORSDOF 12
ENDMDL