MODEL 2
REMARK VINA RESULT: -6.771259104      1.053      1.136
REMARK  9 active torsions:
REMARK  status: ('A' for Active; 'I' for Inactive)
REMARK    1  A    between atoms: C2_2  and  C3_3
REMARK    2  A    between atoms: C2_2  and  C11_31
REMARK       I    between atoms: C3_3  and  N1_5
REMARK    3  A    between atoms: C4_6  and  O2_7
REMARK    4  A    between atoms: C5_9  and  N2_10
REMARK    5  A    between atoms: N2_10  and  N3_12
REMARK    6  A    between atoms: N3_12  and  C6_14
REMARK    7  A    between atoms: C7_17  and  N5_18
REMARK    8  A    between atoms: C11_31  and  N9_32
REMARK    9  A    between atoms: C11_31  and  O5_36
ROOT
HETATM    1  C3  UNL     1      36.221   4.804  13.658  1.00  0.00     0.242 C
HETATM    2  O1  UNL     1      35.019   4.449  13.964  1.00  0.00    -0.272 OA
HETATM    3  N1  UNL     1      37.125   3.746  13.380  1.00  0.00    -0.209 N
HETATM    4  C4  UNL     1      36.692   2.456  13.504  1.00  0.00     0.188 A
HETATM    5  C5  UNL     1      37.514   1.389  13.233  1.00  0.00     0.169 A
HETATM    6  C8  UNL     1      38.817   1.574  12.822  1.00  0.00     0.283 A
HETATM    7  O3  UNL     1      39.590   0.616  12.567  1.00  0.00    -0.265 OA
HETATM    8  N8  UNL     1      39.222   2.847  12.707  1.00  0.00    -0.268 N
HETATM    9  C9  UNL     1      40.597   3.101  12.275  1.00  0.00     0.164 C
HETATM   10  C10 UNL     1      38.393   3.888  12.980  1.00  0.00     0.340 A
HETATM   11  O4  UNL     1      38.876   5.029  12.836  1.00  0.00    -0.246 OA
ENDROOT
BRANCH   5  12
HETATM   12  N2  UNL     1      37.073   0.042  13.358  1.00  0.00    -0.278 N
ATOM     13  H2  UNL     1      37.613  -0.621  13.915  1.00  0.00     0.188 HD
BRANCH  12  14
HETATM   14  N3  UNL     1      35.991  -0.344  12.769  1.00  0.00    -0.130 N
ATOM     15  H3  UNL     1      35.255   0.329  12.554  1.00  0.00     0.205 HD
BRANCH  14  16
HETATM   16  C6  UNL     1      35.833  -1.733  12.418  1.00  0.00     0.726 A
HETATM   17  N4  UNL     1      35.893  -2.274  11.194  1.00  0.00    -0.019 N
HETATM   18  C7  UNL     1      35.693  -3.595  11.285  1.00  0.00     0.705 A
ATOM     19  H4  UNL     1      36.065  -1.761  10.329  1.00  0.00     0.203 HD
HETATM   20  N6  UNL     1      35.505  -3.873  12.586  1.00  0.00    -0.117 N
HETATM   21  N7  UNL     1      35.591  -2.745  13.268  1.00  0.00    -0.116 N
ATOM     22  H6  UNL     1      35.327  -4.797  12.980  1.00  0.00     0.206 HD
ATOM     23  H7  UNL     1      35.489  -2.656  14.279  1.00  0.00     0.206 HD
BRANCH  18  24
HETATM   24  N5  UNL     1      35.678  -4.473  10.309  1.00  0.00    -0.233 N
ATOM     25  H52 UNL     1      36.101  -4.344   9.390  1.00  0.00     0.174 HD
ATOM     26  H51 UNL     1      35.254  -5.401  10.311  1.00  0.00     0.174 HD
ENDBRANCH  18  24
ENDBRANCH  14  16
ENDBRANCH  12  14
ENDBRANCH   5  12
BRANCH   4  27
HETATM   27  O2  UNL     1      35.387   2.218  13.914  1.00  0.00    -0.344 OA
ATOM     28  H2  UNL     1      35.032   1.340  13.838  1.00  0.00     0.219 HD
ENDBRANCH   4  27
BRANCH   1  29
HETATM   29  C2  UNL     1      36.465   6.235  13.649  1.00  0.00     0.131 C
HETATM   30  C1  UNL     1      35.120   6.934  13.317  1.00  0.00     0.024 C
BRANCH  29  31
HETATM   31  C11 UNL     1      36.944   6.801  14.976  1.00  0.00     0.328 C
BRANCH  31  32
HETATM   32  N9  UNL     1      38.383   7.032  14.941  1.00  0.00    -0.052 N
ATOM     33  H93 UNL     1      38.873   6.482  15.646  1.00  0.00     0.277 HD
ATOM     34  H92 UNL     1      38.812   6.628  14.109  1.00  0.00     0.277 HD
ATOM     35  H91 UNL     1      38.586   8.028  15.028  1.00  0.00     0.277 HD
ENDBRANCH  31  32
BRANCH  31  36
HETATM   36  O5  UNL     1      36.601   5.902  15.966  1.00  0.00    -0.369 OA
ATOM     37  H5  UNL     1      35.748   5.545  15.752  1.00  0.00     0.212 HD
ENDBRANCH  31  36
ENDBRANCH  29  31
ENDBRANCH   1  29
TORSDOF 9
ENDMDL