MODEL 3
REMARK VINA RESULT: -6.789191240      4.794      7.412
REMARK  6 active torsions:
REMARK  status: ('A' for Active; 'I' for Inactive)
REMARK    1  A    between atoms: C3_5  and  N2_6
REMARK    2  A    between atoms: N6_17  and  C6_18
REMARK    3  A    between atoms: C6_18  and  S1_19
REMARK    4  A    between atoms: S1_19  and  C7_20
REMARK    5  A    between atoms: C8_23  and  N8_24
REMARK    6  A    between atoms: N9_27  and  C9_28
ROOT
HETATM    1  C7  UNL     1      38.981   3.986  15.533  1.00  0.00     0.177 A
HETATM    2  N7  UNL     1      38.754   3.118  14.535  1.00  0.00    -0.167 N
ATOM      3  H7  UNL     1      39.299   2.281  14.329  1.00  0.00     0.186 HD
HETATM    4  C8  UNL     1      37.683   3.549  13.858  1.00  0.00     0.714 A
HETATM    5  N9  UNL     1      37.237   4.683  14.426  1.00  0.00     0.094 N
HETATM    6  N14 UNL     1      38.027   4.938  15.435  1.00  0.00    -0.243 N
ATOM      7  H14 UNL     1      37.937   5.740  16.059  1.00  0.00     0.191 HD
ENDROOT
BRANCH   1   8
HETATM    8  S1  UNL     1      40.260   3.968  16.786  1.00  0.00    -0.070 SA
BRANCH   8   9
HETATM    9  C6  UNL     1      39.715   4.956  18.222  1.00  0.00     0.234 C
BRANCH   9  10
HETATM   10  N6  UNL     1      38.943   4.135  19.115  1.00  0.00    -0.250 N
HETATM   11  C4  UNL     1      37.919   4.532  19.888  1.00  0.00     0.170 A
HETATM   12  N3  UNL     1      37.338   5.739  20.057  1.00  0.00    -0.173 N
HETATM   13  C5  UNL     1      37.464   3.421  20.586  1.00  0.00     0.118 A
HETATM   14  C3  UNL     1      36.307   5.873  20.910  1.00  0.00     0.677 A
ATOM     15  H3  UNL     1      37.680   6.548  19.539  1.00  0.00     0.186 HD
HETATM   16  N1  UNL     1      35.846   4.797  21.604  1.00  0.00    -0.194 N
HETATM   17  C2  UNL     1      36.405   3.598  21.450  1.00  0.00     0.054 A
ATOM     18  H1  UNL     1      35.063   4.911  22.249  1.00  0.00     0.184 HD
HETATM   19  C1  UNL     1      35.937   2.377  22.189  1.00  0.00     0.071 C
HETATM   20  N4  UNL     1      38.232   2.395  20.205  1.00  0.00    -0.281 N
HETATM   21  N5  UNL     1      39.112   2.831  19.327  1.00  0.00    -0.238 N
ATOM     22  H4  UNL     1      38.150   1.435  20.539  1.00  0.00     0.188 HD
ATOM     23  H5  UNL     1      39.821   2.253  18.876  1.00  0.00     0.208 HD
BRANCH  14  24
HETATM   24  N2  UNL     1      35.758   7.037  21.064  1.00  0.00    -0.234 N
ATOM     25  H22 UNL     1      35.632   7.409  22.005  1.00  0.00     0.174 HD
ATOM     26  H21 UNL     1      35.455   7.576  20.252  1.00  0.00     0.174 HD
ENDBRANCH  14  24
ENDBRANCH   9  10
ENDBRANCH   8   9
ENDBRANCH   1   8
BRANCH   4  27
HETATM   27  N8  UNL     1      37.125   2.998  12.814  1.00  0.00    -0.232 N
ATOM     28  H82 UNL     1      36.177   2.623  12.813  1.00  0.00     0.174 HD
ATOM     29  H81 UNL     1      37.532   2.866  11.888  1.00  0.00     0.174 HD
ENDBRANCH   4  27
BRANCH   5  30
HETATM   30  C9  UNL     1      36.125   5.467  14.021  1.00  0.00     0.750 A
HETATM   31  N10 UNL     1      36.058   6.800  13.860  1.00  0.00    -0.113 N
HETATM   32  N11 UNL     1      34.847   7.162  13.473  1.00  0.00    -0.213 N
ATOM     33  H10 UNL     1      36.834   7.443  14.015  1.00  0.00     0.207 HD
HETATM   34  N12 UNL     1      34.133   6.056  13.384  1.00  0.00    -0.213 N
ATOM     35  H11 UNL     1      34.528   8.112  13.280  1.00  0.00     0.210 HD
HETATM   36  N13 UNL     1      34.879   5.017  13.709  1.00  0.00    -0.113 N
ATOM     37  H12 UNL     1      33.153   6.012  13.106  1.00  0.00     0.210 HD
ATOM     38  H13 UNL     1      34.573   4.044  13.724  1.00  0.00     0.207 HD
ENDBRANCH   5  30
TORSDOF 6
ENDMDL