MODEL 5
REMARK VINA RESULT: -6.448015338      2.849      3.678
REMARK  6 active torsions:
REMARK  status: ('A' for Active; 'I' for Inactive)
REMARK    1  A    between atoms: C3_5  and  N2_6
REMARK    2  A    between atoms: C4_9  and  C5_10
REMARK    3  A    between atoms: C5_10  and  N5_14
REMARK    4  A    between atoms: N5_14  and  N6_16
REMARK    5  A    between atoms: C6_21  and  N8_22
REMARK    6  A    between atoms: N8_22  and  O1_24
ROOT
HETATM    1  N2  UNL     1      37.944  -0.146  13.627  1.00  0.00     0.094 N
HETATM    2  N3  UNL     1      38.276  -0.706  14.805  1.00  0.00    -0.246 N
ATOM      3  H3  UNL     1      38.902  -0.292  15.496  1.00  0.00     0.190 HD
HETATM    4  C4  UNL     1      37.659  -1.896  14.935  1.00  0.00     0.182 A
HETATM    5  N7  UNL     1      36.948  -2.030  13.796  1.00  0.00    -0.167 N
ATOM      6  H7  UNL     1      36.360  -2.835  13.576  1.00  0.00     0.186 HD
HETATM    7  C6  UNL     1      37.114  -0.959  12.981  1.00  0.00     0.742 A
ENDROOT
BRANCH   1   8
HETATM    8  C3  UNL     1      38.404   1.113  13.186  1.00  0.00     0.722 A
HETATM    9  N1  UNL     1      39.704   1.129  12.768  1.00  0.00    -0.192 N
HETATM   10  C2  UNL     1      40.243   2.272  12.341  1.00  0.00     0.042 A
ATOM     11  H1  UNL     1      40.258   0.273  12.782  1.00  0.00     0.184 HD
HETATM   12  C1  UNL     1      41.667   2.328  11.861  1.00  0.00     0.070 C
HETATM   13  C9  UNL     1      39.497   3.423  12.323  1.00  0.00     0.101 A
HETATM   14  C8  UNL     1      38.179   3.366  12.754  1.00  0.00     0.275 A
HETATM   15  C10 UNL     1      39.993   4.708  11.897  1.00  0.00     0.148 A
HETATM   16  N9  UNL     1      37.662   2.199  13.179  1.00  0.00    -0.153 N
HETATM   17  O2  UNL     1      37.464   4.398  12.750  1.00  0.00    -0.267 OA
ATOM     18  H9  UNL     1      36.693   2.156  13.495  1.00  0.00     0.187 HD
HETATM   19  N10 UNL     1      40.655   5.638  12.652  1.00  0.00    -0.269 N
HETATM   20  N13 UNL     1      39.888   5.240  10.686  1.00  0.00    -0.269 N
HETATM   21  N11 UNL     1      40.923   6.685  11.880  1.00  0.00    -0.007 NA
ATOM     22  H10 UNL     1      40.899   5.544  13.638  1.00  0.00     0.185 HD
HETATM   23  N12 UNL     1      40.445   6.437  10.656  1.00  0.00    -0.007 NA
ATOM     24  H13 UNL     1      39.440   4.788   9.889  1.00  0.00     0.185 HD
ENDBRANCH   1   8
BRANCH   7  25
HETATM   25  N8  UNL     1      36.451  -0.857  11.736  1.00  0.00    -0.092 N
HETATM   26  C7  UNL     1      35.232  -1.618  11.540  1.00  0.00     0.205 C
BRANCH  25  27
HETATM   27  O1  UNL     1      36.910  -0.101  10.739  1.00  0.00    -0.274 OA
ATOM     28  H1  UNL     1      36.689   0.818  10.651  1.00  0.00     0.245 HD
ENDBRANCH  25  27
ENDBRANCH   7  25
BRANCH   4  29
HETATM   29  C5  UNL     1      37.705  -2.843  16.052  1.00  0.00     0.160 C
HETATM   30  N4  UNL     1      38.096  -4.038  15.894  1.00  0.00    -0.381 N
ATOM     31  H42 UNL     1      38.373  -4.355  14.965  1.00  0.00     0.157 HD
ATOM     32  H41 UNL     1      38.128  -4.697  16.672  1.00  0.00     0.157 HD
BRANCH  29  33
HETATM   33  N5  UNL     1      37.321  -2.404  17.341  1.00  0.00    -0.289 N
ATOM     34  H5  UNL     1      36.333  -2.348  17.588  1.00  0.00     0.188 HD
BRANCH  33  35
HETATM   35  N6  UNL     1      38.296  -2.048  18.273  1.00  0.00    -0.344 N
ATOM     36  H62 UNL     1      39.085  -2.674  18.430  1.00  0.00     0.176 HD
ATOM     37  H61 UNL     1      38.212  -1.170  18.786  1.00  0.00     0.176 HD
ENDBRANCH  33  35
ENDBRANCH  29  33
ENDBRANCH   4  29
TORSDOF 6
ENDMDL