MODEL 4
REMARK VINA RESULT: -6.040497195      2.466      3.223
REMARK  7 active torsions:
REMARK  status: ('A' for Active; 'I' for Inactive)
REMARK    1  A    between atoms: C3_3  and  N1_4
REMARK    2  A    between atoms: N1_4  and  C4_6
REMARK    3  A    between atoms: C6_15  and  N5_16
REMARK    4  A    between atoms: C7_21  and  N7_22
REMARK    5  A    between atoms: N10_30  and  C10_31
REMARK    6  A    between atoms: C10_31  and  C11_32
REMARK    7  A    between atoms: C11_32  and  O3_34
ROOT
HETATM    1  C4  UNL     1      39.149  -0.977  14.062  1.00  0.00     0.356 C
HETATM    2  N2  UNL     1      38.867  -1.058  15.462  1.00  0.00    -0.234 N
ATOM      3  H2  UNL     1      39.122  -0.309  16.105  1.00  0.00     0.194 HD
HETATM    4  O1  UNL     1      38.265  -2.149  15.874  1.00  0.00    -0.143 OA
HETATM    5  N3  UNL     1      37.012  -2.115  15.366  1.00  0.00    -0.070 N
ATOM      6  H3  UNL     1      36.168  -2.149  15.938  1.00  0.00     0.215 HD
HETATM    7  C5  UNL     1      37.000  -2.024  13.923  1.00  0.00     0.738 A
HETATM    8  N4  UNL     1      35.951  -2.499  13.250  1.00  0.00    -0.019 N
ATOM      9  H4  UNL     1      35.161  -2.900  13.755  1.00  0.00     0.203 HD
HETATM   10  C6  UNL     1      35.936  -2.451  11.896  1.00  0.00     0.705 A
HETATM   11  N6  UNL     1      36.993  -1.918  11.266  1.00  0.00    -0.022 N
ATOM     12  H6  UNL     1      36.992  -1.876  10.248  1.00  0.00     0.203 HD
HETATM   13  C7  UNL     1      38.051  -1.438  11.939  1.00  0.00     0.710 A
HETATM   14  N8  UNL     1      38.046  -1.494  13.275  1.00  0.00     0.030 N
ENDROOT
BRANCH   1  15
HETATM   15  N1  UNL     1      39.533   0.353  13.661  1.00  0.00    -0.334 N
ATOM     16  H1  UNL     1      40.109   0.395  12.821  1.00  0.00     0.165 HD
BRANCH  15  17
HETATM   17  C3  UNL     1      39.249   1.581  14.225  1.00  0.00     0.133 A
HETATM   18  C2  UNL     1      39.937   2.337  15.125  1.00  0.00     0.056 A
HETATM   19  C1  UNL     1      41.230   2.065  15.782  1.00  0.00     0.072 C
HETATM   20  N10 UNL     1      39.238   3.492  15.383  1.00  0.00    -0.297 N
HETATM   21  C9  UNL     1      38.122   3.447  14.646  1.00  0.00     0.330 A
HETATM   22  N9  UNL     1      38.118   2.310  13.950  1.00  0.00    -0.288 N
HETATM   23  O2  UNL     1      37.256   4.352  14.647  1.00  0.00    -0.246 OA
HETATM   24  C8  UNL     1      37.029   1.954  13.041  1.00  0.00     0.163 C
BRANCH  20  25
HETATM   25  C10 UNL     1      39.626   4.543  16.276  1.00  0.00     0.165 C
BRANCH  25  26
HETATM   26  C11 UNL     1      39.077   4.403  17.672  1.00  0.00     0.132 C
HETATM   27  C12 UNL     1      39.895   5.135  18.696  1.00  0.00     0.041 C
BRANCH  26  28
HETATM   28  O3  UNL     1      37.800   4.958  17.675  1.00  0.00    -0.394 OA
ATOM     29  H3  UNL     1      37.783   5.630  18.347  1.00  0.00     0.210 HD
ENDBRANCH  26  28
ENDBRANCH  25  26
ENDBRANCH  20  25
ENDBRANCH  15  17
ENDBRANCH   1  15
BRANCH  13  30
HETATM   30  N7  UNL     1      39.054  -0.950  11.253  1.00  0.00    -0.233 N
ATOM     31  H72 UNL     1      39.290   0.043  11.251  1.00  0.00     0.174 HD
ATOM     32  H71 UNL     1      39.631  -1.595  10.713  1.00  0.00     0.174 HD
ENDBRANCH  13  30
BRANCH  10  33
HETATM   33  N5  UNL     1      34.921  -2.911  11.267  1.00  0.00    -0.234 N
ATOM     34  H52 UNL     1      34.397  -3.724  11.593  1.00  0.00     0.174 HD
ATOM     35  H51 UNL     1      34.621  -2.454  10.407  1.00  0.00     0.174 HD
ENDBRANCH  10  33
TORSDOF 7
ENDMDL