MODEL 3
REMARK VINA RESULT: -5.929080725      2.541      4.225
REMARK  10 active torsions:
REMARK  status: ('A' for Active; 'I' for Inactive)
REMARK    1  A    between atoms: N1_1  and  C1_4
REMARK    2  A    between atoms: C1_4  and  S1_6
REMARK    3  A    between atoms: S1_6  and  N3_9
REMARK    4  A    between atoms: N3_9  and  N4_10
REMARK    5  A    between atoms: N3_9  and  C5_22
REMARK    6  A    between atoms: N4_10  and  N5_12
REMARK    7  A    between atoms: N5_12  and  C2_14
REMARK    8  A    between atoms: C3_17  and  O3_18
REMARK    9  A    between atoms: C5_22  and  O4_23
REMARK   10  A    between atoms: C5_22  and  N7_25
ROOT
HETATM    1  N3  UNL     1      37.654   2.651  13.414  1.00  0.00    -0.149 N
ENDROOT
BRANCH   1   2
HETATM    2  S1  UNL     1      39.343   2.578  13.227  1.00  0.00     0.312 S
HETATM    3  O1  UNL     1      39.816   1.184  12.872  1.00  0.00    -0.196 OA
HETATM    4  O2  UNL     1      40.067   2.926  14.520  1.00  0.00    -0.196 OA
BRANCH   2   5
HETATM    5  C1  UNL     1      39.936   3.659  11.985  1.00  0.00     0.228 C
HETATM    6  N2  UNL     1      39.030   4.597  11.450  1.00  0.00    -0.068 NA
BRANCH   5   7
HETATM    7  N1  UNL     1      41.142   3.626  11.555  1.00  0.00    -0.377 N
ATOM      8  H12 UNL     1      41.678   4.469  11.347  1.00  0.00     0.158 HD
ATOM      9  H11 UNL     1      41.600   2.727  11.408  1.00  0.00     0.158 HD
ENDBRANCH   5   7
ENDBRANCH   2   5
ENDBRANCH   1   2
BRANCH   1  10
HETATM   10  N4  UNL     1      37.036   3.885  13.610  1.00  0.00    -0.225 N
ATOM     11  H4  UNL     1      36.165   4.128  13.140  1.00  0.00     0.209 HD
BRANCH  10  12
HETATM   12  N5  UNL     1      37.617   4.699  14.411  1.00  0.00    -0.264 N
ATOM     13  H5  UNL     1      38.411   4.403  14.978  1.00  0.00     0.190 HD
BRANCH  12  14
HETATM   14  C2  UNL     1      37.108   6.051  14.484  1.00  0.00     0.166 A
HETATM   15  N6  UNL     1      35.928   6.470  14.054  1.00  0.00    -0.316 N
HETATM   16  C3  UNL     1      35.598   7.714  14.181  1.00  0.00     0.148 A
ATOM     17  H6  UNL     1      35.279   5.812  13.623  1.00  0.00     0.170 HD
HETATM   18  C4  UNL     1      36.507   8.558  14.769  1.00  0.00     0.109 A
HETATM   19  S2  UNL     1      37.798   7.484  15.104  1.00  0.00    -0.060 SA
BRANCH  16  20
HETATM   20  O3  UNL     1      34.343   8.208  13.736  1.00  0.00    -0.346 OA
ATOM     21  H3  UNL     1      33.985   9.029  14.053  1.00  0.00     0.219 HD
ENDBRANCH  16  20
ENDBRANCH  12  14
ENDBRANCH  10  12
ENDBRANCH   1  10
BRANCH   1  22
HETATM   22  C5  UNL     1      36.868   1.448  13.368  1.00  0.00     0.365 C
BRANCH  22  23
HETATM   23  O4  UNL     1      35.527   1.686  13.737  1.00  0.00    -0.358 OA
ATOM     24  H4  UNL     1      35.303   1.249  14.550  1.00  0.00     0.214 HD
ENDBRANCH  22  23
BRANCH  22  25
HETATM   25  N7  UNL     1      36.939   0.762  12.096  1.00  0.00    -0.316 N
HETATM   26  C6  UNL     1      36.586  -0.469  12.038  1.00  0.00     0.191 C
HETATM   27  N8  UNL     1      36.112  -1.271  13.131  1.00  0.00    -0.346 N
HETATM   28  N10 UNL     1      36.573  -1.337  10.908  1.00  0.00    -0.274 N
HETATM   29  C7  UNL     1      35.971  -2.633  12.670  1.00  0.00     0.259 C
ATOM     30  H8  UNL     1      35.910  -0.937  14.074  1.00  0.00     0.163 HD
HETATM   31  N9  UNL     1      36.141  -2.618  11.250  1.00  0.00    -0.119 NA
ATOM     32  H10 UNL     1      36.846  -1.056   9.966  1.00  0.00     0.185 HD
ATOM     33  H7  UNL     1      37.263   1.249  11.261  1.00  0.00     0.167 HD
ENDBRANCH  22  25
ENDBRANCH   1  22
TORSDOF 10
ENDMDL