MODEL 4
REMARK VINA RESULT: -7.050138823      2.769      8.513
REMARK  7 active torsions:
REMARK  status: ('A' for Active; 'I' for Inactive)
REMARK    1  A    between atoms: C2_3  and  N2_4
REMARK    2  A    between atoms: C2_3  and  C6_20
REMARK    3  A    between atoms: N2_4  and  C3_6
REMARK    4  A    between atoms: C5_11  and  N4_12
REMARK    5  A    between atoms: N4_12  and  O2_14
REMARK    6  A    between atoms: C8_22  and  N7_23
REMARK    7  A    between atoms: N7_23  and  C9_25
ROOT
HETATM    1  N1  UNL     1      38.870   4.189  17.237  1.00  0.00    -0.195 NA
HETATM    2  C1  UNL     1      39.154   4.026  16.126  1.00  0.00     0.092 C
HETATM    3  C2  UNL     1      39.530   3.829  14.714  1.00  0.00     0.264 C
ENDROOT
BRANCH   3   4
HETATM    4  N2  UNL     1      39.507   5.119  14.075  1.00  0.00    -0.202 N
ATOM      5  H2  UNL     1      40.292   5.373  13.474  1.00  0.00     0.179 HD
BRANCH   4   6
HETATM    6  C3  UNL     1      38.458   6.052  14.233  1.00  0.00     0.697 A
HETATM    7  N3  UNL     1      38.730   7.216  14.877  1.00  0.00    -0.152 N
HETATM    8  C4  UNL     1      37.777   8.139  15.067  1.00  0.00     0.306 A
ATOM      9  H3  UNL     1      39.674   7.391  15.221  1.00  0.00     0.188 HD
HETATM   10  O1  UNL     1      37.992   9.234  15.661  1.00  0.00    -0.263 OA
HETATM   11  C5  UNL     1      36.492   7.930  14.612  1.00  0.00     0.210 A
HETATM   12  N5  UNL     1      36.237   6.780  13.979  1.00  0.00    -0.265 N
HETATM   13  N6  UNL     1      37.206   5.882  13.806  1.00  0.00    -0.130 N
ATOM     14  H5  UNL     1      35.299   6.589  13.629  1.00  0.00     0.189 HD
ATOM     15  H6  UNL     1      36.977   5.015  13.320  1.00  0.00     0.205 HD
BRANCH  11  16
HETATM   16  N4  UNL     1      35.536   8.772  14.761  1.00  0.00    -0.247 N
ATOM     17  H4  UNL     1      35.647   9.569  15.388  1.00  0.00     0.196 HD
BRANCH  16  18
HETATM   18  O2  UNL     1      34.348   8.590  14.061  1.00  0.00    -0.288 OA
ATOM     19  H2  UNL     1      34.264   8.942  13.182  1.00  0.00     0.244 HD
ENDBRANCH  16  18
ENDBRANCH  11  16
ENDBRANCH   4   6
ENDBRANCH   3   4
BRANCH   3  20
HETATM   20  C6  UNL     1      38.598   2.868  14.070  1.00  0.00     0.099 A
HETATM   21  C7  UNL     1      39.017   1.746  13.423  1.00  0.00     0.085 A
HETATM   22  C8  UNL     1      38.087   0.902  12.851  1.00  0.00     0.114 A
HETATM   23  N10 UNL     1      36.792   1.240  12.965  1.00  0.00    -0.288 N
HETATM   24  C12 UNL     1      36.409   2.341  13.602  1.00  0.00     0.371 A
ATOM     25  H10 UNL     1      36.083   0.635  12.550  1.00  0.00     0.172 HD
HETATM   26  O3  UNL     1      35.207   2.694  13.733  1.00  0.00    -0.238 OA
HETATM   27  O4  UNL     1      37.314   3.120  14.135  1.00  0.00    -0.262 OA
BRANCH  22  28
HETATM   28  N7  UNL     1      38.491  -0.290  12.160  1.00  0.00    -0.314 N
ATOM     29  H7  UNL     1      39.417  -0.333  11.732  1.00  0.00     0.170 HD
BRANCH  28  30
HETATM   30  C9  UNL     1      37.624  -1.409  12.062  1.00  0.00     0.176 C
HETATM   31  N8  UNL     1      36.966  -1.754  10.995  1.00  0.00    -0.361 N
HETATM   32  C10 UNL     1      36.174  -2.944  11.236  1.00  0.00     0.142 C
ATOM     33  H8  UNL     1      37.002  -1.254  10.106  1.00  0.00     0.162 HD
HETATM   34  C11 UNL     1      36.819  -3.514  12.468  1.00  0.00     0.142 C
HETATM   35  N9  UNL     1      37.342  -2.325  13.113  1.00  0.00    -0.361 N
ATOM     36  H9  UNL     1      37.478  -2.175  14.113  1.00  0.00     0.162 HD
ENDBRANCH  28  30
ENDBRANCH  22  28
ENDBRANCH   3  20
TORSDOF 7
ENDMDL