MODEL 1
REMARK VINA RESULT: -6.645822265      0.000      0.000
REMARK  7 active torsions:
REMARK  status: ('A' for Active; 'I' for Inactive)
REMARK    1  A    between atoms: N1_1  and  C1_4
REMARK    2  A    between atoms: C2_7  and  S1_8
REMARK    3  A    between atoms: S1_8  and  S2_9
REMARK    4  A    between atoms: S2_9  and  N3_10
REMARK    5  A    between atoms: N3_10  and  N4_12
REMARK    6  A    between atoms: N6_17  and  O2_18
REMARK    7  A    between atoms: C6_29  and  O4_30
ROOT
HETATM    1  C1  UNL     1      37.550   4.078  20.264  1.00  0.00     0.119 A
HETATM    2  N2  UNL     1      37.594   5.408  20.086  1.00  0.00    -0.322 N
ATOM      3  H2  UNL     1      38.163   5.781  19.325  1.00  0.00     0.169 HD
HETATM    4  C2  UNL     1      36.914   6.277  20.874  1.00  0.00     0.160 A
HETATM    5  N7  UNL     1      36.179   5.740  21.863  1.00  0.00    -0.320 N
ATOM      6  H7  UNL     1      35.655   6.364  22.476  1.00  0.00     0.169 HD
HETATM    7  C5  UNL     1      36.106   4.420  22.079  1.00  0.00     0.140 A
HETATM    8  N8  UNL     1      35.456   3.679  22.976  1.00  0.00    -0.283 N
ATOM      9  H8  UNL     1      34.851   4.032  23.718  1.00  0.00     0.188 HD
HETATM   10  N9  UNL     1      35.734   2.387  22.738  1.00  0.00    -0.278 N
ATOM     11  H9  UNL     1      35.367   1.604  23.279  1.00  0.00     0.189 HD
HETATM   12  C6  UNL     1      36.563   2.272  21.690  1.00  0.00     0.172 A
HETATM   13  C7  UNL     1      36.799   3.555  21.273  1.00  0.00     0.105 A
ENDROOT
BRANCH   4  14
HETATM   14  S1  UNL     1      37.025   8.033  20.552  1.00  0.00     0.003 SA
BRANCH  14  15
HETATM   15  S2  UNL     1      36.269   8.380  18.595  1.00  0.00     0.045 SA
BRANCH  15  16
HETATM   16  N3  UNL     1      37.559   7.957  17.465  1.00  0.00    -0.238 N
ATOM     17  H3  UNL     1      38.529   8.229  17.626  1.00  0.00     0.198 HD
BRANCH  16  18
HETATM   18  N4  UNL     1      37.163   7.216  16.321  1.00  0.00    -0.129 N
HETATM   19  N5  UNL     1      36.683   7.687  15.193  1.00  0.00    -0.223 N
HETATM   20  C3  UNL     1      36.429   6.690  14.343  1.00  0.00     0.371 A
ATOM     21  H5  UNL     1      36.527   8.675  14.995  1.00  0.00     0.194 HD
HETATM   22  O1  UNL     1      35.969   6.722  13.174  1.00  0.00    -0.243 OA
HETATM   23  N6  UNL     1      36.771   5.553  14.984  1.00  0.00    -0.115 N
HETATM   24  C4  UNL     1      37.223   5.881  16.205  1.00  0.00     0.392 A
HETATM   25  O3  UNL     1      37.630   5.078  17.081  1.00  0.00    -0.240 OA
BRANCH  23  26
HETATM   26  O2  UNL     1      36.672   4.285  14.472  1.00  0.00    -0.275 OA
ATOM     27  H2  UNL     1      36.955   3.489  14.905  1.00  0.00     0.245 HD
ENDBRANCH  23  26
ENDBRANCH  16  18
ENDBRANCH  15  16
ENDBRANCH  14  15
ENDBRANCH   4  14
BRANCH   1  28
HETATM   28  N1  UNL     1      38.205   3.267  19.501  1.00  0.00    -0.385 N
ATOM     29  H12 UNL     1      38.337   3.522  18.522  1.00  0.00     0.157 HD
ATOM     30  H11 UNL     1      38.587   2.390  19.853  1.00  0.00     0.157 HD
ENDBRANCH   1  28
BRANCH  12  31
HETATM   31  O4  UNL     1      37.039   1.071  21.191  1.00  0.00    -0.344 OA
ATOM     32  H4  UNL     1      37.589   0.986  20.422  1.00  0.00     0.219 HD
ENDBRANCH  12  31
TORSDOF 7
ENDMDL