MODEL 1
REMARK VINA RESULT: -6.839931567      0.000      0.000
REMARK  9 active torsions:
REMARK  status: ('A' for Active; 'I' for Inactive)
REMARK    1  A    between atoms: C2_2  and  N1_3
REMARK    2  A    between atoms: N1_3  and  N2_5
REMARK       I    between atoms: N2_5  and  C3_7
REMARK    3  A    between atoms: C3_7  and  C4_9
REMARK    4  A    between atoms: C4_9  and  O2_10
REMARK    5  A    between atoms: C4_9  and  N3_12
REMARK    6  A    between atoms: N3_12  and  C5_14
REMARK    7  A    between atoms: C5_14  and  N4_15
REMARK    8  A    between atoms: C6_16  and  N5_17
REMARK    9  A    between atoms: C7_20  and  O3_21
ROOT
HETATM    1  N4  UNL     1      38.106   0.638  13.236  1.00  0.00    -0.266 N
HETATM    2  C6  UNL     1      38.705   0.154  14.332  1.00  0.00     0.144 A
HETATM    3  C7  UNL     1      38.513  -1.215  14.644  1.00  0.00     0.163 A
HETATM    4  C8  UNL     1      37.717  -1.934  13.787  1.00  0.00     0.199 A
HETATM    5  O4  UNL     1      37.379  -3.225  13.824  1.00  0.00    -0.268 OA
HETATM    6  C9  UNL     1      36.611  -3.531  12.810  1.00  0.00     0.212 A
HETATM    7  N6  UNL     1      35.936  -4.483  12.191  1.00  0.00    -0.262 N
ATOM      8  H6  UNL     1      35.873  -5.455  12.491  1.00  0.00     0.190 HD
HETATM    9  N7  UNL     1      35.347  -3.968  11.107  1.00  0.00    -0.239 N
ATOM     10  H7  UNL     1      34.759  -4.482  10.452  1.00  0.00     0.208 HD
HETATM   11  N8  UNL     1      35.644  -2.711  11.023  1.00  0.00    -0.267 N
ATOM     12  H8  UNL     1      35.328  -2.080  10.286  1.00  0.00     0.190 HD
HETATM   13  C10 UNL     1      36.434  -2.364  12.057  1.00  0.00     0.188 A
HETATM   14  N9  UNL     1      37.133  -1.413  12.697  1.00  0.00    -0.220 N
HETATM   15  C11 UNL     1      37.348  -0.098  12.441  1.00  0.00     0.340 A
HETATM   16  O5  UNL     1      36.777   0.360  11.405  1.00  0.00    -0.246 OA
ENDROOT
BRANCH   1  17
HETATM   17  C5  UNL     1      38.548   1.990  12.852  1.00  0.00     0.260 C
BRANCH  17  18
HETATM   18  N3  UNL     1      37.424   2.851  12.774  1.00  0.00    -0.350 N
ATOM     19  H3  UNL     1      37.318   3.424  11.938  1.00  0.00     0.163 HD
BRANCH  18  20
HETATM   20  C4  UNL     1      36.452   2.962  13.773  1.00  0.00     0.208 C
BRANCH  20  21
HETATM   21  C3  UNL     1      35.990   4.376  13.900  1.00  0.00     0.310 C
HETATM   22  N2  UNL     1      36.688   5.320  14.742  1.00  0.00    -0.264 N
ATOM     23  H2  UNL     1      37.491   5.002  15.285  1.00  0.00     0.190 HD
HETATM   24  O1  UNL     1      35.008   4.813  13.295  1.00  0.00    -0.262 OA
BRANCH  22  25
HETATM   25  N1  UNL     1      36.307   6.605  14.828  1.00  0.00    -0.313 N
ATOM     26  H1  UNL     1      35.330   6.701  15.103  1.00  0.00     0.185 HD
BRANCH  25  27
HETATM   27  C2  UNL     1      36.860   7.708  14.654  1.00  0.00     0.076 C
HETATM   28  C1  UNL     1      36.084   8.941  15.028  1.00  0.00     0.056 C
ENDBRANCH  25  27
ENDBRANCH  22  25
ENDBRANCH  20  21
BRANCH  20  29
HETATM   29  O2  UNL     1      35.444   2.044  13.915  1.00  0.00    -0.342 OA
ATOM     30  H2  UNL     1      35.369   1.448  13.179  1.00  0.00     0.219 HD
ENDBRANCH  20  29
ENDBRANCH  18  20
ENDBRANCH  17  18
ENDBRANCH   1  17
BRANCH   2  31
HETATM   31  N5  UNL     1      39.438   0.778  15.179  1.00  0.00    -0.383 N
ATOM     32  H52 UNL     1      38.923   1.441  15.758  1.00  0.00     0.157 HD
ATOM     33  H51 UNL     1      40.445   0.700  15.323  1.00  0.00     0.157 HD
ENDBRANCH   2  31
BRANCH   3  34
HETATM   34  O3  UNL     1      39.091  -1.771  15.756  1.00  0.00    -0.354 OA
ATOM     35  H3  UNL     1      39.877  -2.302  15.683  1.00  0.00     0.218 HD
ENDBRANCH   3  34
TORSDOF 9
ENDMDL