MODEL 5
REMARK VINA RESULT: -7.136704783      3.979      8.318
REMARK  13 active torsions:
REMARK  status: ('A' for Active; 'I' for Inactive)
REMARK    1  A    between atoms: C2_2  and  C5_5
REMARK       I    between atoms: C5_5  and  N1_7
REMARK    2  A    between atoms: C7_9  and  C8_10
REMARK    3  A    between atoms: C8_10  and  C9_11
REMARK    4  A    between atoms: C9_11  and  O2_12
REMARK    5  A    between atoms: O2_12  and  N2_13
REMARK       I    between atoms: N2_13  and  C10_15
REMARK       I    between atoms: C10_15  and  N3_17
REMARK    6  A    between atoms: N3_17  and  C11_19
REMARK    7  A    between atoms: C11_19  and  C12_20
REMARK    8  A    between atoms: C11_19  and  C14_27
REMARK    9  A    between atoms: C12_20  and  O4_21
REMARK   10  A    between atoms: C12_20  and  C13_23
REMARK   11  A    between atoms: C18_31  and  N4_32
REMARK   12  A    between atoms: N4_32  and  C19_34
REMARK   13  A    between atoms: C19_34  and  C20_35
ROOT
HETATM    1  O2  UNL     1      18.363 -12.447  21.135  1.00  0.00    -0.276 OA
ENDROOT
BRANCH   1   2
HETATM    2  C9  UNL     1      19.106 -13.022  20.135  1.00  0.00     0.202 C
BRANCH   2   3
HETATM    3  C8  UNL     1      19.979 -14.105  20.667  1.00  0.00     0.037 C
BRANCH   3   4
HETATM    4  C7  UNL     1      19.416 -14.696  21.926  1.00  0.00     0.030 C
HETATM    5  C6  UNL     1      18.380 -15.754  21.645  1.00  0.00     0.132 C
HETATM    6  N1  UNL     1      18.657 -16.866  22.557  1.00  0.00    -0.349 N
HETATM    7  C5  UNL     1      18.081 -18.143  22.439  1.00  0.00     0.227 C
HETATM    8  C21 UNL     1      19.614 -16.359  23.555  1.00  0.00     0.151 C
HETATM    9  O1  UNL     1      17.277 -18.352  21.495  1.00  0.00    -0.273 OA
HETATM   10  C18 UNL     1      20.514 -15.535  22.623  1.00  0.00     0.104 C
BRANCH   7  11
HETATM   11  C2  UNL     1      18.378 -19.259  23.377  1.00  0.00     0.030 C
HETATM   12  C1  UNL     1      17.695 -20.515  22.872  1.00  0.00     0.025 C
HETATM   13  C3  UNL     1      17.909 -19.005  24.772  1.00  0.00     0.025 C
HETATM   14  C4  UNL     1      19.862 -19.573  23.418  1.00  0.00     0.025 C
ENDBRANCH   7  11
BRANCH  10  15
HETATM   15  N4  UNL     1      21.425 -14.725  23.305  1.00  0.00    -0.395 N
ATOM     16  H4  UNL     1      21.545 -13.760  22.996  1.00  0.00     0.159 HD
BRANCH  15  17
HETATM   17  C19 UNL     1      22.176 -15.174  24.384  1.00  0.00     0.071 C
BRANCH  17  18
HETATM   18  C20 UNL     1      21.835 -14.766  25.764  1.00  0.00     0.158 C
HETATM   19 CL1  UNL     1      20.866 -13.288  25.874  1.00  0.00    -0.125 Cl
ENDBRANCH  17  18
ENDBRANCH  15  17
ENDBRANCH  10  15
ENDBRANCH   3   4
ENDBRANCH   2   3
ENDBRANCH   1   2
BRANCH   1  20
HETATM   20  N2  UNL     1      17.180 -11.975  20.659  1.00  0.00    -0.217 N
HETATM   21  C10 UNL     1      15.969 -12.471  21.206  1.00  0.00     0.340 C
HETATM   22  O3  UNL     1      15.977 -13.338  22.110  1.00  0.00    -0.245 OA
HETATM   23  N3  UNL     1      14.702 -12.006  20.750  1.00  0.00    -0.333 N
ATOM     24  H3  UNL     1      14.671 -11.301  20.014  1.00  0.00     0.164 HD
ATOM     25  H2  UNL     1      17.163 -11.273  19.918  1.00  0.00     0.199 HD
BRANCH  23  26
HETATM   26  C11 UNL     1      13.458 -12.502  21.296  1.00  0.00     0.131 C
BRANCH  26  27
HETATM   27  C12 UNL     1      12.794 -13.389  20.287  1.00  0.00     0.249 C
BRANCH  27  28
HETATM   28  O4  UNL     1      13.385 -13.218  19.028  1.00  0.00    -0.384 OA
ATOM     29  H4  UNL     1      13.363 -14.033  18.542  1.00  0.00     0.210 HD
ENDBRANCH  27  28
BRANCH  27  30
HETATM   30  C13 UNL     1      12.934 -14.844  20.650  1.00  0.00     0.415 C
HETATM   31  F1  UNL     1      14.227 -15.207  20.233  1.00  0.00    -0.168 F
HETATM   32  F2  UNL     1      12.884 -15.039  22.036  1.00  0.00    -0.168 F
HETATM   33  F3  UNL     1      12.048 -15.662  19.993  1.00  0.00    -0.168 F
ENDBRANCH  27  30
ENDBRANCH  26  27
BRANCH  26  34
HETATM   34  C14 UNL     1      12.552 -11.351  21.688  1.00  0.00    -0.028 C
HETATM   35  C15 UNL     1      12.090 -10.568  20.489  1.00  0.00     0.016 C
HETATM   36  C16 UNL     1      11.322 -11.957  22.343  1.00  0.00     0.016 C
HETATM   37  C17 UNL     1      13.214 -10.381  22.623  1.00  0.00     0.016 C
ENDBRANCH  26  34
ENDBRANCH  23  26
ENDBRANCH   1  20
TORSDOF 13
ENDMDL