MODEL 1
REMARK VINA RESULT: -9.111617048      0.000      0.000
REMARK  10 active torsions:
REMARK  status: ('A' for Active; 'I' for Inactive)
REMARK    1  A    between atoms: C1_2  and  C2_3
REMARK    2  A    between atoms: C2_3  and  C3_4
REMARK    3  A    between atoms: C3_4  and  N1_5
REMARK    4  A    between atoms: N1_5  and  C4_7
REMARK    5  A    between atoms: N3_11  and  C6_13
REMARK    6  A    between atoms: C12_22  and  N5_23
REMARK    7  A    between atoms: N5_23  and  C13_25
REMARK    8  A    between atoms: C16_28  and  C17_29
REMARK    9  A    between atoms: C17_29  and  N6_30
REMARK   10  A    between atoms: N6_30  and  C18_32
ROOT
HETATM    1  C4  UNL     1      17.386 -15.100  21.641  1.00  0.00     0.710 A
HETATM    2  N2  UNL     1      18.288 -15.357  22.576  1.00  0.00    -0.021 N
ATOM      3  H2  UNL     1      18.733 -14.564  23.038  1.00  0.00     0.203 HD
HETATM    4  C5  UNL     1      18.657 -16.589  22.956  1.00  0.00     0.711 A
HETATM    5  N3  UNL     1      19.520 -16.850  23.875  1.00  0.00    -0.191 N
ATOM      6  H3  UNL     1      19.726 -17.827  24.087  1.00  0.00     0.184 HD
HETATM    7  N4  UNL     1      18.026 -17.611  22.300  1.00  0.00    -0.021 N
ATOM      8  H4  UNL     1      18.276 -18.566  22.557  1.00  0.00     0.203 HD
HETATM    9  C12 UNL     1      17.110 -17.448  21.351  1.00  0.00     0.707 A
HETATM   10  N7  UNL     1      16.792 -16.174  21.023  1.00  0.00    -0.021 N
ATOM     11  H7  UNL     1      16.093 -16.006  20.298  1.00  0.00     0.203 HD
ENDROOT
BRANCH   9  12
HETATM   12  N5  UNL     1      16.491 -18.369  20.743  1.00  0.00    -0.220 N
ATOM     13  H5  UNL     1      17.066 -19.005  20.191  1.00  0.00     0.178 HD
BRANCH  12  14
HETATM   14  C13 UNL     1      15.076 -18.632  20.734  1.00  0.00     0.099 C
HETATM   15  C14 UNL     1      14.515 -18.503  19.346  1.00  0.00     0.026 C
HETATM   16  C15 UNL     1      14.059 -17.105  19.046  1.00  0.00     0.012 C
HETATM   17  C16 UNL     1      12.856 -16.825  19.986  1.00  0.00     0.024 C
HETATM   18  C24 UNL     1      13.405 -16.809  21.359  1.00  0.00     0.012 C
HETATM   19  C25 UNL     1      14.367 -17.850  21.762  1.00  0.00     0.026 C
BRANCH  17  20
HETATM   20  C17 UNL     1      12.344 -15.500  19.530  1.00  0.00     0.060 C
BRANCH  20  21
HETATM   21  N6  UNL     1      13.116 -14.356  19.608  1.00  0.00    -0.397 N
ATOM     22  H6  UNL     1      14.035 -14.374  19.165  1.00  0.00     0.159 HD
BRANCH  21  23
HETATM   23  C18 UNL     1      12.727 -13.178  20.249  1.00  0.00     0.081 C
HETATM   24  C19 UNL     1      13.942 -12.231  20.281  1.00  0.00     0.031 C
HETATM   25  C20 UNL     1      13.780 -11.219  21.357  1.00  0.00     0.081 C
HETATM   26  C21 UNL     1      12.380 -10.938  21.793  1.00  0.00     0.243 C
HETATM   27  F3  UNL     1      11.753 -10.196  20.796  1.00  0.00    -0.206 F
HETATM   28  F4  UNL     1      12.442 -10.098  22.892  1.00  0.00    -0.206 F
HETATM   29  C22 UNL     1      11.613 -12.167  22.169  1.00  0.00     0.081 C
HETATM   30  C23 UNL     1      12.388 -13.393  21.732  1.00  0.00     0.031 C
ENDBRANCH  21  23
ENDBRANCH  20  21
ENDBRANCH  17  20
ENDBRANCH  12  14
ENDBRANCH   9  12
BRANCH   1  31
HETATM   31  N1  UNL     1      17.001 -13.958  21.264  1.00  0.00    -0.204 N
ATOM     32  H1  UNL     1      15.995 -13.897  21.106  1.00  0.00     0.183 HD
BRANCH  31  33
HETATM   33  C3  UNL     1      17.685 -12.754  21.019  1.00  0.00     0.081 C
BRANCH  33  34
HETATM   34  C2  UNL     1      18.520 -12.727  19.760  1.00  0.00     0.076 C
BRANCH  34  35
HETATM   35  C1  UNL     1      19.956 -13.104  20.025  1.00  0.00     0.227 C
HETATM   36  F1  UNL     1      20.710 -12.814  18.915  1.00  0.00    -0.255 F
ENDBRANCH  34  35
ENDBRANCH  33  34
ENDBRANCH  31  33
ENDBRANCH   1  31
BRANCH   5  37
HETATM   37  C6  UNL     1      20.183 -15.865  24.589  1.00  0.00     0.052 A
HETATM   38  C7  UNL     1      19.609 -15.400  25.776  1.00  0.00     0.030 A
HETATM   39  C8  UNL     1      20.195 -14.419  26.540  1.00  0.00     0.005 A
HETATM   40  C9  UNL     1      21.376 -13.863  26.153  1.00  0.00     0.042 A
HETATM   41  C10 UNL     1      21.964 -14.315  24.969  1.00  0.00     0.118 A
HETATM   42  F2  UNL     1      23.137 -13.770  24.585  1.00  0.00    -0.206 F
HETATM   43  C11 UNL     1      21.371 -15.302  24.203  1.00  0.00     0.072 A
ENDBRANCH   5  37
TORSDOF 10
ENDMDL