MODEL 3
REMARK VINA RESULT: -8.238886238      2.486      3.479
REMARK  10 active torsions:
REMARK  status: ('A' for Active; 'I' for Inactive)
REMARK    1  A    between atoms: C5_5  and  C6_6
REMARK    2  A    between atoms: C6_6  and  N1_7
REMARK       I    between atoms: N1_7  and  C7_9
REMARK    3  A    between atoms: C7_9  and  C8_11
REMARK    4  A    between atoms: C8_11  and  C9_12
REMARK    5  A    between atoms: C8_11  and  N2_15
REMARK    6  A    between atoms: C9_12  and  O2_13
REMARK       I    between atoms: N2_15  and  C10_17
REMARK       I    between atoms: C10_17  and  N4_21
REMARK    7  A    between atoms: N4_21  and  C11_22
REMARK    8  A    between atoms: N4_21  and  C14_28
REMARK    9  A    between atoms: C11_22  and  C12_23
REMARK   10  A    between atoms: C12_23  and  C13_24
ROOT
HETATM    1  C8  UNL     1      16.244 -16.146  20.996  1.00  0.00     0.215 C
ENDROOT
BRANCH   1   2
HETATM    2  C7  UNL     1      16.697 -16.921  22.201  1.00  0.00     0.243 C
HETATM    3  N1  UNL     1      17.408 -16.299  23.257  1.00  0.00    -0.359 N
ATOM      4  H1  UNL     1      17.624 -15.304  23.218  1.00  0.00     0.162 HD
HETATM    5  O1  UNL     1      16.419 -18.141  22.234  1.00  0.00    -0.271 OA
BRANCH   3   6
HETATM    6  C6  UNL     1      17.817 -17.085  24.378  1.00  0.00     0.127 C
BRANCH   6   7
HETATM    7  C5  UNL     1      19.201 -16.762  24.866  1.00  0.00     0.008 C
HETATM    8  C4  UNL     1      20.275 -17.296  23.935  1.00  0.00     0.036 C
HETATM    9  C2  UNL     1      21.554 -17.313  24.759  1.00  0.00     0.019 C
HETATM   10  C1  UNL     1      22.749 -17.663  23.889  1.00  0.00     0.037 C
HETATM   11  C3  UNL     1      21.400 -18.493  25.724  1.00  0.00     0.037 C
HETATM   12  N5  UNL     1      21.737 -16.148  25.541  1.00  0.00    -0.405 N
HETATM   13  C21 UNL     1      20.915 -15.032  25.242  1.00  0.00     0.019 C
ATOM     14  H5  UNL     1      22.431 -16.112  26.288  1.00  0.00     0.154 HD
HETATM   15  C20 UNL     1      19.464 -15.311  25.063  1.00  0.00     0.036 C
HETATM   16  C22 UNL     1      21.029 -14.060  26.429  1.00  0.00     0.037 C
HETATM   17  C23 UNL     1      21.512 -14.284  24.051  1.00  0.00     0.037 C
ENDBRANCH   6   7
ENDBRANCH   3   6
ENDBRANCH   1   2
BRANCH   1  18
HETATM   18  C9  UNL     1      15.531 -17.107  20.104  1.00  0.00     0.199 C
BRANCH  18  19
HETATM   19  O2  UNL     1      14.193 -17.297  20.390  1.00  0.00    -0.398 OA
ATOM     20  H2  UNL     1      13.591 -16.750  19.900  1.00  0.00     0.209 HD
ENDBRANCH  18  19
ENDBRANCH   1  18
BRANCH   1  21
HETATM   21  N2  UNL     1      15.441 -15.033  21.359  1.00  0.00    -0.209 N
HETATM   22  C10 UNL     1      15.654 -13.675  20.965  1.00  0.00     0.701 C
HETATM   23  N3  UNL     1      16.841 -13.221  20.933  1.00  0.00    -0.054 N
HETATM   24  N4  UNL     1      14.487 -12.938  20.645  1.00  0.00    -0.211 N
HETATM   25  F1  UNL     1      17.274 -12.020  20.605  1.00  0.00    -0.086 F
ATOM     26  H3  UNL     1      17.567 -13.886  21.199  1.00  0.00     0.218 HD
ATOM     27  H2  UNL     1      14.636 -15.218  21.958  1.00  0.00     0.178 HD
BRANCH  24  28
HETATM   28  C11 UNL     1      14.136 -12.714  19.281  1.00  0.00     0.150 C
BRANCH  28  29
HETATM   29  C12 UNL     1      14.332 -13.873  18.355  1.00  0.00     0.137 C
BRANCH  29  30
HETATM   30  C13 UNL     1      15.230 -13.357  17.218  1.00  0.00     0.389 C
HETATM   31  F2  UNL     1      14.530 -12.422  16.460  1.00  0.00    -0.171 F
HETATM   32  F3  UNL     1      16.411 -12.861  17.678  1.00  0.00    -0.171 F
HETATM   33  F4  UNL     1      15.453 -14.444  16.379  1.00  0.00    -0.171 F
ENDBRANCH  29  30
ENDBRANCH  28  29
ENDBRANCH  24  28
BRANCH  24  34
HETATM   34  C14 UNL     1      13.687 -12.424  21.715  1.00  0.00     0.102 C
HETATM   35  C15 UNL     1      13.360 -10.959  21.548  1.00  0.00     0.026 C
HETATM   36  C16 UNL     1      12.709 -10.338  22.740  1.00  0.00     0.002 C
HETATM   37  C17 UNL     1      11.932 -11.350  23.562  1.00  0.00     0.000 C
HETATM   38  C18 UNL     1      11.330 -12.341  22.584  1.00  0.00     0.002 C
HETATM   39  C19 UNL     1      12.492 -13.201  22.096  1.00  0.00     0.026 C
ENDBRANCH  24  34
ENDBRANCH   1  21
TORSDOF 10
ENDMDL