MODEL 5
REMARK VINA RESULT: -8.706560996      2.537      3.246
REMARK  10 active torsions:
REMARK  status: ('A' for Active; 'I' for Inactive)
REMARK    1  A    between atoms: C6_6  and  N1_7
REMARK       I    between atoms: N1_7  and  C7_9
REMARK       I    between atoms: C7_9  and  N2_10
REMARK       I    between atoms: C7_9  and  N3_17
REMARK    2  A    between atoms: N2_10  and  C8_12
REMARK    3  A    between atoms: C8_12  and  C9_13
REMARK    4  A    between atoms: N3_17  and  C10_19
REMARK    5  A    between atoms: C10_19  and  C11_20
REMARK    6  A    between atoms: C11_20  and  C12_21
REMARK    7  A    between atoms: C12_21  and  C13_22
REMARK    8  A    between atoms: C13_22  and  C14_23
REMARK    9  A    between atoms: C14_23  and  N4_24
REMARK   10  A    between atoms: N4_24  and  C15_26
ROOT
HETATM    1  N1  UNL     1      17.415 -16.267  22.986  1.00  0.00    -0.222 N
ATOM      2  H1  UNL     1      16.634 -15.635  23.161  1.00  0.00     0.178 HD
HETATM    3  C7  UNL     1      17.248 -17.200  21.936  1.00  0.00     0.670 C
HETATM    4  N2  UNL     1      17.936 -18.257  21.935  1.00  0.00    -0.218 N
ATOM      5  H2  UNL     1      18.582 -18.365  22.718  1.00  0.00     0.178 HD
HETATM    6  N3  UNL     1      16.312 -16.919  20.903  1.00  0.00    -0.227 N
ATOM      7  H3  UNL     1      16.478 -17.305  19.973  1.00  0.00     0.177 HD
ENDROOT
BRANCH   1   8
HETATM    8  C6  UNL     1      18.560 -16.116  23.829  1.00  0.00     0.099 C
HETATM    9  C5  UNL     1      19.523 -15.142  23.269  1.00  0.00     0.026 C
HETATM   10  C4  UNL     1      20.017 -14.114  24.263  1.00  0.00     0.011 C
HETATM   11  C2  UNL     1      20.380 -14.825  25.548  1.00  0.00    -0.048 C
HETATM   12  C1  UNL     1      21.491 -15.815  25.361  1.00  0.00     0.015 C
HETATM   13  C3  UNL     1      20.910 -13.742  26.497  1.00  0.00     0.015 C
HETATM   14  C18 UNL     1      19.189 -15.462  26.171  1.00  0.00     0.011 C
HETATM   15  C17 UNL     1      18.078 -15.781  25.214  1.00  0.00     0.026 C
ENDBRANCH   1   8
BRANCH   4  16
HETATM   16  C8  UNL     1      17.931 -19.315  20.992  1.00  0.00     0.255 C
BRANCH  16  17
HETATM   17  C9  UNL     1      19.301 -19.850  20.650  1.00  0.00     0.403 C
HETATM   18  F1  UNL     1      20.286 -18.914  20.748  1.00  0.00    -0.169 F
HETATM   19  F2  UNL     1      19.267 -20.283  19.333  1.00  0.00    -0.169 F
HETATM   20  F3  UNL     1      19.630 -20.931  21.430  1.00  0.00    -0.169 F
ENDBRANCH  16  17
ENDBRANCH   4  16
BRANCH   6  21
HETATM   21  C10 UNL     1      15.131 -16.106  21.118  1.00  0.00     0.138 C
BRANCH  21  22
HETATM   22  C11 UNL     1      13.928 -16.919  21.479  1.00  0.00     0.020 C
BRANCH  22  23
HETATM   23  C12 UNL     1      12.678 -16.200  21.059  1.00  0.00     0.003 C
BRANCH  23  24
HETATM   24  C13 UNL     1      13.028 -15.068  20.148  1.00  0.00     0.020 C
BRANCH  24  25
HETATM   25  C14 UNL     1      12.356 -13.763  20.508  1.00  0.00     0.121 C
BRANCH  25  26
HETATM   26  N4  UNL     1      11.846 -13.924  21.879  1.00  0.00    -0.369 N
ATOM     27  H4  UNL     1      11.644 -14.841  22.278  1.00  0.00     0.161 HD
BRANCH  26  28
HETATM   28  C15 UNL     1      11.666 -12.812  22.556  1.00  0.00     0.161 A
HETATM   29  N5  UNL     1      10.721 -12.560  23.472  1.00  0.00    -0.279 N
HETATM   30  N6  UNL     1      10.706 -11.416  24.027  1.00  0.00    -0.286 N
ATOM     31  H5  UNL     1      10.030 -13.268  23.719  1.00  0.00     0.189 HD
HETATM   32  C16 UNL     1      11.605 -10.503  23.701  1.00  0.00     0.139 A
ATOM     33  H6  UNL     1       9.996 -11.202  24.728  1.00  0.00     0.188 HD
HETATM   34 BR1  UNL     1      11.803  -8.711  24.381  1.00  0.00    -0.021 Br
HETATM   35  S1  UNL     1      12.526 -11.337  22.530  1.00  0.00    -0.026 SA
ENDBRANCH  26  28
ENDBRANCH  25  26
ENDBRANCH  24  25
ENDBRANCH  23  24
ENDBRANCH  22  23
ENDBRANCH  21  22
ENDBRANCH   6  21
TORSDOF 10
ENDMDL