MODEL 2
REMARK VINA RESULT: -7.665236942      1.328      3.228
REMARK  13 active torsions:
REMARK  status: ('A' for Active; 'I' for Inactive)
REMARK    1  A    between atoms: C2_2  and  C3_3
REMARK    2  A    between atoms: C4_4  and  C5_5
REMARK    3  A    between atoms: C5_5  and  N1_6
REMARK    4  A    between atoms: N1_6  and  C6_7
REMARK    5  A    between atoms: N1_6  and  C8_11
REMARK    6  A    between atoms: C6_7  and  C7_8
REMARK    7  A    between atoms: C7_8  and  O1_9
REMARK    8  A    between atoms: C8_11  and  C9_12
REMARK    9  A    between atoms: C9_12  and  O2_13
REMARK   10  A    between atoms: C9_12  and  C10_15
REMARK   11  A    between atoms: C14_19  and  O3_20
REMARK   12  A    between atoms: C18_25  and  C20_27
REMARK   13  A    between atoms: C20_27  and  C22_31
ROOT
HETATM    1  C10 UNL     1      14.776 -13.514  19.558  1.00  0.00     0.037 C
HETATM    2  C11 UNL     1      14.908 -13.470  18.082  1.00  0.00     0.024 C
HETATM    3  C12 UNL     1      14.759 -14.803  17.384  1.00  0.00     0.012 C
HETATM    4  C13 UNL     1      15.324 -14.521  16.004  1.00  0.00     0.037 C
HETATM    5  C14 UNL     1      16.153 -13.254  16.103  1.00  0.00     0.147 C
HETATM    6  C15 UNL     1      16.204 -12.928  17.563  1.00  0.00    -0.051 C
HETATM    7  C16 UNL     1      17.070 -12.352  18.346  1.00  0.00    -0.020 C
HETATM    8  C17 UNL     1      16.861 -12.182  19.808  1.00  0.00     0.042 C
HETATM    9  C18 UNL     1      15.987 -13.310  20.379  1.00  0.00    -0.001 C
HETATM   10  C19 UNL     1      15.525 -12.664  21.725  1.00  0.00     0.021 C
ENDROOT
BRANCH   1  11
HETATM   11  C9  UNL     1      13.584 -12.625  19.948  1.00  0.00     0.142 C
BRANCH  11  12
HETATM   12  C8  UNL     1      12.423 -13.509  20.290  1.00  0.00     0.160 C
BRANCH  12  13
HETATM   13  N1  UNL     1      12.320 -13.802  21.697  1.00  0.00    -0.358 N
BRANCH  13  14
HETATM   14  C5  UNL     1      11.413 -13.048  22.437  1.00  0.00     0.155 C
BRANCH  14  15
HETATM   15  C4  UNL     1      11.912 -11.729  22.821  1.00  0.00    -0.061 C
HETATM   16  C3  UNL     1      12.304 -10.622  23.163  1.00  0.00    -0.101 C
BRANCH  16  17
HETATM   17  C2  UNL     1      12.751  -9.298  23.563  1.00  0.00     0.090 C
HETATM   18  C1  UNL     1      11.704  -8.652  24.429  1.00  0.00     0.018 C
ENDBRANCH  16  17
ENDBRANCH  14  15
ENDBRANCH  13  14
BRANCH  13  19
HETATM   19  C6  UNL     1      12.620 -15.132  21.964  1.00  0.00     0.089 C
BRANCH  19  20
HETATM   20  C7  UNL     1      12.348 -16.175  20.936  1.00  0.00     0.208 C
BRANCH  20  21
HETATM   21  O1  UNL     1      12.838 -17.390  21.500  1.00  0.00    -0.396 OA
ATOM     22  H1  UNL     1      12.138 -18.020  21.379  1.00  0.00     0.209 HD
ENDBRANCH  20  21
ENDBRANCH  19  20
ENDBRANCH  13  19
ENDBRANCH  12  13
ENDBRANCH  11  12
BRANCH  11  23
HETATM   23  O2  UNL     1      13.289 -11.858  18.827  1.00  0.00    -0.393 OA
ATOM     24  H2  UNL     1      13.946 -11.996  18.154  1.00  0.00     0.210 HD
ENDBRANCH  11  23
ENDBRANCH   1  11
BRANCH   9  25
HETATM   25  C20 UNL     1      16.751 -14.486  20.833  1.00  0.00     0.032 C
HETATM   26  C21 UNL     1      16.374 -15.763  20.678  1.00  0.00     0.275 C
HETATM   27  F1  UNL     1      15.295 -16.263  20.116  1.00  0.00    -0.172 F
HETATM   28  F2  UNL     1      17.242 -16.711  21.202  1.00  0.00    -0.172 F
BRANCH  25  29
HETATM   29  C22 UNL     1      18.095 -14.407  21.447  1.00  0.00     0.018 A
HETATM   30  C23 UNL     1      19.238 -14.259  20.750  1.00  0.00     0.018 A
HETATM   31  C24 UNL     1      20.494 -14.223  21.377  1.00  0.00     0.046 A
HETATM   32  C25 UNL     1      20.599 -14.337  22.724  1.00  0.00     0.158 A
HETATM   33  F3  UNL     1      21.793 -14.311  23.389  1.00  0.00    -0.203 F
HETATM   34  C26 UNL     1      19.464 -14.486  23.465  1.00  0.00     0.194 A
HETATM   35  F4  UNL     1      19.516 -14.603  24.812  1.00  0.00    -0.200 F
HETATM   36  C27 UNL     1      18.224 -14.521  22.837  1.00  0.00     0.169 A
HETATM   37  F5  UNL     1      17.165 -14.656  23.668  1.00  0.00    -0.202 F
ENDBRANCH  25  29
ENDBRANCH   9  25
BRANCH   5  38
HETATM   38  O3  UNL     1      15.600 -12.208  15.390  1.00  0.00    -0.391 OA
ATOM     39  H3  UNL     1      15.082 -12.508  14.652  1.00  0.00     0.210 HD
ENDBRANCH   5  38
TORSDOF 13
ENDMDL