MODEL 1
REMARK VINA RESULT: -8.957833476      0.000      0.000
REMARK  10 active torsions:
REMARK  status: ('A' for Active; 'I' for Inactive)
REMARK    1  A    between atoms: C2_2  and  O1_3
REMARK    2  A    between atoms: O1_3  and  C3_4
REMARK       I    between atoms: C3_4  and  N1_6
REMARK       I    between atoms: N1_6  and  C4_8
REMARK       I    between atoms: C4_8  and  N2_10
REMARK    3  A    between atoms: C8_15  and  C9_16
REMARK    4  A    between atoms: C9_16  and  C10_17
REMARK    5  A    between atoms: C9_16  and  C18_30
REMARK    6  A    between atoms: C10_17  and  C11_18
REMARK    7  A    between atoms: C11_18  and  C12_19
REMARK    8  A    between atoms: C12_19  and  N3_20
REMARK       I    between atoms: N3_20  and  C13_22
REMARK       I    between atoms: C13_22  and  N4_24
REMARK    9  A    between atoms: N4_24  and  C14_26
REMARK   10  A    between atoms: C19_33  and  C20_34
ROOT
HETATM    1  C9  UNL     1      15.701 -14.425  21.297  1.00  0.00     0.005 C
ENDROOT
BRANCH   1   2
HETATM    2  C8  UNL     1      16.781 -13.515  20.798  1.00  0.00     0.128 C
HETATM    3  N2  UNL     1      16.883 -12.998  19.531  1.00  0.00    -0.322 N
HETATM    4  C4  UNL     1      16.040 -12.730  18.446  1.00  0.00     0.327 C
HETATM    5  C5  UNL     1      18.332 -12.658  19.333  1.00  0.00     0.165 C
HETATM    6  N1  UNL     1      16.610 -12.159  17.243  1.00  0.00    -0.254 N
HETATM    7  O3  UNL     1      14.809 -12.922  18.358  1.00  0.00    -0.247 OA
HETATM    8  C3  UNL     1      15.832 -11.891  16.080  1.00  0.00     0.368 C
ATOM      9  H1  UNL     1      17.607 -11.942  17.228  1.00  0.00     0.175 HD
HETATM   10  O2  UNL     1      14.598 -12.111  16.130  1.00  0.00    -0.238 OA
HETATM   11  C6  UNL     1      19.108 -13.179  20.468  1.00  0.00     0.190 C
HETATM   12  F1  UNL     1      20.285 -13.802  20.130  1.00  0.00    -0.248 F
HETATM   13  C7  UNL     1      18.147 -14.113  21.170  1.00  0.00     0.069 C
BRANCH   8  14
HETATM   14  O1  UNL     1      16.359 -11.412  14.914  1.00  0.00    -0.304 OA
BRANCH  14  15
HETATM   15  C2  UNL     1      16.067 -11.837  13.612  1.00  0.00     0.176 C
HETATM   16  C1  UNL     1      16.372 -13.263  13.313  1.00  0.00     0.034 C
ENDBRANCH  14  15
ENDBRANCH   8  14
ENDBRANCH   1   2
BRANCH   1  17
HETATM   17  C10 UNL     1      15.741 -15.781  20.769  1.00  0.00    -0.012 C
BRANCH  17  18
HETATM   18  C11 UNL     1      15.533 -16.974  21.612  1.00  0.00     0.047 C
BRANCH  18  19
HETATM   19  C12 UNL     1      16.685 -17.615  22.283  1.00  0.00     0.128 C
BRANCH  19  20
HETATM   20  N3  UNL     1      17.211 -16.797  23.386  1.00  0.00    -0.343 N
HETATM   21  C13 UNL     1      18.549 -16.502  23.614  1.00  0.00     0.316 C
HETATM   22  O4  UNL     1      19.448 -16.950  22.829  1.00  0.00    -0.247 OA
HETATM   23  N4  UNL     1      19.017 -15.715  24.683  1.00  0.00    -0.335 N
ATOM     24  H4  UNL     1      18.304 -15.343  25.311  1.00  0.00     0.165 HD
ATOM     25  H3  UNL     1      16.531 -16.412  24.043  1.00  0.00     0.164 HD
BRANCH  23  26
HETATM   26  C14 UNL     1      20.362 -15.375  24.995  1.00  0.00     0.023 C
HETATM   27  C15 UNL     1      21.294 -16.509  25.253  1.00  0.00     0.037 C
HETATM   28  C16 UNL     1      20.972 -14.508  23.900  1.00  0.00     0.037 C
HETATM   29  C17 UNL     1      20.343 -14.474  26.238  1.00  0.00     0.037 C
ENDBRANCH  23  26
ENDBRANCH  19  20
ENDBRANCH  18  19
ENDBRANCH  17  18
ENDBRANCH   1  17
BRANCH   1  30
HETATM   30  C18 UNL     1      14.456 -13.724  21.620  1.00  0.00     0.113 A
HETATM   31  N5  UNL     1      14.174 -12.411  21.567  1.00  0.00    -0.337 N
HETATM   32  C19 UNL     1      12.943 -12.112  21.954  1.00  0.00     0.133 A
ATOM     33  H5  UNL     1      14.845 -11.709  21.256  1.00  0.00     0.167 HD
HETATM   34  C21 UNL     1      12.365 -13.311  22.289  1.00  0.00     0.124 A
HETATM   35  N6  UNL     1      13.265 -14.257  22.089  1.00  0.00    -0.350 N
ATOM     36  H6  UNL     1      13.106 -15.249  22.258  1.00  0.00     0.166 HD
BRANCH  32  37
HETATM   37  C20 UNL     1      12.273 -10.767  22.025  1.00  0.00     0.433 C
HETATM   38  F2  UNL     1      11.230 -10.923  22.925  1.00  0.00    -0.165 F
HETATM   39  F3  UNL     1      13.181  -9.898  22.606  1.00  0.00    -0.165 F
HETATM   40  F4  UNL     1      11.816 -10.370  20.809  1.00  0.00    -0.165 F
ENDBRANCH  32  37
ENDBRANCH   1  30
TORSDOF 10
ENDMDL