MODEL 5
REMARK VINA RESULT: -8.371063201      2.689      7.424
REMARK  10 active torsions:
REMARK  status: ('A' for Active; 'I' for Inactive)
REMARK    1  A    between atoms: C5_5  and  C6_6
REMARK       I    between atoms: C6_6  and  N1_8
REMARK    2  A    between atoms: N1_8  and  C7_9
REMARK    3  A    between atoms: C7_9  and  C8_10
REMARK    4  A    between atoms: C11_14  and  C12_15
REMARK    5  A    between atoms: C12_15  and  C13_16
REMARK    6  A    between atoms: C13_16  and  C14_17
REMARK    7  A    between atoms: C13_16  and  N2_19
REMARK       I    between atoms: N2_19  and  C15_21
REMARK       I    between atoms: C15_21  and  N3_23
REMARK    8  A    between atoms: N3_23  and  C16_25
REMARK    9  A    between atoms: C20_29  and  O4_30
REMARK   10  A    between atoms: C22_33  and  C23_34
ROOT
HETATM    1  C8  UNL     1      17.055 -14.306  21.156  1.00  0.00     0.148 C
HETATM    2  F1  UNL     1      16.536 -13.931  22.378  1.00  0.00    -0.236 F
HETATM    3  C9  UNL     1      16.336 -13.811  19.964  1.00  0.00     0.051 C
HETATM    4  C10 UNL     1      15.548 -14.916  19.245  1.00  0.00     0.009 C
HETATM    5  C11 UNL     1      14.891 -15.826  20.237  1.00  0.00     0.004 C
HETATM    6  C22 UNL     1      15.887 -16.519  21.112  1.00  0.00     0.101 C
HETATM    7  C24 UNL     1      17.236 -15.812  21.143  1.00  0.00     0.064 C
ENDROOT
BRANCH   5   8
HETATM    8  C12 UNL     1      13.781 -16.691  19.771  1.00  0.00     0.065 C
BRANCH   8   9
HETATM    9  C13 UNL     1      12.435 -16.531  20.323  1.00  0.00     0.051 C
BRANCH   9  10
HETATM   10  C14 UNL     1      11.663 -17.852  20.334  1.00  0.00     0.283 C
HETATM   11  O2  UNL     1      12.169 -18.869  20.779  1.00  0.00    -0.300 OA
ENDBRANCH   9  10
BRANCH   9  12
HETATM   12  N2  UNL     1      12.172 -15.695  21.411  1.00  0.00    -0.310 N
HETATM   13  C15 UNL     1      12.207 -14.259  21.267  1.00  0.00     0.320 C
HETATM   14  O3  UNL     1      12.471 -13.699  20.198  1.00  0.00    -0.247 OA
HETATM   15  N3  UNL     1      11.916 -13.505  22.434  1.00  0.00    -0.338 N
ATOM     16  H3  UNL     1      11.717 -14.018  23.293  1.00  0.00     0.164 HD
ATOM     17  H2  UNL     1      11.952 -16.104  22.319  1.00  0.00     0.170 HD
BRANCH  15  18
HETATM   18  C16 UNL     1      11.882 -12.046  22.492  1.00  0.00     0.088 C
HETATM   19  C17 UNL     1      13.203 -11.495  22.094  1.00  0.00     0.025 C
HETATM   20  C18 UNL     1      13.286 -10.019  22.300  1.00  0.00     0.004 C
HETATM   21  C19 UNL     1      12.009  -9.429  22.856  1.00  0.00     0.032 C
HETATM   22  C20 UNL     1      11.685 -10.156  24.126  1.00  0.00     0.120 C
HETATM   23  C21 UNL     1      11.453 -11.610  23.883  1.00  0.00     0.057 C
BRANCH  22  24
HETATM   24  O4  UNL     1      10.523  -9.550  24.642  1.00  0.00    -0.396 OA
ATOM     25  H4  UNL     1      10.294 -10.037  25.425  1.00  0.00     0.210 HD
ENDBRANCH  22  24
ENDBRANCH  15  18
ENDBRANCH   9  12
ENDBRANCH   8   9
ENDBRANCH   5   8
BRANCH   6  26
HETATM   26  C23 UNL     1      16.149 -17.954  20.957  1.00  0.00     0.392 C
HETATM   27  F2  UNL     1      17.389 -18.157  21.626  1.00  0.00    -0.171 F
HETATM   28  F3  UNL     1      16.341 -18.439  19.710  1.00  0.00    -0.171 F
HETATM   29  F4  UNL     1      15.341 -18.814  21.689  1.00  0.00    -0.171 F
ENDBRANCH   6  26
BRANCH   1  30
HETATM   30  C7  UNL     1      18.470 -13.693  21.159  1.00  0.00     0.202 C
BRANCH  30  31
HETATM   31  N1  UNL     1      19.353 -14.159  22.017  1.00  0.00    -0.384 NA
HETATM   32  C6  UNL     1      20.291 -14.654  22.925  1.00  0.00     0.295 C
HETATM   33  O1  UNL     1      21.146 -15.542  22.786  1.00  0.00    -0.257 OA
BRANCH  32  34
HETATM   34  C5  UNL     1      20.243 -14.011  24.297  1.00  0.00     0.101 A
HETATM   35  C2  UNL     1      20.732 -14.634  25.515  1.00  0.00    -0.034 A
HETATM   36  C1  UNL     1      21.695 -15.768  25.553  1.00  0.00     0.016 C
HETATM   37  C3  UNL     1      20.880 -13.688  26.728  1.00  0.00     0.016 C
HETATM   38  C4  UNL     1      19.297 -14.882  25.184  1.00  0.00     0.025 A
ENDBRANCH  32  34
ENDBRANCH  30  31
ENDBRANCH   1  30
TORSDOF 10
ENDMDL