MODEL 2
REMARK VINA RESULT: -8.648045485      2.745      7.574
REMARK  9 active torsions:
REMARK  status: ('A' for Active; 'I' for Inactive)
REMARK       I    between atoms: C1_2  and  N1_3
REMARK    1  A    between atoms: C1_2  and  C20_32
REMARK    2  A    between atoms: N1_3  and  C2_5
REMARK    3  A    between atoms: C2_5  and  C3_6
REMARK    4  A    between atoms: C2_5  and  C14_26
REMARK       I    between atoms: C3_6  and  N2_8
REMARK    5  A    between atoms: N2_8  and  C4_10
REMARK    6  A    between atoms: C4_10  and  C5_11
REMARK    7  A    between atoms: C4_10  and  C7_16
REMARK    8  A    between atoms: C5_11  and  C6_12
REMARK       I    between atoms: C7_16  and  N3_18
REMARK    9  A    between atoms: N3_18  and  C8_20
ROOT
HETATM    1  C3  UNL     1      16.316 -14.014  20.246  1.00  0.00     0.241 C
HETATM    2  O2  UNL     1      16.783 -12.935  20.704  1.00  0.00    -0.271 OA
HETATM    3  N2  UNL     1      15.477 -13.977  19.111  1.00  0.00    -0.346 N
ATOM      4  H2  UNL     1      15.107 -14.858  18.752  1.00  0.00     0.163 HD
ENDROOT
BRANCH   1   5
HETATM    5  C2  UNL     1      16.693 -15.260  20.948  1.00  0.00     0.181 C
BRANCH   5   6
HETATM    6  N1  UNL     1      17.239 -15.036  22.244  1.00  0.00    -0.342 N
HETATM    7  C1  UNL     1      18.623 -15.185  22.529  1.00  0.00     0.272 C
HETATM    8  O1  UNL     1      19.374 -15.534  21.559  1.00  0.00    -0.266 OA
ATOM      9  H1  UNL     1      16.611 -14.758  22.998  1.00  0.00     0.163 HD
BRANCH   7  10
HETATM   10  C20 UNL     1      19.179 -14.956  23.856  1.00  0.00     0.139 A
HETATM   11  N4  UNL     1      20.130 -14.039  24.086  1.00  0.00    -0.359 N
HETATM   12  C21 UNL     1      20.645 -13.827  25.331  1.00  0.00     0.089 A
ATOM     13  H4  UNL     1      20.479 -13.483  23.306  1.00  0.00     0.165 HD
HETATM   14  C22 UNL     1      20.208 -14.554  26.417  1.00  0.00     0.020 A
HETATM   15  C23 UNL     1      19.235 -15.497  26.199  1.00  0.00     0.046 A
HETATM   16  C24 UNL     1      18.729 -15.691  24.928  1.00  0.00     0.148 A
HETATM   17  F4  UNL     1      17.769 -16.643  24.800  1.00  0.00    -0.203 F
ENDBRANCH   7  10
ENDBRANCH   5   6
BRANCH   5  18
HETATM   18  C14 UNL     1      15.541 -16.229  20.929  1.00  0.00     0.018 C
HETATM   19  C15 UNL     1      15.882 -17.495  21.665  1.00  0.00     0.007 C
HETATM   20  C16 UNL     1      14.700 -18.293  22.090  1.00  0.00     0.000 C
HETATM   21  C17 UNL     1      13.421 -18.010  21.406  1.00  0.00     0.000 C
HETATM   22  C18 UNL     1      13.175 -16.612  20.990  1.00  0.00     0.000 C
HETATM   23  C19 UNL     1      14.273 -15.678  21.519  1.00  0.00     0.007 C
ENDBRANCH   5  18
ENDBRANCH   1   5
BRANCH   3  24
HETATM   24  C4  UNL     1      15.120 -12.768  18.441  1.00  0.00     0.185 C
BRANCH  24  25
HETATM   25  C5  UNL     1      14.897 -12.879  16.972  1.00  0.00     0.152 C
BRANCH  25  26
HETATM   26  C6  UNL     1      16.019 -12.443  16.098  1.00  0.00     0.390 C
HETATM   27  F1  UNL     1      17.103 -12.170  16.950  1.00  0.00    -0.171 F
HETATM   28  F2  UNL     1      16.439 -13.372  15.175  1.00  0.00    -0.171 F
HETATM   29  F3  UNL     1      15.759 -11.266  15.433  1.00  0.00    -0.171 F
ENDBRANCH  25  26
ENDBRANCH  24  25
BRANCH  24  30
HETATM   30  C7  UNL     1      13.982 -12.104  19.110  1.00  0.00     0.241 C
HETATM   31  O3  UNL     1      13.187 -11.411  18.419  1.00  0.00    -0.271 OA
HETATM   32  N3  UNL     1      13.723 -12.199  20.503  1.00  0.00    -0.355 N
ATOM     33  H3  UNL     1      14.361 -12.758  21.069  1.00  0.00     0.162 HD
BRANCH  32  34
HETATM   34  C8  UNL     1      12.629 -11.565  21.162  1.00  0.00     0.084 C
HETATM   35  C9  UNL     1      13.106 -10.641  22.291  1.00  0.00     0.025 C
HETATM   36  C10 UNL     1      11.824 -10.224  23.023  1.00  0.00     0.002 C
HETATM   37  C11 UNL     1      11.490 -11.416  23.930  1.00  0.00     0.000 C
HETATM   38  C12 UNL     1      11.614 -12.711  23.160  1.00  0.00     0.002 C
HETATM   39  C13 UNL     1      11.570 -12.487  21.666  1.00  0.00     0.025 C
ENDBRANCH  32  34
ENDBRANCH  24  30
ENDBRANCH   3  24
TORSDOF 9
ENDMDL