MODEL 5
REMARK VINA RESULT: -7.355672221      2.138      3.449
REMARK  10 active torsions:
REMARK  status: ('A' for Active; 'I' for Inactive)
REMARK    1  A    between atoms: C2_2  and  C4_4
REMARK    2  A    between atoms: C6_6  and  N2_9
REMARK       I    between atoms: N2_9  and  C8_11
REMARK    3  A    between atoms: C8_11  and  C9_13
REMARK    4  A    between atoms: C9_13  and  N3_14
REMARK    5  A    between atoms: C9_13  and  C22_36
REMARK       I    between atoms: N3_14  and  C10_16
REMARK       I    between atoms: C10_16  and  N4_18
REMARK    6  A    between atoms: N4_18  and  C11_20
REMARK    7  A    between atoms: C11_20  and  C14_23
REMARK    8  A    between atoms: C14_23  and  C15_24
REMARK    9  A    between atoms: C14_23  and  C16_27
REMARK   10  A    between atoms: C14_23  and  C21_32
ROOT
HETATM    1  C4  UNL     1      14.165 -12.189  21.340  1.00  0.00     0.035 A
HETATM    2  C5  UNL     1      15.668 -12.039  20.988  1.00  0.00     0.055 A
HETATM    3  C6  UNL     1      14.723 -12.970  20.261  1.00  0.00     0.126 A
HETATM    4  C7  UNL     1      14.399 -12.608  18.856  1.00  0.00     0.091 C
HETATM    5  N1  UNL     1      14.155 -12.348  17.750  1.00  0.00    -0.195 NA
ENDROOT
BRANCH   3   6
HETATM    6  N2  UNL     1      14.822 -14.388  20.451  1.00  0.00    -0.337 N
HETATM    7  C8  UNL     1      13.760 -15.258  20.706  1.00  0.00     0.242 C
HETATM    8  O1  UNL     1      12.550 -14.951  20.808  1.00  0.00    -0.271 OA
ATOM      9  H2  UNL     1      15.754 -14.799  20.396  1.00  0.00     0.164 HD
BRANCH   7  10
HETATM   10  C9  UNL     1      14.069 -16.736  20.887  1.00  0.00     0.182 C
BRANCH  10  11
HETATM   11  N3  UNL     1      14.884 -16.969  22.049  1.00  0.00    -0.329 N
HETATM   12  C10 UNL     1      16.326 -17.047  21.946  1.00  0.00     0.317 C
HETATM   13  O2  UNL     1      16.787 -16.900  20.795  1.00  0.00    -0.247 OA
HETATM   14  N4  UNL     1      17.076 -17.272  23.086  1.00  0.00    -0.333 N
ATOM     15  H4  UNL     1      16.516 -17.412  23.926  1.00  0.00     0.165 HD
ATOM     16  H3  UNL     1      14.439 -17.081  22.960  1.00  0.00     0.165 HD
BRANCH  14  17
HETATM   17  C11 UNL     1      18.497 -17.347  23.314  1.00  0.00     0.053 C
HETATM   18  C12 UNL     1      18.564 -18.253  24.597  1.00  0.00     0.039 C
HETATM   19  C13 UNL     1      19.079 -18.182  22.241  1.00  0.00     0.039 C
BRANCH  17  20
HETATM   20  C14 UNL     1      19.186 -16.052  23.647  1.00  0.00     0.177 C
BRANCH  20  21
HETATM   21  C15 UNL     1      20.658 -16.431  23.926  1.00  0.00     0.319 C
HETATM   22  O3  UNL     1      21.402 -16.849  23.072  1.00  0.00    -0.259 OA
HETATM   23  F1  UNL     1      21.204 -16.315  25.152  1.00  0.00    -0.163 F
ENDBRANCH  20  21
BRANCH  20  24
HETATM   24  C16 UNL     1      19.305 -15.210  22.423  1.00  0.00     0.016 C
HETATM   25  C17 UNL     1      20.618 -14.457  22.264  1.00  0.00     0.006 C
HETATM   26  C18 UNL     1      20.335 -13.819  20.905  1.00  0.00     0.000 C
HETATM   27  C19 UNL     1      19.032 -13.640  20.786  1.00  0.00     0.000 C
HETATM   28  C20 UNL     1      18.366 -14.156  22.072  1.00  0.00     0.006 C
ENDBRANCH  20  24
BRANCH  20  29
HETATM   29  C21 UNL     1      18.780 -15.338  24.865  1.00  0.00     0.407 C
HETATM   30  F2  UNL     1      18.727 -15.997  26.035  1.00  0.00    -0.170 F
HETATM   31  F3  UNL     1      17.519 -14.708  24.608  1.00  0.00    -0.170 F
HETATM   32  F4  UNL     1      19.546 -14.170  25.065  1.00  0.00    -0.170 F
ENDBRANCH  20  29
ENDBRANCH  17  20
ENDBRANCH  14  17
ENDBRANCH  10  11
BRANCH  10  33
HETATM   33  C22 UNL     1      12.716 -17.435  20.999  1.00  0.00     0.018 A
HETATM   34  C23 UNL     1      12.774 -18.923  21.004  1.00  0.00     0.007 A
HETATM   35  C24 UNL     1      12.138 -18.136  19.841  1.00  0.00     0.007 A
ENDBRANCH  10  33
ENDBRANCH   7  10
ENDBRANCH   3   6
BRANCH   1  36
HETATM   36  C2  UNL     1      13.410 -10.934  21.341  1.00  0.00    -0.015 C
HETATM   37  C1  UNL     1      12.016 -11.250  20.770  1.00  0.00     0.010 C
HETATM   38  C3  UNL     1      13.179 -10.225  22.615  1.00  0.00     0.010 C
ENDBRANCH   1  36
TORSDOF 10
ENDMDL