MODEL 1
REMARK VINA RESULT: -9.763282180      0.000      0.000
REMARK  6 active torsions:
REMARK  status: ('A' for Active; 'I' for Inactive)
REMARK    1  A    between atoms: C3_4  and  N1_5
REMARK    2  A    between atoms: N1_5  and  C4_7
REMARK    3  A    between atoms: C6_11  and  C7_12
REMARK    4  A    between atoms: C10_17  and  O1_18
REMARK    5  A    between atoms: O1_18  and  C11_19
REMARK    6  A    between atoms: C19_32  and  C20_33
ROOT
HETATM    1  C4  UNL     1      29.137   2.147   5.338  1.00  0.00     0.158 A
HETATM    2  N2  UNL     1      29.380   1.784   4.066  1.00  0.00    -0.347 N
ATOM      3  H2  UNL     1      29.465   2.491   3.335  1.00  0.00     0.167 HD
HETATM    4  C5  UNL     1      29.506   0.492   3.770  1.00  0.00     0.115 A
HETATM    5  C6  UNL     1      29.390  -0.459   4.760  1.00  0.00     0.031 A
HETATM    6  N3  UNL     1      29.147  -0.066   6.027  1.00  0.00    -0.336 N
ATOM      7  H3  UNL     1      29.062  -0.776   6.754  1.00  0.00     0.168 HD
HETATM    8  C10 UNL     1      29.013   1.233   6.365  1.00  0.00     0.188 A
ENDROOT
BRANCH   1   9
HETATM    9  N1  UNL     1      29.021   3.391   5.587  1.00  0.00    -0.338 N
ATOM     10  H1  UNL     1      29.786   3.846   6.085  1.00  0.00     0.167 HD
BRANCH   9  11
HETATM   11  C3  UNL     1      27.916   4.185   5.224  1.00  0.00     0.052 A
HETATM   12  C2  UNL     1      26.662   3.642   5.349  1.00  0.00     0.075 A
HETATM   13  C1  UNL     1      25.573   4.409   4.998  1.00  0.00     0.146 A
HETATM   14  F1  UNL     1      24.327   3.884   5.117  1.00  0.00    -0.204 F
HETATM   15  C19 UNL     1      25.763   5.691   4.536  1.00  0.00     0.113 A
HETATM   16  N5  UNL     1      27.007   6.184   4.429  1.00  0.00    -0.360 N
HETATM   17  C18 UNL     1      28.082   5.460   4.763  1.00  0.00     0.117 A
ATOM     18  H5  UNL     1      27.136   7.136   4.085  1.00  0.00     0.165 HD
BRANCH  15  19
HETATM   19  C20 UNL     1      24.576   6.531   4.153  1.00  0.00     0.406 C
HETATM   20  F4  UNL     1      24.951   7.379   3.151  1.00  0.00    -0.207 F
HETATM   21  F5  UNL     1      24.231   7.277   5.279  1.00  0.00    -0.207 F
ENDBRANCH  15  19
ENDBRANCH   9  11
ENDBRANCH   1   9
BRANCH   8  22
HETATM   22  O1  UNL     1      28.768   1.700   7.618  1.00  0.00    -0.326 OA
BRANCH  22  23
HETATM   23  C11 UNL     1      29.481   1.530   8.777  1.00  0.00     0.164 C
HETATM   24  C12 UNL     1      28.540   1.854   9.947  1.00  0.00     0.305 C
HETATM   25  N4  UNL     1      28.724   0.825  10.913  1.00  0.00     0.101 N
HETATM   26  C13 UNL     1      28.515   1.110  12.291  1.00  0.00     0.275 C
HETATM   27  C15 UNL     1      30.174   0.864  11.205  1.00  0.00     0.296 C
HETATM   28  C14 UNL     1      29.839   0.367  12.555  1.00  0.00     0.072 C
HETATM   29  C16 UNL     1      30.792  -0.051  10.211  1.00  0.00     0.276 C
HETATM   30  F2  UNL     1      32.148   0.242  10.049  1.00  0.00    -0.204 F
HETATM   31  F3  UNL     1      30.720  -1.362  10.627  1.00  0.00    -0.204 F
HETATM   32  C17 UNL     1      30.047   0.131   8.901  1.00  0.00     0.115 C
ENDBRANCH  22  23
ENDBRANCH   8  22
BRANCH   5  33
HETATM   33  C7  UNL     1      29.540  -1.890   4.381  1.00  0.00     0.037 A
HETATM   34  C8  UNL     1      30.903  -2.465   4.256  1.00  0.00     0.011 A
HETATM   35  C9  UNL     1      30.051  -2.191   3.041  1.00  0.00     0.011 A
ENDBRANCH   5  33
TORSDOF 6
ENDMDL