MODEL 5
REMARK VINA RESULT: -6.095473016      1.506      1.764
REMARK  6 active torsions:
REMARK  status: ('A' for Active; 'I' for Inactive)
REMARK    1  A    between atoms: C2_2  and  C3_3
REMARK    2  A    between atoms: C5_5  and  N1_6
REMARK       I    between atoms: N1_6  and  C6_8
REMARK    3  A    between atoms: C6_8  and  C7_10
REMARK    4  A    between atoms: N2_15  and  C10_16
REMARK    5  A    between atoms: C10_16  and  N3_17
REMARK    6  A    between atoms: C13_21  and  O2_22
ROOT
HETATM    1  C3  UNL     1      28.752   0.180   3.847  1.00  0.00    -0.009 C
HETATM    2  C4  UNL     1      28.422  -0.557   5.128  1.00  0.00     0.077 C
HETATM    3  C5  UNL     1      28.490   0.358   6.328  1.00  0.00     0.091 C
HETATM    4  C8  UNL     1      27.927   1.717   6.070  1.00  0.00     0.045 C
HETATM    5  C9  UNL     1      28.476   2.285   4.781  1.00  0.00     0.131 C
HETATM    6  N2  UNL     1      28.126   1.392   3.660  1.00  0.00    -0.350 N
ENDROOT
BRANCH   6   7
HETATM    7  C10 UNL     1      26.810   1.647   3.345  1.00  0.00     0.193 C
BRANCH   7   8
HETATM    8  N3  UNL     1      26.139   2.827   3.795  1.00  0.00    -0.282 N
HETATM    9  C11 UNL     1      26.776   4.000   3.838  1.00  0.00     0.128 A
HETATM   10  C12 UNL     1      26.139   5.129   4.251  1.00  0.00     0.085 A
HETATM   11 CL3  UNL     1      26.918   6.702   4.330  1.00  0.00    -0.080 Cl
HETATM   12  C13 UNL     1      24.832   5.078   4.630  1.00  0.00     0.116 A
HETATM   13  C14 UNL     1      24.157   3.889   4.596  1.00  0.00     0.137 A
HETATM   14 CL4  UNL     1      22.470   3.798   5.080  1.00  0.00    -0.075 Cl
HETATM   15  C15 UNL     1      24.857   2.755   4.164  1.00  0.00     0.277 A
HETATM   16  O3  UNL     1      24.165   1.704   4.165  1.00  0.00    -0.266 OA
BRANCH  12  17
HETATM   17  O2  UNL     1      24.150   6.231   5.061  1.00  0.00    -0.357 OA
ATOM     18  H2  UNL     1      23.274   6.179   5.426  1.00  0.00     0.217 HD
ENDBRANCH  12  17
ENDBRANCH   7   8
ENDBRANCH   6   7
BRANCH   1  19
HETATM   19  C2  UNL     1      28.874  -0.815   2.750  1.00  0.00     0.048 C
HETATM   20  C1  UNL     1      29.740  -1.969   3.317  1.00  0.00     0.011 C
ENDBRANCH   1  19
BRANCH   3  21
HETATM   21  N1  UNL     1      29.822   0.473   6.859  1.00  0.00    -0.354 N
HETATM   22  C6  UNL     1      30.076   0.876   8.198  1.00  0.00     0.251 C
HETATM   23  O1  UNL     1      29.135   1.156   8.999  1.00  0.00    -0.271 OA
ATOM     24  H1  UNL     1      30.614   0.259   6.252  1.00  0.00     0.162 HD
BRANCH  22  25
HETATM   25  C7  UNL     1      31.462   0.980   8.697  1.00  0.00     0.269 C
HETATM   26 CL1  UNL     1      31.641   0.164  10.266  1.00  0.00    -0.098 Cl
HETATM   27 CL2  UNL     1      32.585   0.223   7.562  1.00  0.00    -0.098 Cl
ENDBRANCH  22  25
ENDBRANCH   3  21
TORSDOF 6
ENDMDL