MODEL 5
REMARK VINA RESULT: -7.951302301      3.357      8.184
REMARK  6 active torsions:
REMARK  status: ('A' for Active; 'I' for Inactive)
REMARK    1  A    between atoms: N1_1  and  C1_4
REMARK    2  A    between atoms: C2_7  and  N3_8
REMARK    3  A    between atoms: C8_16  and  C9_17
REMARK    4  A    between atoms: C9_17  and  N4_18
REMARK    5  A    between atoms: C12_21  and  C13_22
REMARK    6  A    between atoms: C13_22  and  C14_23
ROOT
HETATM    1  C1  UNL     1      26.389   1.538   3.241  1.00  0.00     0.678 A
HETATM    2  N2  UNL     1      25.851   2.767   3.495  1.00  0.00    -0.174 N
ATOM      3  H2  UNL     1      24.900   2.975   3.190  1.00  0.00     0.186 HD
HETATM    4  C2  UNL     1      26.560   3.701   4.139  1.00  0.00     0.160 A
HETATM    5  C7  UNL     1      27.830   3.398   4.536  1.00  0.00     0.189 A
HETATM    6  F1  UNL     1      28.542   4.346   5.188  1.00  0.00    -0.200 F
HETATM    7  C8  UNL     1      28.414   2.141   4.289  1.00  0.00     0.106 A
HETATM    8  N5  UNL     1      27.648   1.257   3.642  1.00  0.00    -0.188 N
ATOM      9  H5  UNL     1      28.030   0.332   3.443  1.00  0.00     0.184 HD
ENDROOT
BRANCH   7  10
HETATM   10  C9  UNL     1      29.764   1.872   4.748  1.00  0.00     0.119 C
BRANCH  10  11
HETATM   11  N4  UNL     1      29.966   1.307   6.024  1.00  0.00    -0.388 N
HETATM   12  C10 UNL     1      28.985   1.531   7.013  1.00  0.00     0.122 C
HETATM   13  C11 UNL     1      29.502   1.071   8.364  1.00  0.00     0.024 C
HETATM   14  C12 UNL     1      30.140  -0.324   8.169  1.00  0.00    -0.007 C
HETATM   15  C20 UNL     1      31.403  -0.067   7.416  1.00  0.00     0.024 C
HETATM   16  C21 UNL     1      31.288   1.107   6.437  1.00  0.00     0.122 C
BRANCH  14  17
HETATM   17  C13 UNL     1      30.292  -0.905   9.538  1.00  0.00     0.046 C
BRANCH  17  18
HETATM   18  C14 UNL     1      30.283  -0.004  10.673  1.00  0.00    -0.016 A
HETATM   19  C15 UNL     1      29.089   0.115  11.402  1.00  0.00     0.055 A
HETATM   20  C16 UNL     1      28.964   0.917  12.509  1.00  0.00     0.155 A
HETATM   21  F2  UNL     1      27.788   1.010  13.198  1.00  0.00    -0.203 F
HETATM   22  C17 UNL     1      30.064   1.657  12.942  1.00  0.00     0.157 A
HETATM   23  F3  UNL     1      29.914   2.440  14.039  1.00  0.00    -0.203 F
HETATM   24  C18 UNL     1      31.222   1.552  12.246  1.00  0.00     0.088 A
HETATM   25  C19 UNL     1      31.339   0.725  11.111  1.00  0.00     0.125 A
HETATM   26  F4  UNL     1      32.555   0.773  10.526  1.00  0.00    -0.205 F
ENDBRANCH  17  18
ENDBRANCH  14  17
ENDBRANCH  10  11
ENDBRANCH   7  10
BRANCH   4  27
HETATM   27  N3  UNL     1      25.965   4.955   4.377  1.00  0.00    -0.360 N
HETATM   28  C3  UNL     1      24.827   4.977   5.292  1.00  0.00     0.151 C
HETATM   29  C4  UNL     1      23.792   5.996   4.801  1.00  0.00     0.187 C
HETATM   30  O1  UNL     1      24.469   7.209   4.767  1.00  0.00    -0.388 OA
HETATM   31  C5  UNL     1      25.302   7.198   3.651  1.00  0.00     0.187 C
HETATM   32  C6  UNL     1      26.420   6.181   3.766  1.00  0.00     0.151 C
ENDBRANCH   4  27
BRANCH   1  33
HETATM   33  N1  UNL     1      25.710   0.640   2.616  1.00  0.00    -0.234 N
ATOM     34  H12 UNL     1      25.901   0.468   1.629  1.00  0.00     0.174 HD
ATOM     35  H11 UNL     1      24.986   0.106   3.097  1.00  0.00     0.174 HD
ENDBRANCH   1  33
TORSDOF 6
ENDMDL