MODEL 4
REMARK VINA RESULT: -6.274293164      5.031      7.744
REMARK  7 active torsions:
REMARK  status: ('A' for Active; 'I' for Inactive)
REMARK    1  A    between atoms: C2_2  and  C3_3
REMARK    2  A    between atoms: C3_3  and  N1_4
REMARK    3  A    between atoms: N2_12  and  C10_13
REMARK    4  A    between atoms: C12_15  and  O1_16
REMARK    5  A    between atoms: O1_16  and  C13_17
REMARK       I    between atoms: C13_17  and  N3_19
REMARK    6  A    between atoms: N3_19  and  C14_21
REMARK    7  A    between atoms: C14_21  and  C15_22
ROOT
HETATM    1  N1  UNL     1      25.977   2.871   4.131  1.00  0.00     0.105 N
HETATM    2  C4  UNL     1      25.200   4.128   3.957  1.00  0.00     0.294 C
HETATM    3  C5  UNL     1      26.078   5.064   3.200  1.00  0.00     0.113 C
HETATM    4 CL1  UNL     1      25.744   6.762   3.599  1.00  0.00    -0.123 Cl
HETATM    5  C6  UNL     1      27.449   4.733   3.724  1.00  0.00     0.070 C
HETATM    6  C7  UNL     1      27.279   3.341   4.338  1.00  0.00     0.201 C
HETATM    7  C8  UNL     1      28.425   2.524   3.786  1.00  0.00     0.068 C
HETATM    8  C9  UNL     1      28.902   1.526   4.835  1.00  0.00     0.120 C
HETATM    9  N2  UNL     1      29.709   2.271   5.784  1.00  0.00    -0.403 N
HETATM   10  C17 UNL     1      29.061   3.484   6.199  1.00  0.00     0.172 C
HETATM   11  C18 UNL     1      27.599   3.426   5.817  1.00  0.00     0.037 C
HETATM   12  N4  UNL     1      26.749   3.448   6.714  1.00  0.00    -0.402 N
ATOM     13  H41 UNL     1      26.965   3.505   7.709  1.00  0.00     0.155 HD
ATOM     14  H42 UNL     1      25.763   3.409   6.456  1.00  0.00     0.155 HD
ENDROOT
BRANCH   9  15
HETATM   15  C10 UNL     1      30.334   1.484   6.749  1.00  0.00     0.084 C
HETATM   16  C11 UNL     1      31.760   1.023   6.568  1.00  0.00     0.057 C
HETATM   17  C12 UNL     1      31.390  -0.158   7.493  1.00  0.00     0.137 C
HETATM   18  C16 UNL     1      29.943   0.078   6.964  1.00  0.00     0.057 C
BRANCH  17  19
HETATM   19  O1  UNL     1      31.494   0.146   8.846  1.00  0.00    -0.298 OA
BRANCH  19  20
HETATM   20  C13 UNL     1      30.437  -0.060   9.725  1.00  0.00     0.361 C
HETATM   21  O2  UNL     1      30.087  -1.221  10.022  1.00  0.00    -0.239 OA
HETATM   22  N3  UNL     1      29.761   1.055  10.274  1.00  0.00    -0.328 N
ATOM     23  H3  UNL     1      30.103   1.973   9.993  1.00  0.00     0.165 HD
BRANCH  22  24
HETATM   24  C14 UNL     1      28.664   1.044  11.166  1.00  0.00     0.242 C
BRANCH  24  25
HETATM   25  C15 UNL     1      28.931   0.923  12.620  1.00  0.00     0.403 C
HETATM   26  F1  UNL     1      29.317  -0.406  12.851  1.00  0.00    -0.169 F
HETATM   27  F2  UNL     1      29.843   1.751  13.157  1.00  0.00    -0.169 F
HETATM   28  F3  UNL     1      27.731   1.094  13.352  1.00  0.00    -0.169 F
ENDBRANCH  24  25
ENDBRANCH  22  24
ENDBRANCH  19  20
ENDBRANCH  17  19
ENDBRANCH   9  15
BRANCH   1  29
HETATM   29  C3  UNL     1      25.644   2.080   3.011  1.00  0.00     0.273 C
BRANCH  29  30
HETATM   30  C2  UNL     1      25.155   0.700   3.177  1.00  0.00     0.026 C
HETATM   31  C1  UNL     1      25.645   0.038   4.455  1.00  0.00     0.007 C
ENDBRANCH  29  30
ENDBRANCH   1  29
TORSDOF 7
ENDMDL