MODEL 1
REMARK VINA RESULT: -8.714807772      0.000      0.000
REMARK  5 active torsions:
REMARK  status: ('A' for Active; 'I' for Inactive)
REMARK    1  A    between atoms: C2_3  and  N1_4
REMARK    2  A    between atoms: C5_7  and  C6_8
REMARK    3  A    between atoms: C6_8  and  N2_9
REMARK    4  A    between atoms: N2_9  and  C7_12
REMARK    5  A    between atoms: C15_26  and  N5_27
ROOT
HETATM    1  F1  UNL     1      28.812   0.930   8.323  1.00  0.00    -0.198 F
HETATM    2  C1  UNL     1      30.023   0.763   7.776  1.00  0.00     0.203 A
HETATM    3  C2  UNL     1      30.226   1.126   6.461  1.00  0.00     0.147 A
HETATM    4  N3  UNL     1      31.509   0.939   6.000  1.00  0.00    -0.336 N
ATOM      5  H3  UNL     1      31.714   1.192   5.034  1.00  0.00     0.168 HD
HETATM    6  C14 UNL     1      32.492   0.448   6.739  1.00  0.00     0.183 A
HETATM    7  N4  UNL     1      32.258   0.109   8.000  1.00  0.00    -0.336 N
ATOM      8  H4  UNL     1      33.023  -0.268   8.560  1.00  0.00     0.168 HD
HETATM    9  C15 UNL     1      31.019   0.249   8.575  1.00  0.00     0.149 A
ENDROOT
BRANCH   3  10
HETATM   10  N1  UNL     1      29.265   1.616   5.564  1.00  0.00    -0.365 N
HETATM   11  C3  UNL     1      28.133   2.394   6.135  1.00  0.00     0.125 C
HETATM   12  C4  UNL     1      26.870   1.677   5.772  1.00  0.00     0.026 C
HETATM   13  C5  UNL     1      26.695   1.358   4.328  1.00  0.00     0.014 C
HETATM   14  C12 UNL     1      27.958   0.801   3.718  1.00  0.00     0.026 C
HETATM   15  C13 UNL     1      29.218   1.514   4.135  1.00  0.00     0.125 C
BRANCH  13  16
HETATM   16  C6  UNL     1      26.162   2.553   3.556  1.00  0.00     0.237 C
BRANCH  16  17
HETATM   17  N2  UNL     1      24.968   3.076   4.186  1.00  0.00    -0.070 N
ATOM     18  H22 UNL     1      24.196   3.123   3.521  1.00  0.00     0.277 HD
ATOM     19  H21 UNL     1      24.580   2.402   4.846  1.00  0.00     0.277 HD
BRANCH  17  20
HETATM   20  C7  UNL     1      25.176   4.354   4.821  1.00  0.00     0.191 C
HETATM   21  C8  UNL     1      26.482   4.985   4.487  1.00  0.00     0.039 C
HETATM   22  C9  UNL     1      26.171   6.382   3.993  1.00  0.00     0.081 C
HETATM   23  C10 UNL     1      24.730   6.631   4.302  1.00  0.00     0.245 C
HETATM   24  F2  UNL     1      24.594   7.332   5.476  1.00  0.00    -0.206 F
HETATM   25  F3  UNL     1      24.106   7.341   3.265  1.00  0.00    -0.206 F
HETATM   26  C11 UNL     1      24.095   5.294   4.413  1.00  0.00     0.112 C
ENDBRANCH  17  20
ENDBRANCH  16  17
ENDBRANCH  13  16
ENDBRANCH   3  10
BRANCH   9  27
HETATM   27  N5  UNL     1      30.873  -0.129   9.926  1.00  0.00    -0.332 N
HETATM   28  C16 UNL     1      31.809   0.380  10.886  1.00  0.00     0.155 C
HETATM   29  C17 UNL     1      31.273   1.749  11.327  1.00  0.00     0.252 C
HETATM   30  N6  UNL     1      30.184   1.529  12.233  1.00  0.00    -0.073 N
HETATM   31  C18 UNL     1      29.005   0.981  11.607  1.00  0.00     0.237 C
ATOM     32  H62 UNL     1      30.480   0.944  13.015  1.00  0.00     0.277 HD
ATOM     33  H61 UNL     1      29.957   2.386  12.738  1.00  0.00     0.277 HD
HETATM   34  C19 UNL     1      29.026  -0.518  11.485  1.00  0.00     0.086 C
HETATM   35  C20 UNL     1      29.756  -1.008  10.252  1.00  0.00     0.274 C
HETATM   36  F4  UNL     1      30.268  -2.255  10.504  1.00  0.00    -0.227 F
ENDBRANCH   9  27
TORSDOF 5
ENDMDL