MODEL 2
REMARK VINA RESULT: -7.675141282      0.665      1.367
REMARK  6 active torsions:
REMARK  status: ('A' for Active; 'I' for Inactive)
REMARK    1  A    between atoms: C1_2  and  C2_4
REMARK       I    between atoms: N1_8  and  C6_9
REMARK    2  A    between atoms: C6_9  and  C7_11
REMARK    3  A    between atoms: N3_16  and  C9_17
REMARK    4  A    between atoms: C9_17  and  C10_18
REMARK    5  A    between atoms: C16_26  and  C17_27
REMARK    6  A    between atoms: C17_27  and  O4_28
ROOT
HETATM    1  C7  UNL     1      28.260   1.584   5.415  1.00  0.00     0.098 A
HETATM    2  C8  UNL     1      27.829   0.276   5.446  1.00  0.00     0.136 A
HETATM    3 CL1  UNL     1      26.575  -0.488   4.490  1.00  0.00    -0.062 Cl
HETATM    4  N2  UNL     1      28.577  -0.331   6.380  1.00  0.00    -0.287 N
ATOM      5  H2  UNL     1      28.498  -1.314   6.639  1.00  0.00     0.188 HD
HETATM    6  N3  UNL     1      29.445   0.537   6.926  1.00  0.00    -0.292 N
HETATM    7  C16 UNL     1      29.287   1.731   6.362  1.00  0.00     0.070 A
ENDROOT
BRANCH   1   8
HETATM    8  C6  UNL     1      27.711   2.598   4.534  1.00  0.00     0.259 C
HETATM    9  N1  UNL     1      26.562   3.368   4.921  1.00  0.00    -0.333 N
HETATM   10  C2  UNL     1      25.889   4.403   4.185  1.00  0.00     0.188 C
HETATM   11  C5  UNL     1      25.861   3.219   6.179  1.00  0.00     0.127 C
HETATM   12  C3  UNL     1      24.427   4.231   4.521  1.00  0.00     0.038 C
HETATM   13  C4  UNL     1      24.433   3.473   5.823  1.00  0.00     0.022 C
HETATM   14  O3  UNL     1      28.208   2.846   3.407  1.00  0.00    -0.267 OA
BRANCH  10  15
HETATM   15  C1  UNL     1      26.339   5.724   4.682  1.00  0.00     0.196 C
HETATM   16  O1  UNL     1      27.540   6.085   4.756  1.00  0.00    -0.646 OA
HETATM   17  O2  UNL     1      25.377   6.634   5.096  1.00  0.00    -0.646 OA
ENDBRANCH  10  15
ENDBRANCH   1   8
BRANCH   7  18
HETATM   18  C17 UNL     1      29.953   3.019   6.564  1.00  0.00     0.224 C
BRANCH  18  19
HETATM   19  O4  UNL     1      31.172   3.119   5.921  1.00  0.00    -0.395 OA
ATOM     20  H4  UNL     1      31.169   3.727   5.192  1.00  0.00     0.209 HD
ENDBRANCH  18  19
ENDBRANCH   7  18
BRANCH   6  21
HETATM   21  C9  UNL     1      30.367   0.123   7.952  1.00  0.00     0.153 C
BRANCH  21  22
HETATM   22  C10 UNL     1      29.707  -0.292   9.247  1.00  0.00     0.006 C
HETATM   23  C11 UNL     1      28.895   0.851   9.823  1.00  0.00     0.012 C
HETATM   24  C12 UNL     1      29.709   1.817  10.617  1.00  0.00     0.079 C
HETATM   25  C13 UNL     1      30.676   1.180  11.573  1.00  0.00     0.243 C
HETATM   26  F1  UNL     1      30.018   0.520  12.600  1.00  0.00    -0.206 F
HETATM   27  F2  UNL     1      31.509   2.168  12.063  1.00  0.00    -0.206 F
HETATM   28  C14 UNL     1      31.553   0.158  10.880  1.00  0.00     0.079 C
HETATM   29  C15 UNL     1      30.660  -0.864  10.249  1.00  0.00     0.012 C
ENDBRANCH  21  22
ENDBRANCH   6  21
TORSDOF 6
ENDMDL