MODEL 5
REMARK VINA RESULT: -8.101079408      3.208      7.143
REMARK  5 active torsions:
REMARK  status: ('A' for Active; 'I' for Inactive)
REMARK    1  A    between atoms: N1_2  and  C2_3
REMARK    2  A    between atoms: N1_2  and  C7_12
REMARK    3  A    between atoms: C2_3  and  C3_4
REMARK    4  A    between atoms: C10_15  and  N3_16
REMARK    5  A    between atoms: N3_16  and  C11_18
ROOT
HETATM    1  C7  UNL     1      30.273   1.464   7.514  1.00  0.00     0.121 C
HETATM    2  C8  UNL     1      28.748   1.213   7.434  1.00  0.00     0.030 C
HETATM    3  C9  UNL     1      28.221   2.467   6.697  1.00  0.00     0.031 C
HETATM    4  C10 UNL     1      28.528   2.350   5.234  1.00  0.00     0.111 C
HETATM    5  C18 UNL     1      29.721   1.465   5.079  1.00  0.00     0.004 C
HETATM    6  C19 UNL     1      29.790   0.700   3.997  1.00  0.00     0.196 C
HETATM    7  F2  UNL     1      28.827   0.702   3.050  1.00  0.00    -0.219 F
HETATM    8  C20 UNL     1      30.776   1.467   6.127  1.00  0.00     0.226 C
HETATM    9  F3  UNL     1      31.505   2.649   5.886  1.00  0.00    -0.242 F
ENDROOT
BRANCH   4  10
HETATM   10  N3  UNL     1      28.738   3.577   4.610  1.00  0.00    -0.403 N
ATOM     11  H3  UNL     1      29.693   3.933   4.567  1.00  0.00     0.154 HD
BRANCH  10  12
HETATM   12  C11 UNL     1      27.727   4.349   4.043  1.00  0.00     0.139 C
HETATM   13  C12 UNL     1      27.505   5.758   4.482  1.00  0.00     0.207 C
HETATM   14  O1  UNL     1      26.316   5.684   5.246  1.00  0.00    -0.333 OA
HETATM   15  C13 UNL     1      25.592   4.579   4.844  1.00  0.00     0.150 A
HETATM   16  N4  UNL     1      24.276   4.277   5.088  1.00  0.00    -0.345 N
HETATM   17  C17 UNL     1      26.378   3.725   4.111  1.00  0.00     0.019 A
HETATM   18  C14 UNL     1      23.723   3.150   4.621  1.00  0.00     0.114 A
ATOM     19  H4  UNL     1      23.707   4.923   5.635  1.00  0.00     0.167 HD
HETATM   20  C15 UNL     1      24.538   2.301   3.881  1.00  0.00     0.050 A
HETATM   21 CL1  UNL     1      23.809   0.809   3.264  1.00  0.00    -0.083 Cl
HETATM   22  C16 UNL     1      25.858   2.580   3.623  1.00  0.00     0.039 A
ENDBRANCH  10  12
ENDBRANCH   4  10
BRANCH   1  23
HETATM   23  N1  UNL     1      30.880   0.655   8.492  1.00  0.00    -0.389 N
HETATM   24  C1  UNL     1      32.147   0.140   7.967  1.00  0.00     0.149 C
BRANCH  23  25
HETATM   25  C2  UNL     1      30.148  -0.228   9.282  1.00  0.00     0.067 C
BRANCH  25  26
HETATM   26  C3  UNL     1      30.034   0.082  10.739  1.00  0.00     0.085 C
HETATM   27  C4  UNL     1      30.848   1.177  11.294  1.00  0.00     0.245 C
HETATM   28  N2  UNL     1      30.338   1.157  12.688  1.00  0.00    -0.072 N
HETATM   29  C5  UNL     1      28.891   1.100  12.519  1.00  0.00     0.270 C
ATOM     30  H22 UNL     1      30.726   0.415  13.270  1.00  0.00     0.277 HD
ATOM     31  H21 UNL     1      30.666   1.929  13.269  1.00  0.00     0.277 HD
HETATM   32  C6  UNL     1      28.636   0.470  11.165  1.00  0.00     0.206 C
HETATM   33  F1  UNL     1      28.125   1.451  10.310  1.00  0.00    -0.247 F
ENDBRANCH  25  26
ENDBRANCH  23  25
ENDBRANCH   1  23
TORSDOF 5
ENDMDL