MODEL 2
REMARK VINA RESULT: -8.795079103      1.114      1.716
REMARK  7 active torsions:
REMARK  status: ('A' for Active; 'I' for Inactive)
REMARK    1  A    between atoms: N1_2  and  C2_4
REMARK    2  A    between atoms: C3_7  and  N3_8
REMARK    3  A    between atoms: N3_8  and  C4_10
REMARK    4  A    between atoms: C6_14  and  O1_15
REMARK    5  A    between atoms: O1_15  and  C7_16
REMARK    6  A    between atoms: C7_16  and  C8_17
REMARK    7  A    between atoms: C8_17  and  N5_18
ROOT
HETATM    1  C4  UNL     1      28.632   1.112   4.104  1.00  0.00     0.127 A
HETATM    2  N4  UNL     1      29.307   2.091   4.750  1.00  0.00    -0.349 N
ATOM      3  H4  UNL     1      29.056   3.072   4.631  1.00  0.00     0.167 HD
HETATM    4  C5  UNL     1      30.321   1.726   5.556  1.00  0.00     0.126 A
HETATM    5  C6  UNL     1      30.700   0.414   5.754  1.00  0.00     0.084 A
HETATM    6  C14 UNL     1      29.997  -0.585   5.082  1.00  0.00     0.048 A
HETATM    7  C15 UNL     1      28.971  -0.219   4.266  1.00  0.00    -0.015 A
HETATM    8  C16 UNL     1      28.217  -1.286   3.547  1.00  0.00     0.052 C
ENDROOT
BRANCH   1   9
HETATM    9  N3  UNL     1      27.580   1.504   3.270  1.00  0.00    -0.176 N
ATOM     10  H3  UNL     1      27.683   1.336   2.269  1.00  0.00     0.186 HD
BRANCH   9  11
HETATM   11  C3  UNL     1      26.484   2.064   3.677  1.00  0.00     0.685 A
HETATM   12  N2  UNL     1      26.458   3.386   3.941  1.00  0.00    -0.175 N
HETATM   13  C2  UNL     1      25.393   4.056   4.362  1.00  0.00     0.140 A
ATOM     14  H2  UNL     1      27.322   3.911   3.806  1.00  0.00     0.186 HD
HETATM   15  C18 UNL     1      24.220   3.364   4.549  1.00  0.00     0.094 A
HETATM   16  C17 UNL     1      24.205   2.002   4.290  1.00  0.00     0.133 A
HETATM   17 CL1  UNL     1      22.777   4.186   5.103  1.00  0.00    -0.079 Cl
HETATM   18  N6  UNL     1      25.340   1.382   3.859  1.00  0.00    -0.200 N
ATOM     19  H6  UNL     1      25.320   0.380   3.670  1.00  0.00     0.183 HD
BRANCH  13  20
HETATM   20  N1  UNL     1      25.394   5.335   4.609  1.00  0.00    -0.379 N
HETATM   21  C1  UNL     1      26.676   6.014   4.460  1.00  0.00     0.147 C
ATOM     22  H1  UNL     1      24.549   5.832   4.890  1.00  0.00     0.160 HD
ENDBRANCH  13  20
ENDBRANCH   9  11
ENDBRANCH   1   9
BRANCH   5  23
HETATM   23  O1  UNL     1      31.745   0.035   6.583  1.00  0.00    -0.348 OA
BRANCH  23  24
HETATM   24  C7  UNL     1      31.811   0.432   7.915  1.00  0.00     0.206 C
BRANCH  24  25
HETATM   25  C8  UNL     1      30.639   0.009   8.718  1.00  0.00     0.302 C
BRANCH  25  26
HETATM   26  N5  UNL     1      30.874  -0.303  10.091  1.00  0.00     0.124 N
HETATM   27  C9  UNL     1      29.751  -1.102  10.570  1.00  0.00     0.282 C
HETATM   28  C10 UNL     1      28.637  -0.171  11.008  1.00  0.00     0.109 C
HETATM   29  C11 UNL     1      29.088   0.474  12.310  1.00  0.00     0.249 C
HETATM   30  F1  UNL     1      28.534   1.737  12.424  1.00  0.00    -0.206 F
HETATM   31  F2  UNL     1      28.662  -0.346  13.333  1.00  0.00    -0.206 F
HETATM   32  C12 UNL     1      30.595   0.530  12.362  1.00  0.00     0.148 C
HETATM   33  C13 UNL     1      31.144   0.805  10.951  1.00  0.00     0.410 C
HETATM   34  F3  UNL     1      32.531   0.867  11.142  1.00  0.00    -0.216 F
ENDBRANCH  25  26
ENDBRANCH  24  25
ENDBRANCH  23  24
ENDBRANCH   5  23
TORSDOF 7
ENDMDL