MODEL 3
REMARK VINA RESULT: -5.371896387      2.805      6.573
REMARK  6 active torsions:
REMARK  status: ('A' for Active; 'I' for Inactive)
REMARK    1  A    between atoms: C2_2  and  C4_4
REMARK    2  A    between atoms: C4_4  and  N1_5
REMARK    3  A    between atoms: C7_15  and  N5_16
REMARK    4  A    between atoms: C12_22  and  C13_23
REMARK    5  A    between atoms: C14_27  and  C15_28
REMARK    6  A    between atoms: C15_28  and  N6_29
ROOT
HETATM    1  N1  UNL     1      25.917   4.839   3.447  1.00  0.00    -0.374 N
ATOM      2  H1  UNL     1      25.549   4.038   2.935  1.00  0.00     0.161 HD
HETATM    3  C5  UNL     1      26.842   4.706   4.333  1.00  0.00     0.130 A
HETATM    4  N2  UNL     1      27.398   5.691   5.069  1.00  0.00    -0.283 N
ATOM      5  H2  UNL     1      27.079   6.660   5.086  1.00  0.00     0.188 HD
HETATM    6  N3  UNL     1      28.410   5.221   5.760  1.00  0.00    -0.283 N
ATOM      7  H3  UNL     1      28.995   5.767   6.393  1.00  0.00     0.188 HD
HETATM    8  C6  UNL     1      28.559   3.906   5.503  1.00  0.00     0.136 A
HETATM    9  N4  UNL     1      29.459   3.016   5.891  1.00  0.00    -0.326 N
ATOM     10  H4  UNL     1      30.173   3.303   6.560  1.00  0.00     0.169 HD
HETATM   11  C7  UNL     1      29.469   1.712   5.425  1.00  0.00     0.119 A
HETATM   12  C12 UNL     1      28.519   1.301   4.531  1.00  0.00     0.082 A
HETATM   13  C14 UNL     1      27.560   2.249   4.133  1.00  0.00     0.005 A
HETATM   14  C18 UNL     1      27.581   3.535   4.603  1.00  0.00     0.063 A
ENDROOT
BRANCH   1  15
HETATM   15  C4  UNL     1      25.426   6.178   3.214  1.00  0.00     0.125 C
BRANCH  15  16
HETATM   16  C2  UNL     1      24.150   6.451   3.966  1.00  0.00    -0.005 C
HETATM   17  C1  UNL     1      24.394   7.514   5.000  1.00  0.00     0.011 C
HETATM   18  C3  UNL     1      23.548   5.217   4.546  1.00  0.00     0.011 C
ENDBRANCH  15  16
ENDBRANCH   1  15
BRANCH  13  19
HETATM   19  C15 UNL     1      26.505   1.762   3.207  1.00  0.00     0.312 C
BRANCH  19  20
HETATM   20  N6  UNL     1      25.401   1.163   3.954  1.00  0.00     0.084 N
HETATM   21  C16 UNL     1      25.072   1.879   5.128  1.00  0.00     0.309 C
HETATM   22  C17 UNL     1      24.279   1.004   3.082  1.00  0.00     0.309 C
ENDBRANCH  19  20
ENDBRANCH  13  19
BRANCH  12  23
HETATM   23  C13 UNL     1      28.526  -0.067   3.977  1.00  0.00     0.353 C
HETATM   24  F1  UNL     1      27.968  -0.205   2.734  1.00  0.00    -0.182 F
HETATM   25  F2  UNL     1      29.649  -0.812   4.147  1.00  0.00    -0.182 F
HETATM   26 CL1  UNL     1      27.359  -1.041   5.012  1.00  0.00    -0.042 Cl
ENDBRANCH  12  23
BRANCH  11  27
HETATM   27  N5  UNL     1      30.494   0.956   6.026  1.00  0.00    -0.363 N
HETATM   28  C8  UNL     1      30.325  -0.156   6.889  1.00  0.00     0.150 C
HETATM   29  C9  UNL     1      31.163   0.206   8.155  1.00  0.00     0.187 C
HETATM   30  O1  UNL     1      32.493   0.306   7.871  1.00  0.00    -0.388 OA
HETATM   31  C10 UNL     1      32.752   0.482   6.534  1.00  0.00     0.187 C
HETATM   32  C11 UNL     1      31.838   1.472   5.842  1.00  0.00     0.150 C
ENDBRANCH  11  27
TORSDOF 6
ENDMDL