MODEL 3
REMARK VINA RESULT: -7.214796697      1.179      2.431
REMARK  8 active torsions:
REMARK  status: ('A' for Active; 'I' for Inactive)
REMARK    1  A    between atoms: N1_2  and  C2_4
REMARK    2  A    between atoms: C7_11  and  N3_12
REMARK    3  A    between atoms: N3_12  and  C8_14
REMARK    4  A    between atoms: C8_14  and  C9_15
REMARK    5  A    between atoms: N4_18  and  C12_19
REMARK    6  A    between atoms: C14_24  and  O1_25
REMARK    7  A    between atoms: O1_25  and  C15_26
REMARK    8  A    between atoms: C15_26  and  C16_27
ROOT
HETATM    1  C9  UNL     1      28.136   0.445   3.292  1.00  0.00     0.105 C
HETATM    2  C10 UNL     1      28.195  -0.821   2.479  1.00  0.00     0.047 C
HETATM    3  C11 UNL     1      28.230  -1.483   3.846  1.00  0.00     0.127 C
HETATM    4  N4  UNL     1      28.794  -0.260   4.395  1.00  0.00    -0.358 N
ENDROOT
BRANCH   1   5
HETATM    5  C8  UNL     1      26.694   0.815   3.590  1.00  0.00     0.146 C
BRANCH   5   6
HETATM    6  N3  UNL     1      26.408   2.123   3.107  1.00  0.00    -0.373 N
ATOM      7  H3  UNL     1      26.506   2.243   2.099  1.00  0.00     0.161 HD
BRANCH   6   8
HETATM    8  C7  UNL     1      26.047   3.162   3.743  1.00  0.00     0.124 A
HETATM    9  C5  UNL     1      27.036   4.109   4.036  1.00  0.00     0.005 A
HETATM   10  C3  UNL     1      26.757   5.270   4.720  1.00  0.00     0.032 A
HETATM   11  C6  UNL     1      28.421   3.847   3.594  1.00  0.00     0.054 C
HETATM   12  N2  UNL     1      25.507   5.513   5.124  1.00  0.00    -0.195 N
HETATM   13  C4  UNL     1      27.802   6.278   5.034  1.00  0.00     0.069 C
HETATM   14  C2  UNL     1      24.558   4.609   4.844  1.00  0.00     0.679 A
ATOM     15  H2  UNL     1      25.279   6.367   5.632  1.00  0.00     0.184 HD
HETATM   16  N7  UNL     1      24.812   3.452   4.168  1.00  0.00    -0.176 N
ATOM     17  H7  UNL     1      24.051   2.799   3.984  1.00  0.00     0.186 HD
BRANCH  14  18
HETATM   18  N1  UNL     1      23.324   4.815   5.223  1.00  0.00    -0.230 N
HETATM   19  C1  UNL     1      22.243   3.972   4.760  1.00  0.00     0.165 C
ATOM     20  H1  UNL     1      23.119   5.586   5.858  1.00  0.00     0.177 HD
ENDBRANCH  14  18
ENDBRANCH   6   8
ENDBRANCH   5   6
ENDBRANCH   1   5
BRANCH   4  21
HETATM   21  C12 UNL     1      29.612   0.100   5.499  1.00  0.00     0.145 A
HETATM   22  N5  UNL     1      30.864  -0.234   5.825  1.00  0.00    -0.280 N
HETATM   23  N6  UNL     1      31.213   0.359   6.972  1.00  0.00    -0.272 N
ATOM     24  H5  UNL     1      31.466  -0.850   5.279  1.00  0.00     0.189 HD
HETATM   25  C13 UNL     1      32.520   0.196   7.600  1.00  0.00     0.180 C
HETATM   26  C14 UNL     1      30.199   1.105   7.439  1.00  0.00     0.185 A
HETATM   27  C17 UNL     1      29.183   0.949   6.517  1.00  0.00     0.131 A
HETATM   28 CL1  UNL     1      27.623   1.728   6.665  1.00  0.00    -0.075 Cl
BRANCH  26  29
HETATM   29  O1  UNL     1      30.231   1.853   8.611  1.00  0.00    -0.324 OA
BRANCH  29  30
HETATM   30  C15 UNL     1      29.469   1.347   9.693  1.00  0.00     0.294 C
BRANCH  30  31
HETATM   31  C16 UNL     1      30.217   0.386  10.555  1.00  0.00     0.408 C
HETATM   32  F1  UNL     1      30.170  -0.893  10.002  1.00  0.00    -0.169 F
HETATM   33  F2  UNL     1      31.474   0.793  10.872  1.00  0.00    -0.169 F
HETATM   34  F3  UNL     1      29.498   0.284  11.754  1.00  0.00    -0.169 F
ENDBRANCH  30  31
ENDBRANCH  29  30
ENDBRANCH  26  29
ENDBRANCH   4  21
TORSDOF 8
ENDMDL