MODEL 1
REMARK VINA RESULT: -6.537748288      0.000      0.000
REMARK  8 active torsions:
REMARK  status: ('A' for Active; 'I' for Inactive)
REMARK    1  A    between atoms: C3_5  and  N2_6
REMARK    2  A    between atoms: N2_6  and  C4_8
REMARK    3  A    between atoms: C4_8  and  C5_9
REMARK    4  A    between atoms: C5_9  and  C6_10
REMARK    5  A    between atoms: C6_10  and  C7_11
REMARK    6  A    between atoms: C7_11  and  C8_12
REMARK    7  A    between atoms: C8_12  and  N3_13
REMARK    8  A    between atoms: C11_18  and  N5_19
ROOT
HETATM    1  C1  UNL     1      37.635  45.266  -1.025  1.00  0.00     0.069 C
HETATM    2  C2  UNL     1      37.145  43.926  -1.495  1.00  0.00     0.032 A
HETATM    3  N1  UNL     1      36.525  43.770  -2.685  1.00  0.00    -0.195 N
ATOM      4  H1  UNL     1      36.386  44.590  -3.276  1.00  0.00     0.184 HD
HETATM    5  C3  UNL     1      36.083  42.577  -3.118  1.00  0.00     0.679 A
HETATM    6  N4  UNL     1      36.292  41.513  -2.292  1.00  0.00    -0.177 N
ATOM      7  H4  UNL     1      35.967  40.593  -2.591  1.00  0.00     0.186 HD
HETATM    8  C11 UNL     1      36.907  41.621  -1.098  1.00  0.00     0.122 A
HETATM    9  C12 UNL     1      37.358  42.842  -0.657  1.00  0.00     0.005 A
HETATM   10  C13 UNL     1      38.041  43.046   0.645  1.00  0.00     0.054 C
ENDROOT
BRANCH   5  11
HETATM   11  N2  UNL     1      35.484  42.404  -4.247  1.00  0.00    -0.226 N
ATOM     12  H2  UNL     1      34.467  42.319  -4.246  1.00  0.00     0.177 HD
BRANCH  11  13
HETATM   13  C4  UNL     1      36.163  42.323  -5.497  1.00  0.00     0.138 C
BRANCH  13  14
HETATM   14  C5  UNL     1      35.405  41.861  -6.670  1.00  0.00     0.020 C
BRANCH  14  15
HETATM   15  C6  UNL     1      34.318  42.694  -7.238  1.00  0.00     0.003 C
BRANCH  15  16
HETATM   16  C7  UNL     1      34.084  42.524  -8.693  1.00  0.00     0.030 C
BRANCH  16  17
HETATM   17  C8  UNL     1      33.129  43.450  -9.354  1.00  0.00     0.271 C
BRANCH  17  18
HETATM   18  N3  UNL     1      33.490  44.038 -10.596  1.00  0.00     0.080 N
HETATM   19  C9  UNL     1      32.355  44.944 -10.953  1.00  0.00     0.309 C
HETATM   20  C10 UNL     1      33.453  43.056 -11.673  1.00  0.00     0.309 C
ENDBRANCH  17  18
ENDBRANCH  16  17
ENDBRANCH  15  16
ENDBRANCH  14  15
ENDBRANCH  13  14
ENDBRANCH  11  13
ENDBRANCH   5  11
BRANCH   8  21
HETATM   21  N5  UNL     1      37.086  40.582  -0.351  1.00  0.00    -0.385 N
ATOM     22  H52 UNL     1      36.485  39.768  -0.486  1.00  0.00     0.157 HD
ATOM     23  H51 UNL     1      37.813  40.573   0.364  1.00  0.00     0.157 HD
ENDBRANCH   8  21
TORSDOF 8
ENDMDL