MODEL 1
REMARK VINA RESULT: -5.569465480      0.000      0.000
REMARK  7 active torsions:
REMARK  status: ('A' for Active; 'I' for Inactive)
REMARK    1  A    between atoms: C2_2  and  C4_4
REMARK    2  A    between atoms: C2_2  and  C5_7
REMARK    3  A    between atoms: C4_4  and  O1_5
REMARK    4  A    between atoms: C5_7  and  N1_8
REMARK    5  A    between atoms: C8_11  and  C9_12
REMARK    6  A    between atoms: C9_12  and  C10_13
REMARK    7  A    between atoms: C11_14  and  C12_15
ROOT
HETATM    1  N1  UNL     1      41.558  37.888  -3.965  1.00  0.00     0.089 N
HETATM    2  C6  UNL     1      40.500  37.746  -4.979  1.00  0.00     0.272 C
HETATM    3  C7  UNL     1      39.221  37.216  -4.487  1.00  0.00     0.035 C
HETATM    4  C8  UNL     1      38.643  38.196  -3.471  1.00  0.00    -0.008 C
HETATM    5  C13 UNL     1      39.676  38.327  -2.412  1.00  0.00     0.035 C
HETATM    6  C14 UNL     1      41.050  38.741  -2.934  1.00  0.00     0.272 C
ENDROOT
BRANCH   4   7
HETATM    7  C9  UNL     1      38.320  39.530  -4.114  1.00  0.00     0.031 C
BRANCH   7   8
HETATM    8  C10 UNL     1      38.132  40.527  -3.047  1.00  0.00    -0.023 C
HETATM    9  C11 UNL     1      37.473  41.633  -3.090  1.00  0.00     0.040 C
BRANCH   9  10
HETATM   10  C12 UNL     1      36.747  42.175  -4.205  1.00  0.00     0.109 C
HETATM   11  N2  UNL     1      35.424  42.034  -4.255  1.00  0.00    -0.388 N
ATOM     12  H22 UNL     1      35.041  41.531  -3.453  1.00  0.00     0.157 HD
ATOM     13  H21 UNL     1      34.908  42.419  -5.046  1.00  0.00     0.157 HD
HETATM   14  N3  UNL     1      37.275  42.869  -5.312  1.00  0.00    -0.083 NA
ENDBRANCH   9  10
ENDBRANCH   7   8
ENDBRANCH   4   7
BRANCH   1  15
HETATM   15  C5  UNL     1      42.624  38.527  -4.684  1.00  0.00     0.283 C
BRANCH  15  16
HETATM   16  C2  UNL     1      44.022  38.292  -4.336  1.00  0.00     0.000 C
HETATM   17  C1  UNL     1      44.262  37.175  -3.378  1.00  0.00     0.019 C
HETATM   18  C3  UNL     1      44.917  38.117  -5.568  1.00  0.00     0.019 C
BRANCH  16  19
HETATM   19  C4  UNL     1      44.628  39.547  -3.648  1.00  0.00     0.174 C
BRANCH  19  20
HETATM   20  O1  UNL     1      45.726  39.994  -4.337  1.00  0.00    -0.400 OA
ATOM     21  H1  UNL     1      45.763  40.944  -4.332  1.00  0.00     0.209 HD
ENDBRANCH  19  20
ENDBRANCH  16  19
ENDBRANCH  15  16
ENDBRANCH   1  15
TORSDOF 7
ENDMDL