MODEL 3
REMARK VINA RESULT: -6.314088240      2.195      8.259
REMARK  7 active torsions:
REMARK  status: ('A' for Active; 'I' for Inactive)
REMARK    1  A    between atoms: N1_1  and  C1_5
REMARK    2  A    between atoms: C1_5  and  C2_6
REMARK    3  A    between atoms: C2_6  and  C3_7
REMARK    4  A    between atoms: C6_12  and  C7_13
REMARK    5  A    between atoms: C7_13  and  C8_14
REMARK    6  A    between atoms: C8_14  and  C9_15
REMARK    7  A    between atoms: C9_15  and  C10_16
ROOT
HETATM    1  C3  UNL     1      34.278  41.970  -7.952  1.00  0.00     0.205 C
HETATM    2  C4  UNL     1      33.586  41.016  -7.036  1.00  0.00     0.147 C
HETATM    3  N2  UNL     1      34.457  40.105  -6.368  1.00  0.00    -0.417 N
ATOM      4  H2  UNL     1      34.118  39.255  -5.919  1.00  0.00     0.153 HD
HETATM    5  C5  UNL     1      35.835  40.470  -6.375  1.00  0.00     0.147 C
HETATM    6  C6  UNL     1      36.122  41.919  -6.402  1.00  0.00     0.203 C
HETATM    7  N3  UNL     1      35.379  42.670  -7.372  1.00  0.00    -0.064 N
ATOM      8  H31 UNL     1      35.065  43.554  -6.970  1.00  0.00     0.278 HD
ATOM      9  H32 UNL     1      36.001  43.020  -8.101  1.00  0.00     0.278 HD
ENDROOT
BRANCH   6  10
HETATM   10  C7  UNL     1      35.941  42.602  -5.062  1.00  0.00     0.035 C
BRANCH  10  11
HETATM   11  C8  UNL     1      36.644  41.920  -3.939  1.00  0.00     0.002 C
BRANCH  11  12
HETATM   12  C9  UNL     1      37.323  42.985  -3.105  1.00  0.00     0.005 C
BRANCH  12  13
HETATM   13  C10 UNL     1      36.373  43.613  -2.122  1.00  0.00    -0.014 C
HETATM   14  C11 UNL     1      35.717  42.621  -1.221  1.00  0.00     0.004 C
HETATM   15  C12 UNL     1      36.713  41.843  -0.392  1.00  0.00     0.000 C
HETATM   16  C13 UNL     1      37.649  42.753   0.366  1.00  0.00     0.000 C
HETATM   17  C14 UNL     1      38.167  43.893  -0.447  1.00  0.00     0.000 C
HETATM   18  C15 UNL     1      37.128  44.598  -1.260  1.00  0.00     0.004 C
ENDBRANCH  12  13
ENDBRANCH  11  12
ENDBRANCH  10  11
ENDBRANCH   6  10
BRANCH   1  19
HETATM   19  C2  UNL     1      33.277  43.011  -8.435  1.00  0.00     0.062 C
BRANCH  19  20
HETATM   20  C1  UNL     1      33.598  43.483  -9.831  1.00  0.00     0.231 C
BRANCH  20  21
HETATM   21  N1  UNL     1      32.498  44.328 -10.259  1.00  0.00    -0.079 N
ATOM     22  H13 UNL     1      31.979  44.734  -9.480  1.00  0.00     0.274 HD
ATOM     23  H12 UNL     1      32.806  45.203 -10.682  1.00  0.00     0.274 HD
ATOM     24  H11 UNL     1      31.914  43.767 -10.879  1.00  0.00     0.274 HD
ENDBRANCH  20  21
ENDBRANCH  19  20
ENDBRANCH   1  19
TORSDOF 7
ENDMDL