MODEL 2
REMARK VINA RESULT: -5.584489169      3.255      5.021
REMARK  7 active torsions:
REMARK  status: ('A' for Active; 'I' for Inactive)
REMARK    1  A    between atoms: N1_1  and  C1_5
REMARK    2  A    between atoms: C1_5  and  C2_6
REMARK    3  A    between atoms: C2_6  and  C3_7
REMARK    4  A    between atoms: C3_7  and  C4_8
REMARK    5  A    between atoms: C4_8  and  C5_9
REMARK    6  A    between atoms: C5_9  and  C6_10
REMARK    7  A    between atoms: C6_10  and  N2_11
ROOT
HETATM    1  N2  UNL     1      31.517  38.693 -11.039  1.00  0.00     0.088 N
HETATM    2  C7  UNL     1      32.837  39.030 -11.510  1.00  0.00     0.273 C
HETATM    3  C8  UNL     1      33.683  39.851 -10.626  1.00  0.00     0.040 C
HETATM    4  C9  UNL     1      32.935  41.185 -10.449  1.00  0.00    -0.034 C
HETATM    5  C10 UNL     1      32.628  41.734 -11.815  1.00  0.00     0.037 C
HETATM    6  C11 UNL     1      32.405  43.230 -11.833  1.00  0.00     0.233 C
HETATM    7  N3  UNL     1      32.300  43.791 -10.509  1.00  0.00    -0.075 N
ATOM      8  H31 UNL     1      31.486  43.445 -10.001  1.00  0.00     0.277 HD
ATOM      9  H32 UNL     1      32.048  44.780 -10.523  1.00  0.00     0.277 HD
HETATM   10  C12 UNL     1      33.540  43.546  -9.801  1.00  0.00     0.233 C
HETATM   11  C13 UNL     1      33.847  42.079  -9.686  1.00  0.00     0.037 C
HETATM   12  C14 UNL     1      31.693  40.785  -9.694  1.00  0.00     0.040 C
HETATM   13  C15 UNL     1      30.839  39.808 -10.436  1.00  0.00     0.273 C
ENDROOT
BRANCH   1  14
HETATM   14  C6  UNL     1      31.559  37.530 -10.157  1.00  0.00     0.272 C
BRANCH  14  15
HETATM   15  C5  UNL     1      30.465  37.600  -9.141  1.00  0.00     0.030 C
BRANCH  15  16
HETATM   16  C4  UNL     1      31.020  37.160  -7.789  1.00  0.00     0.002 C
BRANCH  16  17
HETATM   17  C3  UNL     1      32.513  37.376  -7.754  1.00  0.00     0.002 C
BRANCH  17  18
HETATM   18  C2  UNL     1      32.840  38.385  -6.665  1.00  0.00     0.027 C
BRANCH  18  19
HETATM   19  C1  UNL     1      34.046  39.236  -6.999  1.00  0.00     0.229 C
BRANCH  19  20
HETATM   20  N1  UNL     1      34.213  40.216  -5.948  1.00  0.00    -0.079 N
ATOM     21  H13 UNL     1      34.391  39.791  -5.039  1.00  0.00     0.274 HD
ATOM     22  H12 UNL     1      35.087  40.736  -6.031  1.00  0.00     0.274 HD
ATOM     23  H11 UNL     1      33.393  40.823  -5.944  1.00  0.00     0.274 HD
ENDBRANCH  19  20
ENDBRANCH  18  19
ENDBRANCH  17  18
ENDBRANCH  16  17
ENDBRANCH  15  16
ENDBRANCH  14  15
ENDBRANCH   1  14
TORSDOF 7
ENDMDL