MODEL 3
REMARK VINA RESULT: -5.463960783      4.128      7.715
REMARK  7 active torsions:
REMARK  status: ('A' for Active; 'I' for Inactive)
REMARK    1  A    between atoms: C2_2  and  O1_3
REMARK    2  A    between atoms: O1_3  and  C3_4
REMARK    3  A    between atoms: C3_4  and  C4_5
REMARK    4  A    between atoms: C12_13  and  N1_14
REMARK    5  A    between atoms: N1_14  and  C13_16
REMARK    6  A    between atoms: C13_16  and  C14_17
REMARK    7  A    between atoms: C14_17  and  O2_18
ROOT
HETATM    1  C4  UNL     1      34.587  40.403  -8.140  1.00  0.00     0.021 C
HETATM    2  C5  UNL     1      33.604  39.473  -7.362  1.00  0.00     0.022 C
HETATM    3  C6  UNL     1      32.751  38.736  -8.310  1.00  0.00    -0.012 C
HETATM    4  C7  UNL     1      33.604  37.834  -9.181  1.00  0.00     0.009 C
HETATM    5  C8  UNL     1      34.546  38.679  -9.974  1.00  0.00    -0.012 C
HETATM    6  C9  UNL     1      33.848  39.710 -10.827  1.00  0.00     0.015 C
HETATM    7  C10 UNL     1      32.972  40.559  -9.965  1.00  0.00     0.033 C
HETATM    8  C11 UNL     1      32.004  39.673  -9.240  1.00  0.00     0.015 C
HETATM    9  C12 UNL     1      33.770  41.334  -8.889  1.00  0.00    -0.003 C
HETATM   10  C15 UNL     1      35.415  39.453  -9.026  1.00  0.00     0.022 C
ENDROOT
BRANCH   9  11
HETATM   11  N1  UNL     1      34.192  42.557  -9.402  1.00  0.00    -0.393 N
ATOM     12  H1  UNL     1      35.193  42.739  -9.459  1.00  0.00     0.159 HD
BRANCH  11  13
HETATM   13  C13 UNL     1      33.305  43.551  -9.845  1.00  0.00     0.145 C
BRANCH  13  14
HETATM   14  C14 UNL     1      33.511  43.860 -11.346  1.00  0.00     0.183 C
BRANCH  14  15
HETATM   15  O2  UNL     1      33.820  45.170 -11.585  1.00  0.00    -0.399 OA
ATOM     16  H2  UNL     1      34.668  45.420 -11.239  1.00  0.00     0.209 HD
ENDBRANCH  14  15
ENDBRANCH  13  14
ENDBRANCH  11  13
ENDBRANCH   9  11
BRANCH   1  17
HETATM   17  C3  UNL     1      35.596  40.893  -7.139  1.00  0.00     0.183 C
BRANCH  17  18
HETATM   18  O1  UNL     1      35.885  42.217  -7.138  1.00  0.00    -0.390 OA
BRANCH  18  19
HETATM   19  C2  UNL     1      35.444  42.779  -5.950  1.00  0.00     0.163 C
HETATM   20  C1  UNL     1      36.187  42.400  -4.717  1.00  0.00     0.033 C
ENDBRANCH  18  19
ENDBRANCH  17  18
ENDBRANCH   1  17
TORSDOF 7
ENDMDL