MODEL 2
REMARK VINA RESULT: -5.527223496      0.091      1.645
REMARK  7 active torsions:
REMARK  status: ('A' for Active; 'I' for Inactive)
REMARK    1  A    between atoms: C2_2  and  N1_3
REMARK    2  A    between atoms: C4_8  and  N3_9
REMARK    3  A    between atoms: C7_16  and  C8_17
REMARK    4  A    between atoms: C8_17  and  C9_18
REMARK    5  A    between atoms: C9_18  and  N5_19
REMARK    6  A    between atoms: N5_19  and  C10_20
REMARK    7  A    between atoms: N5_19  and  C12_22
ROOT
HETATM    1  N1  UNL     1      33.499  42.453  -9.903  1.00  0.00    -0.376 N
ATOM      2  H1  UNL     1      33.092  41.789 -10.562  1.00  0.00     0.161 HD
HETATM    3  C3  UNL     1      33.790  42.009  -8.749  1.00  0.00     0.125 A
HETATM    4  N2  UNL     1      34.342  42.789  -7.771  1.00  0.00    -0.177 N
ATOM      5  H2  UNL     1      34.532  43.772  -7.965  1.00  0.00     0.186 HD
HETATM    6  C4  UNL     1      34.637  42.291  -6.568  1.00  0.00     0.677 A
HETATM    7  N4  UNL     1      34.423  41.001  -6.212  1.00  0.00    -0.196 N
ATOM      8  H4  UNL     1      34.661  40.653  -5.283  1.00  0.00     0.184 HD
HETATM    9  C5  UNL     1      33.881  40.206  -7.149  1.00  0.00     0.032 A
HETATM   10  C6  UNL     1      33.628  38.781  -6.819  1.00  0.00     0.069 C
HETATM   11  C7  UNL     1      33.567  40.694  -8.401  1.00  0.00     0.011 A
ENDROOT
BRANCH  11  12
HETATM   12  C8  UNL     1      32.968  39.804  -9.447  1.00  0.00     0.064 C
BRANCH  12  13
HETATM   13  C9  UNL     1      31.498  40.044  -9.651  1.00  0.00     0.132 C
BRANCH  13  14
HETATM   14  N5  UNL     1      30.820  38.807  -9.778  1.00  0.00    -0.374 N
BRANCH  14  15
HETATM   15  C10 UNL     1      29.698  38.727 -10.601  1.00  0.00     0.058 C
HETATM   16  C11 UNL     1      29.031  40.053 -10.898  1.00  0.00     0.055 C
ENDBRANCH  14  15
BRANCH  14  17
HETATM   17  C12 UNL     1      31.398  37.688  -9.182  1.00  0.00     0.058 C
HETATM   18  C13 UNL     1      30.482  37.077  -8.151  1.00  0.00     0.055 C
ENDBRANCH  14  17
ENDBRANCH  13  14
ENDBRANCH  12  13
ENDBRANCH  11  12
BRANCH   1  19
HETATM   19  C2  UNL     1      33.686  43.796 -10.371  1.00  0.00     0.116 C
HETATM   20  C1  UNL     1      33.420  43.921 -11.862  1.00  0.00     0.026 C
ENDBRANCH   1  19
BRANCH   6  21
HETATM   21  N3  UNL     1      35.157  43.057  -5.670  1.00  0.00    -0.234 N
ATOM     22  H32 UNL     1      34.817  44.018  -5.639  1.00  0.00     0.174 HD
ATOM     23  H31 UNL     1      35.870  42.685  -5.041  1.00  0.00     0.174 HD
ENDBRANCH   6  21
TORSDOF 7
ENDMDL