MODEL 1
REMARK VINA RESULT: -5.781768473      0.000      0.000
REMARK  7 active torsions:
REMARK  status: ('A' for Active; 'I' for Inactive)
REMARK    1  A    between atoms: C7_8  and  N1_9
REMARK    2  A    between atoms: N1_9  and  C8_12
REMARK    3  A    between atoms: C8_12  and  C9_13
REMARK    4  A    between atoms: C8_12  and  C11_15
REMARK    5  A    between atoms: C11_15  and  N2_16
REMARK    6  A    between atoms: C11_15  and  C12_20
REMARK    7  A    between atoms: C12_20  and  C13_21
ROOT
HETATM    1  C1  UNL     1      34.081  42.961  -7.927  1.00  0.00     0.012 C
HETATM    2  C2  UNL     1      34.237  41.925  -7.341  1.00  0.00    -0.108 C
HETATM    3  C3  UNL     1      34.408  40.667  -6.623  1.00  0.00     0.118 C
HETATM    4  C4  UNL     1      34.054  39.482  -7.515  1.00  0.00     0.186 C
HETATM    5  O1  UNL     1      35.063  39.238  -8.442  1.00  0.00    -0.390 OA
HETATM    6  C5  UNL     1      36.080  38.574  -7.793  1.00  0.00     0.169 C
HETATM    7  C6  UNL     1      36.239  39.073  -6.401  1.00  0.00     0.060 C
HETATM    8  C7  UNL     1      35.858  40.528  -6.206  1.00  0.00     0.206 C
ENDROOT
BRANCH   8   9
HETATM    9  N1  UNL     1      36.056  40.772  -4.782  1.00  0.00    -0.063 N
ATOM     10  H12 UNL     1      35.178  41.051  -4.345  1.00  0.00     0.278 HD
ATOM     11  H11 UNL     1      36.224  39.893  -4.293  1.00  0.00     0.278 HD
BRANCH   9  12
HETATM   12  C8  UNL     1      37.068  41.699  -4.479  1.00  0.00     0.216 C
BRANCH  12  13
HETATM   13  C9  UNL     1      38.358  41.094  -3.995  1.00  0.00     0.030 C
HETATM   14  C10 UNL     1      38.052  39.875  -3.169  1.00  0.00     0.007 C
ENDBRANCH  12  13
BRANCH  12  15
HETATM   15  C11 UNL     1      36.563  42.776  -3.584  1.00  0.00     0.214 C
BRANCH  15  16
HETATM   16  N2  UNL     1      35.334  42.273  -2.995  1.00  0.00    -0.073 N
ATOM     17  H23 UNL     1      34.912  41.511  -3.525  1.00  0.00     0.274 HD
ATOM     18  H22 UNL     1      35.483  41.757  -2.128  1.00  0.00     0.274 HD
ATOM     19  H21 UNL     1      34.717  43.079  -2.886  1.00  0.00     0.274 HD
ENDBRANCH  15  16
BRANCH  15  20
HETATM   20  C12 UNL     1      37.441  43.490  -2.669  1.00  0.00     0.039 C
BRANCH  20  21
HETATM   21  C13 UNL     1      36.983  44.008  -1.368  1.00  0.00    -0.021 C
HETATM   22  C14 UNL     1      37.442  42.979  -0.278  1.00  0.00     0.009 C
HETATM   23  C15 UNL     1      37.692  45.287  -0.931  1.00  0.00     0.009 C
ENDBRANCH  20  21
ENDBRANCH  15  20
ENDBRANCH  12  15
ENDBRANCH   9  12
ENDBRANCH   8   9
TORSDOF 7
ENDMDL