MODEL 2
REMARK VINA RESULT: -7.010704724      1.149      1.149
REMARK  8 active torsions:
REMARK  status: ('A' for Active; 'I' for Inactive)
REMARK    1  A    between atoms: C2_2  and  C3_3
REMARK    2  A    between atoms: C3_3  and  C4_4
REMARK    3  A    between atoms: C4_4  and  C5_5
REMARK    4  A    between atoms: C5_5  and  N1_6
REMARK    5  A    between atoms: C7_11  and  N3_12
REMARK    6  A    between atoms: N3_12  and  C8_14
REMARK    7  A    between atoms: C8_14  and  C9_15
REMARK    8  A    between atoms: C9_15  and  O1_16
ROOT
HETATM    1  N1  UNL     1      33.455  43.030  -7.775  1.00  0.00    -0.375 N
ATOM      2  H1  UNL     1      33.312  43.886  -7.239  1.00  0.00     0.161 HD
HETATM    3  C6  UNL     1      34.174  42.232  -7.150  1.00  0.00     0.124 A
HETATM    4  N2  UNL     1      34.614  42.648  -5.914  1.00  0.00    -0.176 N
ATOM      5  H2  UNL     1      34.330  43.571  -5.586  1.00  0.00     0.186 HD
HETATM    6  C7  UNL     1      35.390  41.909  -5.123  1.00  0.00     0.679 A
HETATM    7  N4  UNL     1      35.754  40.694  -5.571  1.00  0.00    -0.195 N
ATOM      8  H4  UNL     1      36.348  40.108  -4.983  1.00  0.00     0.184 HD
HETATM    9  C10 UNL     1      35.361  40.229  -6.768  1.00  0.00     0.032 A
HETATM   10  C11 UNL     1      35.783  38.874  -7.236  1.00  0.00     0.069 C
HETATM   11  C12 UNL     1      34.550  40.993  -7.601  1.00  0.00     0.005 A
HETATM   12  C13 UNL     1      34.127  40.444  -8.934  1.00  0.00     0.054 C
ENDROOT
BRANCH   1  13
HETATM   13  C5  UNL     1      32.789  43.092  -8.997  1.00  0.00     0.121 C
BRANCH  13  14
HETATM   14  C4  UNL     1      33.630  43.760 -10.098  1.00  0.00     0.020 C
BRANCH  14  15
HETATM   15  C3  UNL     1      33.474  43.050 -11.418  1.00  0.00     0.001 C
BRANCH  15  16
HETATM   16  C2  UNL     1      33.163  43.970 -12.570  1.00  0.00    -0.004 C
HETATM   17  C1  UNL     1      33.644  45.385 -12.291  1.00  0.00     0.005 C
ENDBRANCH  15  16
ENDBRANCH  14  15
ENDBRANCH  13  14
ENDBRANCH   1  13
BRANCH   6  18
HETATM   18  N3  UNL     1      35.795  42.315  -3.959  1.00  0.00    -0.224 N
ATOM     19  H3  UNL     1      35.113  42.416  -3.209  1.00  0.00     0.177 HD
BRANCH  18  20
HETATM   20  C8  UNL     1      37.177  42.629  -3.689  1.00  0.00     0.164 C
BRANCH  20  21
HETATM   21  C9  UNL     1      37.259  43.327  -2.353  1.00  0.00     0.184 C
BRANCH  21  22
HETATM   22  O1  UNL     1      38.053  44.478  -2.480  1.00  0.00    -0.399 OA
ATOM     23  H1  UNL     1      38.556  44.599  -1.683  1.00  0.00     0.209 HD
ENDBRANCH  21  22
ENDBRANCH  20  21
ENDBRANCH  18  20
ENDBRANCH   6  18
TORSDOF 8
ENDMDL