MODEL 4
REMARK VINA RESULT: -6.767295575      2.713      7.899
REMARK  8 active torsions:
REMARK  status: ('A' for Active; 'I' for Inactive)
REMARK    1  A    between atoms: C2_2  and  C3_3
REMARK    2  A    between atoms: C3_3  and  C4_4
REMARK    3  A    between atoms: C4_4  and  C5_5
REMARK    4  A    between atoms: C7_7  and  N1_8
REMARK    5  A    between atoms: N1_8  and  C8_10
REMARK    6  A    between atoms: C8_10  and  C9_11
REMARK    7  A    between atoms: C12_16  and  N3_17
REMARK    8  A    between atoms: N3_17  and  C13_19
ROOT
HETATM    1  C13 UNL     1      36.998  41.977  -3.466  1.00  0.00     0.262 C
HETATM    2  C14 UNL     1      37.454  43.252  -2.903  1.00  0.00     0.079 C
HETATM    3  N4  UNL     1      37.816  44.275  -2.464  1.00  0.00    -0.196 NA
ENDROOT
BRANCH   1   4
HETATM    4  N3  UNL     1      35.662  42.131  -3.964  1.00  0.00    -0.214 N
ATOM      5  H3  UNL     1      34.952  42.518  -3.343  1.00  0.00     0.178 HD
BRANCH   4   6
HETATM    6  C12 UNL     1      35.313  41.795  -5.182  1.00  0.00     0.680 A
HETATM    7  N2  UNL     1      34.559  42.652  -5.883  1.00  0.00    -0.177 N
HETATM    8  C7  UNL     1      34.201  42.313  -7.130  1.00  0.00     0.118 A
ATOM      9  H2  UNL     1      34.265  43.541  -5.478  1.00  0.00     0.185 HD
HETATM   10  C6  UNL     1      34.567  41.128  -7.726  1.00  0.00     0.074 A
HETATM   11  C5  UNL     1      35.347  40.268  -6.972  1.00  0.00     0.030 A
HETATM   12  N5  UNL     1      35.681  40.641  -5.744  1.00  0.00    -0.196 N
ATOM     13  H5  UNL     1      36.255  40.004  -5.192  1.00  0.00     0.184 HD
BRANCH   8  14
HETATM   14  N1  UNL     1      33.479  43.125  -7.805  1.00  0.00    -0.375 N
ATOM     15  H1  UNL     1      33.278  44.038  -7.396  1.00  0.00     0.161 HD
BRANCH  14  16
HETATM   16  C8  UNL     1      32.929  42.835  -9.112  1.00  0.00     0.126 C
BRANCH  16  17
HETATM   17  C9  UNL     1      33.655  43.701 -10.109  1.00  0.00     0.003 A
HETATM   18  C10 UNL     1      32.909  44.567 -11.050  1.00  0.00     0.007 A
HETATM   19  C11 UNL     1      33.464  43.282 -11.553  1.00  0.00     0.007 A
ENDBRANCH  16  17
ENDBRANCH  14  16
ENDBRANCH   8  14
BRANCH  11  20
HETATM   20  C4  UNL     1      35.754  38.988  -7.597  1.00  0.00     0.058 C
BRANCH  20  21
HETATM   21  C3  UNL     1      35.558  39.085  -9.099  1.00  0.00     0.006 C
BRANCH  21  22
HETATM   22  C2  UNL     1      35.908  37.753  -9.732  1.00  0.00    -0.004 C
HETATM   23  C1  UNL     1      37.149  37.964 -10.571  1.00  0.00     0.005 C
ENDBRANCH  21  22
ENDBRANCH  20  21
ENDBRANCH  11  20
ENDBRANCH   4   6
ENDBRANCH   1   4
TORSDOF 8
ENDMDL