MODEL 3
REMARK VINA RESULT: -7.357894652      2.505      3.433
REMARK  11 active torsions:
REMARK  status: ('A' for Active; 'I' for Inactive)
REMARK    1  A    between atoms: C2_2  and  C3_3
REMARK    2  A    between atoms: C4_5  and  O2_6
REMARK    3  A    between atoms: O2_6  and  C5_7
REMARK    4  A    between atoms: C5_7  and  O3_9
REMARK    5  A    between atoms: C5_7  and  C7_11
REMARK    6  A    between atoms: C7_11  and  C8_13
REMARK    7  A    between atoms: C8_13  and  C10_15
REMARK    8  A    between atoms: C10_15  and  O4_16
REMARK    9  A    between atoms: C10_15  and  N1_18
REMARK   10  A    between atoms: N1_18  and  C11_20
REMARK   11  A    between atoms: C16_25  and  O5_26
ROOT
HETATM    1  C8  UNL     1      17.062   5.657  12.761  1.00  0.00     0.029 C
HETATM    2  C9  UNL     1      17.197   5.835  11.268  1.00  0.00     0.056 C
ENDROOT
BRANCH   1   3
HETATM    3  C7  UNL     1      17.153   6.696  13.557  1.00  0.00     0.165 C
HETATM    4  F1  UNL     1      18.335   7.049  14.169  1.00  0.00    -0.204 F
BRANCH   3   5
HETATM    5  C5  UNL     1      16.012   7.601  13.916  1.00  0.00     0.217 C
HETATM    6  C6  UNL     1      16.196   8.072  15.323  1.00  0.00     0.087 C
BRANCH   5   7
HETATM    7  O2  UNL     1      15.998   8.666  13.059  1.00  0.00    -0.316 OA
BRANCH   7   8
HETATM    8  C4  UNL     1      14.991   8.685  12.142  1.00  0.00     0.297 A
HETATM    9  C3  UNL     1      14.440   9.908  11.542  1.00  0.00     0.202 A
HETATM   10  O1  UNL     1      13.697   9.036  12.492  1.00  0.00    -0.344 OA
BRANCH   9  11
HETATM   11  C2  UNL     1      13.873   9.850  10.159  1.00  0.00    -0.001 C
HETATM   12  C1  UNL     1      14.491   9.122   9.235  1.00  0.00     0.009 C
ENDBRANCH   9  11
ENDBRANCH   7   8
ENDBRANCH   5   7
BRANCH   5  13
HETATM   13  O3  UNL     1      14.837   6.834  13.820  1.00  0.00    -0.360 OA
ATOM     14  H3  UNL     1      14.732   6.251  14.563  1.00  0.00     0.213 HD
ENDBRANCH   5  13
ENDBRANCH   3   5
ENDBRANCH   1   3
BRANCH   1  15
HETATM   15  C10 UNL     1      16.840   4.324  13.230  1.00  0.00     0.145 C
BRANCH  15  16
HETATM   16  O4  UNL     1      17.698   3.451  12.749  1.00  0.00    -0.346 OA
ATOM     17  H4  UNL     1      17.803   2.683  13.298  1.00  0.00     0.219 HD
ENDBRANCH  15  16
BRANCH  15  18
HETATM   18  N1  UNL     1      15.888   3.795  14.096  1.00  0.00    -0.363 N
ATOM     19  H1  UNL     1      15.092   3.299  13.695  1.00  0.00     0.162 HD
BRANCH  18  20
HETATM   20  C11 UNL     1      15.969   3.915  15.552  1.00  0.00     0.112 C
HETATM   21  C12 UNL     1      14.732   4.687  15.973  1.00  0.00     0.028 C
HETATM   22  C13 UNL     1      14.970   5.074  17.408  1.00  0.00     0.002 C
HETATM   23  C14 UNL     1      15.148   3.886  18.273  1.00  0.00     0.003 C
HETATM   24  C15 UNL     1      15.310   2.584  17.581  1.00  0.00     0.034 C
HETATM   25  C16 UNL     1      15.929   2.600  16.244  1.00  0.00     0.140 C
BRANCH  25  26
HETATM   26  O5  UNL     1      17.249   2.090  16.267  1.00  0.00    -0.394 OA
ATOM     27  H5  UNL     1      17.753   2.626  16.869  1.00  0.00     0.210 HD
ENDBRANCH  25  26
ENDBRANCH  18  20
ENDBRANCH  15  18
ENDBRANCH   1  15
TORSDOF 11
ENDMDL