MODEL 2
REMARK VINA RESULT: -6.061789362      3.430      4.834
REMARK  6 active torsions:
REMARK  status: ('A' for Active; 'I' for Inactive)
REMARK    1  A    between atoms: C2_2  and  C3_3
REMARK    2  A    between atoms: C3_3  and  N1_4
REMARK    3  A    between atoms: C4_5  and  S1_6
REMARK    4  A    between atoms: S1_6  and  C5_7
REMARK    5  A    between atoms: C5_7  and  C6_8
REMARK    6  A    between atoms: C7_11  and  N3_12
ROOT
HETATM    1  S1  UNL     1      17.909   5.751  13.629  1.00  0.00    -0.086 SA
ENDROOT
BRANCH   1   2
HETATM    2  C4  UNL     1      16.895   5.312  15.028  1.00  0.00     0.148 A
HETATM    3  N1  UNL     1      16.024   6.169  15.631  1.00  0.00    -0.320 N
HETATM    4  C10 UNL     1      15.420   5.527  16.649  1.00  0.00     0.106 A
HETATM    5  C8  UNL     1      15.914   4.237  16.695  1.00  0.00     0.042 A
HETATM    6 BR1  UNL     1      14.113   6.297  17.804  1.00  0.00    -0.029 Br
HETATM    7  N6  UNL     1      16.816   4.141  15.687  1.00  0.00    -0.338 N
HETATM    8  C9  UNL     1      15.503   3.203  17.677  1.00  0.00     0.071 C
ATOM      9  H6  UNL     1      17.355   3.305  15.462  1.00  0.00     0.168 HD
BRANCH   3  10
HETATM   10  C3  UNL     1      15.796   7.537  15.234  1.00  0.00     0.131 C
BRANCH  10  11
HETATM   11  C2  UNL     1      16.650   8.483  16.069  1.00  0.00     0.016 C
HETATM   12  C1  UNL     1      17.732   9.125  15.266  1.00  0.00     0.006 C
ENDBRANCH  10  11
ENDBRANCH   3  10
ENDBRANCH   1   2
BRANCH   1  13
HETATM   13  C5  UNL     1      16.894   5.654  12.110  1.00  0.00     0.160 C
BRANCH  13  14
HETATM   14  C6  UNL     1      16.596   4.267  11.745  1.00  0.00     0.122 A
HETATM   15  N2  UNL     1      16.927   3.173  12.451  1.00  0.00    -0.177 N
HETATM   16  C7  UNL     1      16.500   2.064  11.828  1.00  0.00     0.691 A
ATOM     17  H2  UNL     1      17.434   3.184  13.336  1.00  0.00     0.185 HD
HETATM   18  N4  UNL     1      15.882   2.493  10.695  1.00  0.00    -0.131 N
HETATM   19  N5  UNL     1      15.946   3.816  10.657  1.00  0.00    -0.274 N
ATOM     20  H4  UNL     1      15.443   1.897   9.993  1.00  0.00     0.205 HD
ATOM     21  H5  UNL     1      15.563   4.402   9.916  1.00  0.00     0.189 HD
BRANCH  16  22
HETATM   22  N3  UNL     1      16.671   0.875  12.264  1.00  0.00    -0.233 N
ATOM     23  H32 UNL     1      16.801   0.545  13.220  1.00  0.00     0.174 HD
ATOM     24  H31 UNL     1      16.701   0.042  11.676  1.00  0.00     0.174 HD
ENDBRANCH  16  22
ENDBRANCH  13  14
ENDBRANCH   1  13
TORSDOF 6
ENDMDL