MODEL 2
REMARK VINA RESULT: -6.507299051      3.598      7.701
REMARK  8 active torsions:
REMARK  status: ('A' for Active; 'I' for Inactive)
REMARK    1  A    between atoms: C2_2  and  C3_3
REMARK    2  A    between atoms: C3_3  and  C4_4
REMARK    3  A    between atoms: C4_4  and  O1_5
REMARK    4  A    between atoms: O1_5  and  C5_6
REMARK    5  A    between atoms: C8_9  and  C9_10
REMARK    6  A    between atoms: C9_10  and  O2_11
REMARK    7  A    between atoms: C14_17  and  O3_18
REMARK    8  A    between atoms: C15_20  and  O4_21
ROOT
HETATM    1  C9  UNL     1      15.960   5.220  14.834  1.00  0.00     0.093 C
HETATM    2  C10 UNL     1      15.853   5.827  16.218  1.00  0.00     0.051 C
HETATM    3  C11 UNL     1      14.652   5.106  16.795  1.00  0.00     0.026 C
HETATM    4  C12 UNL     1      14.237   4.039  15.794  1.00  0.00     0.018 C
HETATM    5  C13 UNL     1      15.631   3.788  15.171  1.00  0.00     0.057 C
HETATM    6  C14 UNL     1      16.479   3.129  16.195  1.00  0.00     0.157 C
HETATM    7  C15 UNL     1      15.934   3.126  17.587  1.00  0.00     0.181 C
HETATM    8  C16 UNL     1      15.142   4.319  17.996  1.00  0.00     0.205 C
HETATM    9  F1  UNL     1      13.996   3.854  18.664  1.00  0.00    -0.246 F
ENDROOT
BRANCH   1  10
HETATM   10  C8  UNL     1      17.132   5.500  14.100  1.00  0.00    -0.008 A
HETATM   11  C7  UNL     1      18.015   6.540  14.439  1.00  0.00     0.016 A
HETATM   12  C6  UNL     1      19.130   6.780  13.655  1.00  0.00     0.057 A
HETATM   13  C5  UNL     1      19.467   6.081  12.548  1.00  0.00     0.141 A
HETATM   14  N1  UNL     1      18.547   5.057  12.270  1.00  0.00    -0.346 N
HETATM   15  C17 UNL     1      17.468   4.767  12.962  1.00  0.00     0.100 A
ATOM     16  H1  UNL     1      18.735   4.480  11.450  1.00  0.00     0.167 HD
BRANCH  13  17
HETATM   17  O1  UNL     1      20.412   6.142  11.678  1.00  0.00    -0.336 OA
BRANCH  17  18
HETATM   18  C4  UNL     1      21.559   6.162  11.064  1.00  0.00     0.177 C
BRANCH  18  19
HETATM   19  C3  UNL     1      22.587   7.180  11.559  1.00  0.00     0.026 C
BRANCH  19  20
HETATM   20  C2  UNL     1      23.983   6.726  11.233  1.00  0.00    -0.002 C
HETATM   21  C1  UNL     1      24.904   6.806  12.406  1.00  0.00     0.005 C
ENDBRANCH  19  20
ENDBRANCH  18  19
ENDBRANCH  17  18
ENDBRANCH  13  17
ENDBRANCH   1  10
BRANCH   1  22
HETATM   22  O2  UNL     1      14.773   5.704  14.182  1.00  0.00    -0.384 OA
ATOM     23  H2  UNL     1      14.609   5.267  13.355  1.00  0.00     0.211 HD
ENDBRANCH   1  22
BRANCH   6  24
HETATM   24  O3  UNL     1      17.810   3.497  16.221  1.00  0.00    -0.392 OA
ATOM     25  H3  UNL     1      18.209   3.699  15.382  1.00  0.00     0.210 HD
ENDBRANCH   6  24
BRANCH   7  26
HETATM   26  O4  UNL     1      15.272   1.923  17.892  1.00  0.00    -0.390 OA
ATOM     27  H4  UNL     1      14.333   1.990  17.757  1.00  0.00     0.210 HD
ENDBRANCH   7  26
TORSDOF 8
ENDMDL