MODEL 2
REMARK VINA RESULT: -7.502923518      2.981      5.770
REMARK  5 active torsions:
REMARK  status: ('A' for Active; 'I' for Inactive)
REMARK    1  A    between atoms: C7_8  and  N1_9
REMARK    2  A    between atoms: N1_9  and  C8_11
REMARK    3  A    between atoms: C8_11  and  C9_12
REMARK    4  A    between atoms: C9_12  and  C10_13
REMARK    5  A    between atoms: N2_14  and  C11_16
ROOT
HETATM    1  C11 UNL     1      15.620   5.299  14.615  1.00  0.00     0.138 A
HETATM    2  N3  UNL     1      15.846   5.199  13.288  1.00  0.00    -0.318 N
ATOM      3  H3  UNL     1      15.620   5.993  12.691  1.00  0.00     0.169 HD
HETATM    4  C12 UNL     1      16.356   4.094  12.727  1.00  0.00     0.191 A
HETATM    5  C13 UNL     1      16.568   4.061  11.286  1.00  0.00     0.137 C
HETATM    6  N4  UNL     1      16.715   4.040  10.136  1.00  0.00    -0.188 NA
HETATM    7  N5  UNL     1      16.669   3.021  13.488  1.00  0.00    -0.318 N
ATOM      8  H5  UNL     1      17.057   2.191  13.039  1.00  0.00     0.169 HD
HETATM    9  C14 UNL     1      16.482   3.019  14.816  1.00  0.00     0.139 A
HETATM   10  N6  UNL     1      16.684   2.150  15.822  1.00  0.00    -0.337 N
ATOM     11  H6  UNL     1      17.067   1.213  15.707  1.00  0.00     0.168 HD
HETATM   12  C15 UNL     1      16.315   2.680  16.999  1.00  0.00     0.182 A
HETATM   13  N7  UNL     1      15.865   3.932  16.702  1.00  0.00    -0.346 N
ATOM     14  H7  UNL     1      15.509   4.603  17.384  1.00  0.00     0.167 HD
HETATM   15  C16 UNL     1      15.959   4.156  15.378  1.00  0.00     0.122 A
ENDROOT
BRANCH   1  16
HETATM   16  N2  UNL     1      15.165   6.253  15.236  1.00  0.00    -0.354 N
HETATM   17  C10 UNL     1      15.359   7.363  15.993  1.00  0.00     0.064 C
ATOM     18  H2  UNL     1      14.153   6.177  15.133  1.00  0.00     0.166 HD
BRANCH  17  19
HETATM   19  C9  UNL     1      16.621   8.157  15.759  1.00  0.00     0.063 C
BRANCH  19  20
HETATM   20  C8  UNL     1      17.212   7.953  14.404  1.00  0.00     0.119 C
BRANCH  20  21
HETATM   21  N1  UNL     1      16.750   8.943  13.473  1.00  0.00    -0.416 N
ATOM     22  H1  UNL     1      17.000   9.926  13.572  1.00  0.00     0.153 HD
BRANCH  21  23
HETATM   23  C7  UNL     1      15.919   8.486  12.395  1.00  0.00     0.083 C
HETATM   24  C2  UNL     1      16.379   8.920  11.047  1.00  0.00     0.038 C
HETATM   25  C1  UNL     1      16.473   7.789  10.046  1.00  0.00     0.015 C
HETATM   26  C3  UNL     1      15.640  10.110  10.478  1.00  0.00     0.175 C
HETATM   27  F1  UNL     1      15.801  11.133  11.403  1.00  0.00    -0.249 F
HETATM   28  C4  UNL     1      14.172   9.766  10.453  1.00  0.00     0.038 C
HETATM   29  C5  UNL     1      13.739   9.692  11.901  1.00  0.00     0.005 C
HETATM   30  C6  UNL     1      14.455   8.669  12.685  1.00  0.00     0.025 C
ENDBRANCH  21  23
ENDBRANCH  20  21
ENDBRANCH  19  20
ENDBRANCH  17  19
ENDBRANCH   1  16
TORSDOF 5
ENDMDL