MODEL 5
REMARK VINA RESULT: -6.590757211      1.384      1.922
REMARK  6 active torsions:
REMARK  status: ('A' for Active; 'I' for Inactive)
REMARK    1  A    between atoms: C3_5  and  S1_6
REMARK    2  A    between atoms: S1_6  and  C4_7
REMARK    3  A    between atoms: C11_20  and  C12_21
REMARK    4  A    between atoms: N4_22  and  C13_24
REMARK    5  A    between atoms: C13_24  and  C14_25
REMARK    6  A    between atoms: C14_25  and  O2_26
ROOT
HETATM    1  C1  UNL     1      18.618   5.584  11.232  1.00  0.00     0.069 C
HETATM    2  C2  UNL     1      18.391   6.499  12.374  1.00  0.00     0.024 A
HETATM    3  N1  UNL     1      17.302   6.349  13.184  1.00  0.00    -0.340 N
ATOM      4  H1  UNL     1      16.638   5.597  12.998  1.00  0.00     0.168 HD
HETATM    5  C3  UNL     1      17.090   7.173  14.217  1.00  0.00     0.149 A
HETATM    6  N3  UNL     1      17.970   8.157  14.453  1.00  0.00    -0.303 N
ATOM      7  H3  UNL     1      17.805   8.782  15.242  1.00  0.00     0.171 HD
HETATM    8  C10 UNL     1      19.048   8.349  13.699  1.00  0.00     0.260 A
HETATM    9  O1  UNL     1      19.829   9.284  13.971  1.00  0.00    -0.267 OA
HETATM   10  C11 UNL     1      19.289   7.500  12.612  1.00  0.00     0.069 A
ENDROOT
BRANCH   5  11
HETATM   11  S1  UNL     1      15.649   6.908  15.218  1.00  0.00    -0.060 SA
BRANCH  11  12
HETATM   12  C4  UNL     1      15.843   5.484  16.324  1.00  0.00     0.254 C
HETATM   13  C5  UNL     1      14.884   5.611  17.469  1.00  0.00     0.044 C
HETATM   14  C6  UNL     1      14.735   4.348  18.267  1.00  0.00     0.003 C
HETATM   15  C7  UNL     1      14.203   3.193  17.482  1.00  0.00     0.002 C
HETATM   16  C8  UNL     1      15.319   2.328  16.911  1.00  0.00     0.027 C
HETATM   17  C9  UNL     1      16.387   3.180  16.271  1.00  0.00     0.233 C
HETATM   18  N2  UNL     1      15.737   4.274  15.582  1.00  0.00    -0.062 N
ATOM     19  H22 UNL     1      14.766   4.054  15.360  1.00  0.00     0.278 HD
ATOM     20  H21 UNL     1      16.092   4.384  14.632  1.00  0.00     0.278 HD
ENDBRANCH  11  12
ENDBRANCH   5  11
BRANCH  10  21
HETATM   21  C12 UNL     1      20.484   7.776  11.838  1.00  0.00     0.102 C
HETATM   22  N4  UNL     1      21.654   7.377  12.150  1.00  0.00    -0.396 N
ATOM     23  H4  UNL     1      21.759   6.825  13.002  1.00  0.00     0.158 HD
BRANCH  22  24
HETATM   24  C13 UNL     1      22.842   7.655  11.375  1.00  0.00     0.145 C
BRANCH  24  25
HETATM   25  C14 UNL     1      23.559   6.385  10.956  1.00  0.00     0.183 C
BRANCH  25  26
HETATM   26  O2  UNL     1      24.309   5.933  12.043  1.00  0.00    -0.399 OA
ATOM     27  H2  UNL     1      25.196   6.259  11.945  1.00  0.00     0.209 HD
ENDBRANCH  25  26
ENDBRANCH  24  25
ENDBRANCH  22  24
ENDBRANCH  10  21
TORSDOF 6
ENDMDL