MODEL 3
REMARK VINA RESULT: -7.123561052      1.500      2.807
REMARK  6 active torsions:
REMARK  status: ('A' for Active; 'I' for Inactive)
REMARK    1  A    between atoms: C4_6  and  C5_7
REMARK    2  A    between atoms: C5_7  and  C6_8
REMARK    3  A    between atoms: C6_8  and  C7_9
REMARK    4  A    between atoms: C7_9  and  C8_10
REMARK    5  A    between atoms: C8_10  and  N2_11
REMARK    6  A    between atoms: C14_25  and  N7_26
ROOT
HETATM    1  N1  UNL     1      17.033   2.525  12.632  1.00  0.00    -0.191 NA
HETATM    2  C1  UNL     1      16.682   3.355  13.368  1.00  0.00     0.103 C
HETATM    3  C2  UNL     1      16.278   4.364  14.275  1.00  0.00     0.099 A
HETATM    4  C3  UNL     1      16.149   5.713  14.028  1.00  0.00     0.080 A
HETATM    5 CL1  UNL     1      16.454   6.526  12.520  1.00  0.00    -0.081 Cl
HETATM    6  C4  UNL     1      15.731   6.317  15.196  1.00  0.00     0.041 A
HETATM    7  N4  UNL     1      15.611   5.341  16.133  1.00  0.00    -0.304 N
HETATM    8  C13 UNL     1      15.236   5.427  17.417  1.00  0.00     0.205 A
HETATM    9  N5  UNL     1      15.195   4.305  18.152  1.00  0.00    -0.294 N
ATOM     10  H5  UNL     1      14.912   4.364  19.130  1.00  0.00     0.187 HD
HETATM   11  N6  UNL     1      15.515   3.117  17.640  1.00  0.00    -0.283 N
ATOM     12  H6  UNL     1      15.470   2.288  18.232  1.00  0.00     0.188 HD
HETATM   13  C14 UNL     1      15.894   2.992  16.354  1.00  0.00     0.143 A
HETATM   14  C15 UNL     1      15.936   4.153  15.601  1.00  0.00     0.108 A
ENDROOT
BRANCH   6  15
HETATM   15  C5  UNL     1      15.457   7.760  15.412  1.00  0.00     0.059 C
BRANCH  15  16
HETATM   16  C6  UNL     1      16.720   8.490  15.845  1.00  0.00     0.008 C
BRANCH  16  17
HETATM   17  C7  UNL     1      17.480   9.007  14.647  1.00  0.00     0.020 C
BRANCH  17  18
HETATM   18  C8  UNL     1      18.921   8.563  14.657  1.00  0.00     0.121 C
BRANCH  18  19
HETATM   19  N2  UNL     1      19.450   8.536  13.311  1.00  0.00    -0.380 N
HETATM   20  C9  UNL     1      19.787   7.454  12.713  1.00  0.00     0.072 C
HETATM   21  C10 UNL     1      20.335   7.399  11.324  1.00  0.00     0.077 C
HETATM   22  N3  UNL     1      19.726   6.119  13.200  1.00  0.00    -0.380 N
HETATM   23  C11 UNL     1      21.029   6.059  11.314  1.00  0.00     0.027 C
HETATM   24  C12 UNL     1      20.043   5.201  12.115  1.00  0.00     0.121 C
ATOM     25  H3  UNL     1      19.496   5.849  14.156  1.00  0.00     0.160 HD
ATOM     26  H2  UNL     1      19.559   9.420  12.814  1.00  0.00     0.160 HD
ENDBRANCH  18  19
ENDBRANCH  17  18
ENDBRANCH  16  17
ENDBRANCH  15  16
ENDBRANCH   6  15
BRANCH  13  27
HETATM   27  N7  UNL     1      16.213   1.859  15.814  1.00  0.00    -0.383 N
ATOM     28  H72 UNL     1      16.107   0.995  16.345  1.00  0.00     0.157 HD
ATOM     29  H71 UNL     1      16.574   1.774  14.864  1.00  0.00     0.157 HD
ENDBRANCH  13  27
TORSDOF 6
ENDMDL