MODEL 3
REMARK VINA RESULT: -7.729016436      2.269      3.133
REMARK  8 active torsions:
REMARK  status: ('A' for Active; 'I' for Inactive)
REMARK    1  A    between atoms: C2_2  and  S1_3
REMARK    2  A    between atoms: C2_2  and  C15_21
REMARK    3  A    between atoms: S1_3  and  C3_4
REMARK    4  A    between atoms: C5_6  and  C6_7
REMARK    5  A    between atoms: C6_7  and  N1_8
REMARK    6  A    between atoms: N1_8  and  C7_11
REMARK    7  A    between atoms: C15_21  and  O2_22
REMARK    8  A    between atoms: N2_24  and  O3_26
ROOT
HETATM    1  C3  UNL     1      15.779   7.438  13.897  1.00  0.00     0.018 C
HETATM    2  C4  UNL     1      14.805   6.370  14.354  1.00  0.00     0.033 C
HETATM    3  C5  UNL     1      15.659   6.398  15.635  1.00  0.00    -0.009 C
HETATM    4  C10 UNL     1      16.956   5.859  15.119  1.00  0.00     0.018 C
HETATM    5  C11 UNL     1      17.159   6.822  13.935  1.00  0.00     0.005 C
HETATM    6  C12 UNL     1      17.987   7.952  14.472  1.00  0.00     0.007 C
HETATM    7  C13 UNL     1      17.070   8.489  15.580  1.00  0.00     0.007 C
HETATM    8  C14 UNL     1      15.728   7.883  15.375  1.00  0.00     0.015 C
ENDROOT
BRANCH   1   9
HETATM    9  S1  UNL     1      15.365   8.554  12.654  1.00  0.00    -0.145 SA
BRANCH   9  10
HETATM   10  C2  UNL     1      16.483   8.802  11.296  1.00  0.00     0.120 C
HETATM   11  C1  UNL     1      16.108  10.059  10.542  1.00  0.00     0.030 C
BRANCH  10  12
HETATM   12  C15 UNL     1      16.325   7.662  10.331  1.00  0.00     0.149 C
HETATM   13  N2  UNL     1      17.200   6.721  10.281  1.00  0.00    -0.250 N
ATOM     14  H2  UNL     1      18.005   6.760  10.906  1.00  0.00     0.196 HD
BRANCH  12  15
HETATM   15  O2  UNL     1      15.240   7.598   9.480  1.00  0.00    -0.347 OA
ATOM     16  H2  UNL     1      14.449   7.138   9.733  1.00  0.00     0.219 HD
ENDBRANCH  12  15
BRANCH  13  17
HETATM   17  O3  UNL     1      17.087   5.674   9.418  1.00  0.00    -0.288 OA
ATOM     18  H3  UNL     1      17.203   4.775   9.700  1.00  0.00     0.244 HD
ENDBRANCH  13  17
ENDBRANCH  10  12
ENDBRANCH   9  10
ENDBRANCH   1   9
BRANCH   3  19
HETATM   19  C6  UNL     1      15.070   5.864  16.843  1.00  0.00     0.243 C
BRANCH  19  20
HETATM   20  N1  UNL     1      15.749   4.651  17.256  1.00  0.00    -0.063 N
ATOM     21  H12 UNL     1      16.311   4.261  16.500  1.00  0.00     0.277 HD
ATOM     22  H11 UNL     1      16.495   4.849  17.922  1.00  0.00     0.277 HD
BRANCH  20  23
HETATM   23  C7  UNL     1      14.811   3.671  17.783  1.00  0.00     0.269 C
HETATM   24  C8  UNL     1      15.419   2.271  17.628  1.00  0.00     0.209 C
HETATM   25  O1  UNL     1      14.815   2.168  16.374  1.00  0.00    -0.352 OA
HETATM   26  C9  UNL     1      13.871   3.084  16.771  1.00  0.00     0.339 C
HETATM   27  F1  UNL     1      12.787   2.483  17.390  1.00  0.00    -0.217 F
ENDBRANCH  20  23
ENDBRANCH  19  20
ENDBRANCH   3  19
TORSDOF 8
ENDMDL