MODEL 3
REMARK VINA RESULT: -8.016081038      2.354      6.294
REMARK  8 active torsions:
REMARK  status: ('A' for Active; 'I' for Inactive)
REMARK    1  A    between atoms: C2_2  and  C3_3
REMARK    2  A    between atoms: C2_2  and  C11_18
REMARK    3  A    between atoms: C3_3  and  C4_4
REMARK    4  A    between atoms: C4_4  and  C5_5
REMARK    5  A    between atoms: C7_7  and  O1_8
REMARK    6  A    between atoms: C8_10  and  O2_11
REMARK    7  A    between atoms: C9_13  and  O3_14
REMARK    8  A    between atoms: C11_18  and  C12_19
ROOT
HETATM    1  C5  UNL     1      15.148   5.225  16.723  1.00  0.00    -0.045 C
HETATM    2  C6  UNL     1      14.153   4.706  17.430  1.00  0.00     0.013 C
HETATM    3  C7  UNL     1      13.999   3.218  17.433  1.00  0.00     0.172 C
HETATM    4  C8  UNL     1      15.336   2.584  17.620  1.00  0.00     0.182 C
HETATM    5  C9  UNL     1      16.461   3.212  16.876  1.00  0.00     0.188 C
HETATM    6  C10 UNL     1      16.071   4.341  15.965  1.00  0.00     0.230 C
HETATM    7  F1  UNL     1      15.515   3.902  14.783  1.00  0.00    -0.242 F
ENDROOT
BRANCH   1   8
HETATM    8  C4  UNL     1      15.336   6.681  16.693  1.00  0.00     0.041 C
BRANCH   8   9
HETATM    9  C3  UNL     1      15.278   7.273  15.322  1.00  0.00     0.038 C
BRANCH   9  10
HETATM   10  C2  UNL     1      16.571   7.938  15.046  1.00  0.00    -0.086 C
HETATM   11  C1  UNL     1      17.018   8.832  15.908  1.00  0.00     0.014 C
BRANCH  10  12
HETATM   12  C11 UNL     1      17.330   7.601  13.835  1.00  0.00     0.065 C
BRANCH  12  13
HETATM   13  C12 UNL     1      16.493   7.691  12.576  1.00  0.00     0.129 C
HETATM   14  C13 UNL     1      15.755   9.010  12.527  1.00  0.00     0.066 C
HETATM   15  C14 UNL     1      15.231   9.230  11.152  1.00  0.00    -0.081 C
HETATM   16  C15 UNL     1      14.042   9.769  10.961  1.00  0.00     0.015 C
HETATM   17  C16 UNL     1      16.098   8.819  10.014  1.00  0.00     0.033 C
HETATM   18  C17 UNL     1      15.374   8.765   8.708  1.00  0.00     0.017 C
HETATM   19  C18 UNL     1      16.595   7.407  10.349  1.00  0.00     0.176 C
HETATM   20  O4  UNL     1      17.347   7.515  11.499  1.00  0.00    -0.385 OA
ENDBRANCH  12  13
ENDBRANCH  10  12
ENDBRANCH   9  10
ENDBRANCH   8   9
ENDBRANCH   1   8
BRANCH   3  21
HETATM   21  O1  UNL     1      13.310   2.771  16.318  1.00  0.00    -0.389 OA
ATOM     22  H1  UNL     1      12.389   2.632  16.506  1.00  0.00     0.210 HD
ENDBRANCH   3  21
BRANCH   5  23
HETATM   23  O3  UNL     1      17.173   2.253  16.118  1.00  0.00    -0.390 OA
ATOM     24  H3  UNL     1      17.249   2.521  15.210  1.00  0.00     0.210 HD
ENDBRANCH   5  23
BRANCH   4  25
HETATM   25  O2  UNL     1      15.316   1.213  17.337  1.00  0.00    -0.390 OA
ATOM     26  H2  UNL     1      15.938   0.977  16.658  1.00  0.00     0.210 HD
ENDBRANCH   4  25
TORSDOF 8
ENDMDL