MODEL 5
REMARK VINA RESULT: -6.720107937      1.963      2.952
REMARK  6 active torsions:
REMARK  status: ('A' for Active; 'I' for Inactive)
REMARK    1  A    between atoms: C2_2  and  C3_3
REMARK    2  A    between atoms: C3_3  and  O1_4
REMARK    3  A    between atoms: C3_3  and  C4_6
REMARK    4  A    between atoms: C4_6  and  C5_8
REMARK    5  A    between atoms: C4_6  and  S1_10
REMARK    6  A    between atoms: S1_10  and  C7_12
ROOT
HETATM    1  C7  UNL     1      17.525   5.314  13.291  1.00  0.00     0.178 A
HETATM    2  N1  UNL     1      18.563   4.809  12.601  1.00  0.00    -0.344 N
ATOM      3  H1  UNL     1      18.595   3.802  12.434  1.00  0.00     0.167 HD
HETATM    4  C8  UNL     1      19.558   5.572  12.120  1.00  0.00     0.107 A
HETATM    5  C9  UNL     1      19.521   6.928  12.340  1.00  0.00     0.048 A
HETATM    6  C10 UNL     1      18.469   7.478  13.044  1.00  0.00     0.054 A
HETATM    7  N2  UNL     1      17.517   6.644  13.489  1.00  0.00    -0.335 N
ATOM      8  H2  UNL     1      16.737   7.044  14.010  1.00  0.00     0.168 HD
HETATM    9  C11 UNL     1      18.659   8.953  13.147  1.00  0.00     0.068 A
HETATM   10  C12 UNL     1      17.494   9.676  12.482  1.00  0.00     0.045 C
HETATM   11  C13 UNL     1      18.694   9.344  14.621  1.00  0.00     0.045 C
HETATM   12  N3  UNL     1      19.876   9.237  12.465  1.00  0.00    -0.362 N
ATOM     13  H3  UNL     1      20.293  10.161  12.353  1.00  0.00     0.162 HD
HETATM   14  C14 UNL     1      20.408   8.032  11.973  1.00  0.00     0.109 A
HETATM   15  N4  UNL     1      21.500   7.885  11.304  1.00  0.00    -0.385 N
ATOM     16  H41 UNL     1      22.119   8.654  11.047  1.00  0.00     0.157 HD
ATOM     17  H42 UNL     1      21.886   7.011  10.947  1.00  0.00     0.157 HD
ENDROOT
BRANCH   1  18
HETATM   18  S1  UNL     1      16.252   4.298  13.899  1.00  0.00     0.127 S
HETATM   19  O2  UNL     1      16.580   2.680  13.766  1.00  0.00    -0.246 OA
BRANCH  18  20
HETATM   20  C4  UNL     1      15.764   4.757  15.543  1.00  0.00     0.212 C
HETATM   21  F1  UNL     1      16.882   5.109  16.271  1.00  0.00    -0.225 F
BRANCH  20  22
HETATM   22  C3  UNL     1      15.115   3.558  16.177  1.00  0.00     0.171 C
BRANCH  22  23
HETATM   23  C2  UNL     1      15.742   3.172  17.486  1.00  0.00     0.031 C
HETATM   24  C1  UNL     1      15.002   3.945  18.576  1.00  0.00     0.007 C
ENDBRANCH  22  23
BRANCH  22  25
HETATM   25  O1  UNL     1      13.770   3.885  16.448  1.00  0.00    -0.391 OA
ATOM     26  H1  UNL     1      13.781   4.635  17.032  1.00  0.00     0.210 HD
ENDBRANCH  22  25
ENDBRANCH  20  22
BRANCH  20  27
HETATM   27  C5  UNL     1      14.843   5.943  15.476  1.00  0.00     0.056 C
HETATM   28  C6  UNL     1      15.416   7.051  16.327  1.00  0.00     0.009 C
ENDBRANCH  20  27
ENDBRANCH  18  20
ENDBRANCH   1  18
TORSDOF 6
ENDMDL