MODEL 2
REMARK VINA RESULT: -7.248187251      1.515      1.571
REMARK  8 active torsions:
REMARK  status: ('A' for Active; 'I' for Inactive)
REMARK    1  A    between atoms: O1_1  and  C1_3
REMARK    2  A    between atoms: C1_3  and  O2_4
REMARK    3  A    between atoms: C1_3  and  C2_6
REMARK    4  A    between atoms: C3_7  and  O3_8
REMARK    5  A    between atoms: O3_8  and  C4_9
REMARK    6  A    between atoms: C4_9  and  C5_10
REMARK    7  A    between atoms: C12_19  and  O4_20
REMARK    8  A    between atoms: O4_20  and  C13_21
ROOT
HETATM    1  C2  UNL     1      16.912   5.430  12.468  1.00  0.00     0.060 A
HETATM    2  C3  UNL     1      17.018   5.533  13.871  1.00  0.00     0.154 A
HETATM    3  N1  UNL     1      17.111   6.809  14.220  1.00  0.00    -0.339 N
ATOM      4  H1  UNL     1      17.198   7.164  15.172  1.00  0.00     0.168 HD
HETATM    5  C10 UNL     1      17.071   7.547  13.111  1.00  0.00     0.025 A
HETATM    6  C11 UNL     1      16.946   6.714  11.986  1.00  0.00     0.034 A
HETATM    7  C12 UNL     1      16.901   7.439  10.705  1.00  0.00     0.298 C
HETATM    8  O5  UNL     1      15.940   8.448  10.713  1.00  0.00    -0.356 OA
HETATM    9  C14 UNL     1      15.951   9.245  11.827  1.00  0.00     0.177 C
HETATM   10  C15 UNL     1      17.120   9.000  12.755  1.00  0.00     0.084 C
ENDROOT
BRANCH   2  11
HETATM   11  O3  UNL     1      17.013   4.420  14.655  1.00  0.00    -0.335 OA
BRANCH  11  12
HETATM   12  C4  UNL     1      15.984   3.834  15.376  1.00  0.00     0.182 C
BRANCH  12  13
HETATM   13  C5  UNL     1      15.839   4.457  16.711  1.00  0.00     0.010 C
HETATM   14  C6  UNL     1      14.794   5.577  16.721  1.00  0.00     0.007 C
HETATM   15  C7  UNL     1      14.670   5.826  18.215  1.00  0.00     0.000 C
HETATM   16  C8  UNL     1      14.940   4.469  18.874  1.00  0.00     0.000 C
HETATM   17  C9  UNL     1      15.180   3.510  17.723  1.00  0.00     0.007 C
ENDBRANCH  12  13
ENDBRANCH  11  12
ENDBRANCH   2  11
BRANCH   1  18
HETATM   18  C1  UNL     1      16.795   4.207  11.667  1.00  0.00     0.293 C
BRANCH  18  19
HETATM   19  O1  UNL     1      15.520   3.670  11.613  1.00  0.00    -0.367 OA
ATOM     20  H1  UNL     1      15.143   3.982  10.798  1.00  0.00     0.213 HD
ENDBRANCH  18  19
BRANCH  18  21
HETATM   21  O2  UNL     1      17.596   3.228  12.302  1.00  0.00    -0.367 OA
ATOM     22  H2  UNL     1      18.382   3.681  12.584  1.00  0.00     0.213 HD
ENDBRANCH  18  21
ENDBRANCH   1  18
BRANCH   7  23
HETATM   23  O4  UNL     1      16.759   6.683   9.586  1.00  0.00    -0.343 OA
BRANCH  23  24
HETATM   24  C13 UNL     1      17.994   6.477   8.987  1.00  0.00     0.285 C
HETATM   25 CL1  UNL     1      17.880   6.714   7.211  1.00  0.00    -0.102 Cl
ENDBRANCH  23  24
ENDBRANCH   7  23
TORSDOF 8
ENDMDL