MODEL 3
REMARK VINA RESULT: -6.486173104      2.772      4.909
REMARK  6 active torsions:
REMARK  status: ('A' for Active; 'I' for Inactive)
REMARK    1  A    between atoms: C2_2  and  O1_3
REMARK    2  A    between atoms: C3_5  and  C4_6
REMARK    3  A    between atoms: C4_6  and  O2_7
REMARK    4  A    between atoms: C4_6  and  N1_9
REMARK    5  A    between atoms: N1_9  and  C5_11
REMARK    6  A    between atoms: C9_18  and  C10_19
ROOT
HETATM    1  C10 UNL     1      16.889  50.726  18.779  1.00  0.00     0.108 C
HETATM    2  N3  UNL     1      17.431  50.906  20.091  1.00  0.00    -0.086 NA
HETATM    3  N4  UNL     1      15.735  51.220  18.529  1.00  0.00    -0.285 N
ATOM      4  H4  UNL     1      15.334  51.099  17.598  1.00  0.00     0.179 HD
HETATM    5  C11 UNL     1      15.008  51.920  19.498  1.00  0.00     0.182 C
HETATM    6  N5  UNL     1      14.400  52.491  20.312  1.00  0.00    -0.172 NA
ENDROOT
BRANCH   1   7
HETATM    7  C9  UNL     1      17.724  49.977  17.832  1.00  0.00     0.076 C
HETATM    8  C5  UNL     1      17.791  50.548  16.444  1.00  0.00     0.116 C
HETATM    9  C6  UNL     1      18.527  49.504  15.605  1.00  0.00     0.257 C
HETATM   10  N2  UNL     1      19.796  49.165  16.202  1.00  0.00    -0.073 N
HETATM   11  C7  UNL     1      20.159  49.988  17.312  1.00  0.00     0.233 C
ATOM     12  H22 UNL     1      19.815  48.181  16.467  1.00  0.00     0.277 HD
ATOM     13  H21 UNL     1      20.535  49.169  15.499  1.00  0.00     0.277 HD
HETATM   14  C8  UNL     1      19.149  50.062  18.403  1.00  0.00     0.041 C
BRANCH   8  15
HETATM   15  N1  UNL     1      16.596  51.010  15.903  1.00  0.00    -0.387 N
ATOM     16  H1  UNL     1      15.753  50.448  16.021  1.00  0.00     0.156 HD
BRANCH  15  17
HETATM   17  C4  UNL     1      16.507  52.211  15.204  1.00  0.00     0.240 C
BRANCH  17  18
HETATM   18  C3  UNL     1      15.409  53.041  15.774  1.00  0.00     0.057 C
HETATM   19  C2  UNL     1      14.516  53.678  15.062  1.00  0.00     0.039 C
HETATM   20  C1  UNL     1      14.482  53.654  13.575  1.00  0.00     0.076 C
BRANCH  19  21
HETATM   21  O1  UNL     1      13.541  54.419  15.752  1.00  0.00    -0.366 OA
ATOM     22  H1  UNL     1      13.722  55.327  15.967  1.00  0.00     0.217 HD
ENDBRANCH  19  21
ENDBRANCH  17  18
BRANCH  17  23
HETATM   23  O2  UNL     1      17.648  53.041  15.263  1.00  0.00    -0.374 OA
ATOM     24  H2  UNL     1      18.204  52.736  14.556  1.00  0.00     0.212 HD
ENDBRANCH  17  23
ENDBRANCH  15  17
ENDBRANCH   8  15
ENDBRANCH   1   7
TORSDOF 6
ENDMDL