MODEL 4
REMARK VINA RESULT: -5.458735130      4.842      6.014
REMARK  10 active torsions:
REMARK  status: ('A' for Active; 'I' for Inactive)
REMARK    1  A    between atoms: C2_2  and  O1_3
REMARK    2  A    between atoms: C2_2  and  C3_5
REMARK    3  A    between atoms: C3_5  and  N1_6
REMARK    4  A    between atoms: C3_5  and  C4_10
REMARK    5  A    between atoms: C4_10  and  O2_11
REMARK    6  A    between atoms: C4_10  and  C5_13
REMARK    7  A    between atoms: C7_15  and  N2_16
REMARK    8  A    between atoms: C8_20  and  N3_21
REMARK    9  A    between atoms: N3_21  and  N4_23
REMARK   10  A    between atoms: N4_23  and  N5_24
ROOT
HETATM    1  C5  UNL     1      18.411  46.475  16.515  1.00  0.00     0.218 C
HETATM    2  C6  UNL     1      17.642  46.292  15.263  1.00  0.00     0.070 C
HETATM    3  C7  UNL     1      17.206  44.822  15.195  1.00  0.00     0.212 C
HETATM    4  C8  UNL     1      16.231  44.606  16.309  1.00  0.00     0.170 C
HETATM    5  C9  UNL     1      16.844  44.999  17.630  1.00  0.00     0.262 C
HETATM    6  N6  UNL     1      17.445  46.287  17.619  1.00  0.00    -0.066 N
ATOM      7  H61 UNL     1      16.733  47.018  17.606  1.00  0.00     0.277 HD
ATOM      8  H62 UNL     1      17.880  46.492  18.519  1.00  0.00     0.277 HD
ENDROOT
BRANCH   1   9
HETATM    9  C4  UNL     1      18.922  47.885  16.737  1.00  0.00     0.181 C
BRANCH   9  10
HETATM   10  C3  UNL     1      17.917  48.963  16.546  1.00  0.00     0.242 C
BRANCH  10  11
HETATM   11  C2  UNL     1      18.433  49.884  15.438  1.00  0.00     0.147 C
HETATM   12  C1  UNL     1      18.263  51.335  15.836  1.00  0.00     0.041 C
BRANCH  11  13
HETATM   13  O1  UNL     1      17.686  49.688  14.286  1.00  0.00    -0.394 OA
ATOM     14  H1  UNL     1      18.300  49.620  13.564  1.00  0.00     0.210 HD
ENDBRANCH  11  13
ENDBRANCH  10  11
BRANCH  10  15
HETATM   15  N1  UNL     1      17.720  49.829  17.691  1.00  0.00    -0.070 N
ATOM     16  H13 UNL     1      17.840  50.821  17.486  1.00  0.00     0.274 HD
ATOM     17  H12 UNL     1      16.750  49.890  18.001  1.00  0.00     0.274 HD
ATOM     18  H11 UNL     1      18.359  49.475  18.403  1.00  0.00     0.274 HD
ENDBRANCH  10  15
ENDBRANCH   9  10
BRANCH   9  19
HETATM   19  O2  UNL     1      19.851  48.070  15.670  1.00  0.00    -0.391 OA
ATOM     20  H2  UNL     1      19.499  48.798  15.172  1.00  0.00     0.210 HD
ENDBRANCH   9  19
ENDBRANCH   1   9
BRANCH   3  21
HETATM   21  N2  UNL     1      18.348  43.938  15.281  1.00  0.00    -0.073 N
ATOM     22  H23 UNL     1      18.070  42.958  15.231  1.00  0.00     0.274 HD
ATOM     23  H22 UNL     1      18.920  43.980  14.437  1.00  0.00     0.274 HD
ATOM     24  H21 UNL     1      18.897  44.131  16.118  1.00  0.00     0.274 HD
ENDBRANCH   3  21
BRANCH   4  25
HETATM   25  N3  UNL     1      15.890  43.187  16.390  1.00  0.00    -0.244 N
ATOM     26  H3  UNL     1      16.025  42.643  17.243  1.00  0.00     0.197 HD
BRANCH  25  27
HETATM   27  N4  UNL     1      15.422  42.684  15.350  1.00  0.00    -0.248 NA
BRANCH  27  28
HETATM   28  N5  UNL     1      14.985  41.882  14.499  1.00  0.00    -0.261 N
ATOM     29  H52 UNL     1      14.869  41.120  15.166  1.00  0.00     0.193 HD
ATOM     30  H51 UNL     1      14.668  41.455  13.629  1.00  0.00     0.193 HD
ENDBRANCH  27  28
ENDBRANCH  25  27
ENDBRANCH   4  25
TORSDOF 10
ENDMDL