MODEL 2
REMARK VINA RESULT: -5.718407884      2.769      5.798
REMARK  5 active torsions:
REMARK  status: ('A' for Active; 'I' for Inactive)
REMARK    1  A    between atoms: N1_2  and  C2_3
REMARK    2  A    between atoms: N1_2  and  C9_15
REMARK    3  A    between atoms: C2_3  and  C3_4
REMARK    4  A    between atoms: C9_15  and  C10_16
REMARK    5  A    between atoms: C9_15  and  C11_20
ROOT
HETATM    1  C3  UNL     1      17.724  44.991  15.812  1.00  0.00     0.120 C
HETATM    2  C4  UNL     1      18.007  45.032  14.331  1.00  0.00     0.258 C
HETATM    3  N2  UNL     1      18.236  43.752  13.744  1.00  0.00    -0.071 N
ATOM      4  H21 UNL     1      19.091  43.301  14.069  1.00  0.00     0.277 HD
ATOM      5  H22 UNL     1      18.488  43.795  12.756  1.00  0.00     0.277 HD
HETATM    6  C5  UNL     1      17.021  42.971  14.008  1.00  0.00     0.261 C
HETATM    7  C6  UNL     1      16.860  42.746  15.499  1.00  0.00     0.042 C
HETATM    8  C7  UNL     1      15.514  42.043  15.670  1.00  0.00     0.039 C
HETATM    9  C8  UNL     1      17.927  41.791  15.979  1.00  0.00     0.039 C
HETATM   10  N3  UNL     1      16.913  43.924  16.256  1.00  0.00    -0.404 N
ATOM     11  H3  UNL     1      16.373  44.009  17.117  1.00  0.00     0.154 HD
ENDROOT
BRANCH   1  12
HETATM   12  C2  UNL     1      17.089  46.358  16.113  1.00  0.00     0.144 C
BRANCH  12  13
HETATM   13  N1  UNL     1      18.039  47.054  16.904  1.00  0.00    -0.398 N
HETATM   14  C1  UNL     1      18.122  46.723  18.259  1.00  0.00     0.144 C
BRANCH  13  15
HETATM   15  C9  UNL     1      18.329  48.387  16.523  1.00  0.00     0.219 C
BRANCH  15  16
HETATM   16  C10 UNL     1      17.406  48.830  15.464  1.00  0.00     0.089 C
HETATM   17  N4  UNL     1      17.698  49.869  14.782  1.00  0.00    -0.409 N
ATOM     18  H42 UNL     1      18.562  50.374  14.980  1.00  0.00     0.155 HD
ATOM     19  H41 UNL     1      17.059  50.176  14.048  1.00  0.00     0.155 HD
ENDBRANCH  15  16
BRANCH  15  20
HETATM   20  C11 UNL     1      19.734  48.578  16.117  1.00  0.00     0.201 C
HETATM   21  O1  UNL     1      20.390  47.578  15.736  1.00  0.00    -0.646 OA
HETATM   22  O2  UNL     1      20.345  49.834  16.148  1.00  0.00    -0.646 OA
ENDBRANCH  15  20
ENDBRANCH  13  15
ENDBRANCH  12  13
ENDBRANCH   1  12
TORSDOF 5
ENDMDL