MODEL 1
REMARK VINA RESULT: -6.425533152      0.000      0.000
REMARK  7 active torsions:
REMARK  status: ('A' for Active; 'I' for Inactive)
REMARK    1  A    between atoms: N1_1  and  C1_5
REMARK    2  A    between atoms: C4_8  and  S1_9
REMARK    3  A    between atoms: S1_9  and  C5_10
REMARK    4  A    between atoms: C7_15  and  C8_16
REMARK    5  A    between atoms: C8_16  and  N3_17
REMARK    6  A    between atoms: C8_16  and  O1_21
REMARK    7  A    between atoms: C9_23  and  O2_24
ROOT
HETATM    1  C5  UNL     1      18.257  50.024  17.035  1.00  0.00     0.276 C
HETATM    2  N2  UNL     1      17.104  50.748  17.565  1.00  0.00    -0.059 N
ATOM      3  H21 UNL     1      17.318  51.418  18.303  1.00  0.00     0.278 HD
ATOM      4  H22 UNL     1      16.463  50.187  18.126  1.00  0.00     0.278 HD
HETATM    5  C6  UNL     1      16.521  51.327  16.356  1.00  0.00     0.245 C
HETATM    6  C7  UNL     1      17.613  51.417  15.332  1.00  0.00     0.099 C
HETATM    7  C9  UNL     1      18.853  51.135  16.172  1.00  0.00     0.168 C
ENDROOT
BRANCH   1   8
HETATM    8  S1  UNL     1      17.704  48.765  15.877  1.00  0.00    -0.129 SA
BRANCH   8   9
HETATM    9  C4  UNL     1      18.100  47.088  16.383  1.00  0.00     0.051 C
HETATM   10  C3  UNL     1      17.754  46.792  17.814  1.00  0.00     0.017 C
HETATM   11  C2  UNL     1      17.178  45.401  17.861  1.00  0.00     0.034 C
HETATM   12  C1  UNL     1      17.145  44.874  16.457  1.00  0.00     0.184 C
HETATM   13  C10 UNL     1      17.454  46.033  15.533  1.00  0.00     0.048 C
BRANCH  12  14
HETATM   14  N1  UNL     1      15.848  44.323  16.120  1.00  0.00    -0.075 N
ATOM     15  H13 UNL     1      15.562  43.610  16.791  1.00  0.00     0.274 HD
ATOM     16  H12 UNL     1      15.104  45.001  16.280  1.00  0.00     0.274 HD
ATOM     17  H11 UNL     1      15.826  43.965  15.165  1.00  0.00     0.274 HD
ENDBRANCH  12  14
ENDBRANCH   8   9
ENDBRANCH   1   8
BRANCH   7  18
HETATM   18  O2  UNL     1      19.918  50.692  15.410  1.00  0.00    -0.392 OA
ATOM     19  H2  UNL     1      19.969  51.133  14.571  1.00  0.00     0.210 HD
ENDBRANCH   7  18
BRANCH   6  20
HETATM   20  C8  UNL     1      17.673  52.720  14.609  1.00  0.00     0.324 C
BRANCH  20  21
HETATM   21  N3  UNL     1      16.380  53.275  14.293  1.00  0.00    -0.053 N
ATOM     22  H33 UNL     1      15.637  52.687  14.669  1.00  0.00     0.277 HD
ATOM     23  H32 UNL     1      16.214  54.126  14.831  1.00  0.00     0.277 HD
ATOM     24  H31 UNL     1      16.233  53.446  13.298  1.00  0.00     0.277 HD
ENDBRANCH  20  21
BRANCH  20  25
HETATM   25  O1  UNL     1      18.341  52.476  13.398  1.00  0.00    -0.369 OA
ATOM     26  H1  UNL     1      18.862  53.249  13.215  1.00  0.00     0.212 HD
ENDBRANCH  20  25
ENDBRANCH   6  20
TORSDOF 7
ENDMDL