MODEL 3
REMARK VINA RESULT: -6.045541470      3.508      5.286
REMARK  6 active torsions:
REMARK  status: ('A' for Active; 'I' for Inactive)
REMARK       I    between atoms: C1_4  and  N3_6
REMARK       I    between atoms: N3_6  and  C2_8
REMARK    1  A    between atoms: C2_8  and  C3_10
REMARK    2  A    between atoms: C3_10  and  O2_11
REMARK    3  A    between atoms: O2_11  and  C4_12
REMARK    4  A    between atoms: C4_12  and  C5_13
REMARK    5  A    between atoms: C7_15  and  N4_16
REMARK    6  A    between atoms: C8_21  and  N5_22
ROOT
HETATM    1  C5  UNL     1      18.856  49.357  15.984  1.00  0.00     0.053 C
HETATM    2  C6  UNL     1      17.761  48.489  15.370  1.00  0.00     0.053 C
HETATM    3  C7  UNL     1      17.678  47.244  16.168  1.00  0.00     0.247 C
HETATM    4  S1  UNL     1      18.048  47.790  17.858  1.00  0.00    -0.103 SA
HETATM    5  C8  UNL     1      18.561  49.517  17.422  1.00  0.00     0.252 C
ENDROOT
BRANCH   1   6
HETATM    6  C4  UNL     1      18.891  50.624  15.220  1.00  0.00     0.175 C
BRANCH   6   7
HETATM    7  O2  UNL     1      17.801  51.307  14.907  1.00  0.00    -0.382 OA
BRANCH   7   8
HETATM    8  C3  UNL     1      17.654  52.633  14.934  1.00  0.00     0.270 C
BRANCH   8   9
HETATM    9  C2  UNL     1      16.207  53.055  14.903  1.00  0.00     0.247 C
HETATM   10  N3  UNL     1      15.634  53.380  13.670  1.00  0.00    -0.300 N
HETATM   11  C1  UNL     1      14.269  53.780  13.623  1.00  0.00     0.188 C
ATOM     12  H3  UNL     1      16.187  53.330  12.815  1.00  0.00     0.171 HD
HETATM   13  N1  UNL     1      13.751  54.075  12.491  1.00  0.00    -0.373 N
HETATM   14  N2  UNL     1      13.508  53.848  14.809  1.00  0.00    -0.064 NA
ATOM     15  H12 UNL     1      12.772  54.362  12.458  1.00  0.00     0.158 HD
ATOM     16  H11 UNL     1      14.301  54.026  11.634  1.00  0.00     0.158 HD
HETATM   17  O1  UNL     1      15.579  53.102  15.954  1.00  0.00    -0.271 OA
ENDBRANCH   8   9
ENDBRANCH   7   8
ENDBRANCH   6   7
ENDBRANCH   1   6
BRANCH   5  18
HETATM   18  N5  UNL     1      17.427  50.327  17.745  1.00  0.00    -0.066 N
ATOM     19  H53 UNL     1      16.620  49.731  17.930  1.00  0.00     0.275 HD
ATOM     20  H52 UNL     1      17.557  50.752  18.664  1.00  0.00     0.275 HD
ATOM     21  H51 UNL     1      17.179  51.044  17.064  1.00  0.00     0.275 HD
ENDBRANCH   5  18
BRANCH   3  22
HETATM   22  N4  UNL     1      18.583  46.210  15.782  1.00  0.00    -0.066 N
ATOM     23  H43 UNL     1      18.842  46.319  14.802  1.00  0.00     0.275 HD
ATOM     24  H42 UNL     1      19.491  46.355  16.225  1.00  0.00     0.275 HD
ATOM     25  H41 UNL     1      18.258  45.259  15.955  1.00  0.00     0.275 HD
ENDBRANCH   3  22
TORSDOF 6
ENDMDL