MODEL 1
REMARK VINA RESULT: -5.970883245      0.000      0.000
REMARK  4 active torsions:
REMARK  status: ('A' for Active; 'I' for Inactive)
REMARK    1  A    between atoms: C2_2  and  S1_3
REMARK    2  A    between atoms: S1_3  and  C3_4
REMARK    3  A    between atoms: C4_8  and  C5_9
REMARK    4  A    between atoms: C6_13  and  N3_14
REMARK       I    between atoms: N3_14  and  C7_16
ROOT
HETATM    1  C3  UNL     1      17.205  52.192  15.646  1.00  0.00     0.209 C
HETATM    2  N1  UNL     1      18.109  51.612  14.675  1.00  0.00    -0.123 NA
HETATM    3  N2  UNL     1      19.164  50.936  15.252  1.00  0.00    -0.301 N
ATOM      4  H2  UNL     1      20.136  51.150  15.029  1.00  0.00     0.179 HD
HETATM    5  C4  UNL     1      18.801  49.915  16.184  1.00  0.00     0.337 C
HETATM    6  O3  UNL     1      17.408  49.991  16.382  1.00  0.00    -0.328 OA
HETATM    7  C6  UNL     1      17.191  51.301  16.865  1.00  0.00     0.258 C
ENDROOT
BRANCH   7   8
HETATM    8  N3  UNL     1      15.922  51.401  17.543  1.00  0.00    -0.316 N
HETATM    9  C7  UNL     1      15.789  51.282  18.933  1.00  0.00     0.330 C
HETATM   10  N4  UNL     1      14.515  51.390  19.537  1.00  0.00    -0.040 NA
HETATM   11  O4  UNL     1      16.804  51.081  19.634  1.00  0.00    -0.251 OA
ATOM     12  H3  UNL     1      15.084  51.567  16.986  1.00  0.00     0.166 HD
ENDBRANCH   7   8
BRANCH   1  13
HETATM   13  S1  UNL     1      15.517  52.300  15.022  1.00  0.00    -0.142 SA
BRANCH  13  14
HETATM   14  C2  UNL     1      15.185  53.848  14.160  1.00  0.00     0.071 C
HETATM   15  C1  UNL     1      13.902  53.782  13.366  1.00  0.00     0.016 C
ENDBRANCH  13  14
ENDBRANCH   1  13
BRANCH   5  16
HETATM   16  C5  UNL     1      19.196  48.562  15.773  1.00  0.00     0.225 C
HETATM   17  O1  UNL     1      18.326  47.735  15.413  1.00  0.00    -0.645 OA
HETATM   18  O2  UNL     1      20.545  48.231  15.792  1.00  0.00    -0.645 OA
ENDBRANCH   5  16
TORSDOF 4
ENDMDL