MODEL 4
REMARK VINA RESULT: -6.539044639      5.014      7.113
REMARK  5 active torsions:
REMARK  status: ('A' for Active; 'I' for Inactive)
REMARK       I    between atoms: C1_4  and  N3_6
REMARK    1  A    between atoms: N3_6  and  N4_8
REMARK    2  A    between atoms: N4_8  and  N5_9
REMARK       I    between atoms: N5_9  and  C2_11
REMARK       I    between atoms: C2_11  and  N7_21
REMARK    3  A    between atoms: N6_12  and  C3_14
REMARK    4  A    between atoms: C3_14  and  C4_15
REMARK    5  A    between atoms: N7_21  and  N8_23
ROOT
HETATM    1  N5  UNL     1      17.505  51.438  15.134  1.00  0.00    -0.115 N
ATOM      2  H5  UNL     1      17.132  50.811  14.421  1.00  0.00     0.203 HD
HETATM    3  C2  UNL     1      17.931  50.932  16.392  1.00  0.00     0.710 C
HETATM    4  N6  UNL     1      19.186  50.992  16.655  1.00  0.00    -0.219 N
ATOM      5  H6  UNL     1      19.801  51.397  15.949  1.00  0.00     0.178 HD
HETATM    6  N7  UNL     1      16.933  50.407  17.243  1.00  0.00    -0.071 N
ATOM      7  H7  UNL     1      16.682  49.421  17.169  1.00  0.00     0.212 HD
ENDROOT
BRANCH   1   8
HETATM    8  N4  UNL     1      17.604  52.803  14.892  1.00  0.00    -0.005 NA
BRANCH   8   9
HETATM    9  N3  UNL     1      16.637  53.150  13.969  1.00  0.00    -0.257 N
HETATM   10  C1  UNL     1      15.384  53.656  14.384  1.00  0.00     0.199 C
HETATM   11  N1  UNL     1      15.166  53.889  15.640  1.00  0.00    -0.373 N
HETATM   12  N2  UNL     1      14.358  53.916  13.446  1.00  0.00    -0.063 NA
ATOM     13  H12 UNL     1      14.262  54.254  15.939  1.00  0.00     0.158 HD
ATOM     14  H11 UNL     1      15.906  53.702  16.316  1.00  0.00     0.158 HD
ATOM     15  H3  UNL     1      16.830  53.040  12.973  1.00  0.00     0.187 HD
ENDBRANCH   8   9
ENDBRANCH   1   8
BRANCH   4  16
HETATM   16  C3  UNL     1      19.783  50.527  17.875  1.00  0.00     0.176 C
BRANCH  16  17
HETATM   17  C4  UNL     1      20.804  49.485  17.621  1.00  0.00    -0.040 A
HETATM   18  C5  UNL     1      20.615  48.443  16.730  1.00  0.00     0.009 A
HETATM   19  C6  UNL     1      21.600  47.491  16.528  1.00  0.00     0.001 A
HETATM   20  C7  UNL     1      22.790  47.559  17.207  1.00  0.00     0.000 A
HETATM   21  C8  UNL     1      22.989  48.579  18.087  1.00  0.00     0.001 A
HETATM   22  C9  UNL     1      22.004  49.536  18.293  1.00  0.00     0.009 A
ENDBRANCH  16  17
ENDBRANCH   4  16
BRANCH   6  23
HETATM   23  N8  UNL     1      16.288  51.205  18.180  1.00  0.00    -0.024 N
HETATM   24  O1  UNL     1      15.318  51.950  17.896  1.00  0.00    -0.516 OA
HETATM   25  O2  UNL     1      16.703  51.205  19.478  1.00  0.00    -0.516 OA
ENDBRANCH   6  23
TORSDOF 5
ENDMDL