MODEL 2
REMARK VINA RESULT: -6.184332269      2.718      6.472
REMARK  6 active torsions:
REMARK  status: ('A' for Active; 'I' for Inactive)
REMARK    1  A    between atoms: O1_2  and  N1_3
REMARK    2  A    between atoms: C2_5  and  C4_7
REMARK    3  A    between atoms: C4_7  and  N2_8
REMARK    4  A    between atoms: C4_7  and  C5_12
REMARK       I    between atoms: C5_12  and  N3_14
REMARK    5  A    between atoms: N3_14  and  C6_16
REMARK    6  A    between atoms: C9_21  and  N6_22
ROOT
HETATM    1  C5  UNL     1      17.528  48.328  15.565  1.00  0.00     0.254 C
HETATM    2  O2  UNL     1      17.187  48.257  14.356  1.00  0.00    -0.271 OA
HETATM    3  N3  UNL     1      17.410  49.592  16.206  1.00  0.00    -0.351 N
ATOM      4  H3  UNL     1      17.681  49.670  17.187  1.00  0.00     0.163 HD
ENDROOT
BRANCH   1   5
HETATM    5  C4  UNL     1      18.021  47.129  16.244  1.00  0.00     0.321 C
BRANCH   5   6
HETATM    6  C2  UNL     1      17.354  45.890  15.847  1.00  0.00     0.045 C
HETATM    7  N1  UNL     1      17.500  45.414  14.665  1.00  0.00    -0.273 N
ATOM      8  H1  UNL     1      18.092  45.916  14.003  1.00  0.00     0.193 HD
HETATM    9  C3  UNL     1      16.496  45.157  16.801  1.00  0.00     0.068 C
BRANCH   7  10
HETATM   10  O1  UNL     1      16.888  44.251  14.257  1.00  0.00    -0.285 OA
HETATM   11  C1  UNL     1      17.579  43.103  13.850  1.00  0.00     0.237 C
ENDBRANCH   7  10
ENDBRANCH   5   6
BRANCH   5  12
HETATM   12  N2  UNL     1      17.957  47.346  17.691  1.00  0.00    -0.061 N
ATOM     13  H23 UNL     1      18.360  48.246  17.949  1.00  0.00     0.275 HD
ATOM     14  H22 UNL     1      16.999  47.504  18.001  1.00  0.00     0.275 HD
ATOM     15  H21 UNL     1      18.393  46.583  18.211  1.00  0.00     0.275 HD
ENDBRANCH   5  12
ENDBRANCH   1   5
BRANCH   3  16
HETATM   16  C6  UNL     1      16.930  50.753  15.538  1.00  0.00     0.133 C
HETATM   17  C7  UNL     1      16.089  51.652  16.433  1.00  0.00     0.046 C
HETATM   18  C8  UNL     1      15.327  52.569  15.489  1.00  0.00     0.132 C
HETATM   19  N4  UNL     1      16.274  53.180  14.611  1.00  0.00    -0.146 NA
HETATM   20  N5  UNL     1      17.595  52.989  14.969  1.00  0.00    -0.113 NA
HETATM   21  C9  UNL     1      18.012  51.610  14.943  1.00  0.00     0.313 C
BRANCH  21  22
HETATM   22  N6  UNL     1      18.305  51.257  13.570  1.00  0.00    -0.058 N
ATOM     23  H63 UNL     1      19.303  51.093  13.438  1.00  0.00     0.276 HD
ATOM     24  H62 UNL     1      17.955  50.325  13.348  1.00  0.00     0.276 HD
ATOM     25  H61 UNL     1      17.956  51.949  12.907  1.00  0.00     0.276 HD
ENDBRANCH  21  22
ENDBRANCH   3  16
TORSDOF 6
ENDMDL