MODEL 1
REMARK VINA RESULT: -6.137914901      0.000      0.000
REMARK  9 active torsions:
REMARK  status: ('A' for Active; 'I' for Inactive)
REMARK    1  A    between atoms: C2_2  and  C3_3
REMARK    2  A    between atoms: C3_3  and  N1_4
REMARK    3  A    between atoms: N1_4  and  C4_6
REMARK    4  A    between atoms: C5_9  and  N3_10
REMARK    5  A    between atoms: N3_10  and  C6_12
REMARK    6  A    between atoms: C6_12  and  C7_13
REMARK    7  A    between atoms: C9_17  and  N5_18
REMARK    8  A    between atoms: N5_18  and  C10_20
REMARK    9  A    between atoms: C10_20  and  C11_21
ROOT
HETATM    1  C4  UNL     1      37.395  40.672  -4.325  1.00  0.00     0.707 A
HETATM    2  N2  UNL     1      36.362  40.916  -5.161  1.00  0.00    -0.022 N
ATOM      3  H2  UNL     1      36.046  40.209  -5.825  1.00  0.00     0.203 HD
HETATM    4  C5  UNL     1      35.767  42.112  -5.095  1.00  0.00     0.707 A
HETATM    5  N4  UNL     1      36.185  43.054  -4.214  1.00  0.00    -0.022 N
ATOM      6  H4  UNL     1      35.715  43.959  -4.181  1.00  0.00     0.203 HD
HETATM    7  C9  UNL     1      37.210  42.807  -3.387  1.00  0.00     0.707 A
HETATM    8  N6  UNL     1      37.812  41.599  -3.453  1.00  0.00    -0.022 N
ATOM      9  H6  UNL     1      38.594  41.391  -2.831  1.00  0.00     0.203 HD
ENDROOT
BRANCH   1  10
HETATM   10  N1  UNL     1      37.972  39.509  -4.392  1.00  0.00    -0.225 N
ATOM     11  H1  UNL     1      37.692  38.831  -5.101  1.00  0.00     0.177 HD
BRANCH  10  12
HETATM   12  C3  UNL     1      39.031  39.190  -3.433  1.00  0.00     0.137 C
BRANCH  12  13
HETATM   13  C2  UNL     1      38.542  38.078  -2.524  1.00  0.00     0.016 C
HETATM   14  C1  UNL     1      37.955  38.598  -1.252  1.00  0.00     0.006 C
ENDBRANCH  12  13
ENDBRANCH  10  12
ENDBRANCH   1  10
BRANCH   4  15
HETATM   15  N3  UNL     1      34.787  42.432  -5.841  1.00  0.00    -0.225 N
ATOM     16  H3  UNL     1      33.899  42.687  -5.410  1.00  0.00     0.177 HD
BRANCH  15  17
HETATM   17  C6  UNL     1      34.893  42.445  -7.262  1.00  0.00     0.137 C
BRANCH  17  18
HETATM   18  C7  UNL     1      33.579  42.840  -7.951  1.00  0.00     0.016 C
HETATM   19  C8  UNL     1      33.927  43.167  -9.384  1.00  0.00     0.006 C
ENDBRANCH  17  18
ENDBRANCH  15  17
ENDBRANCH   4  15
BRANCH   7  20
HETATM   20  N5  UNL     1      37.618  43.708  -2.537  1.00  0.00    -0.225 N
ATOM     21  H5  UNL     1      38.364  44.358  -2.784  1.00  0.00     0.177 HD
BRANCH  20  22
HETATM   22  C10 UNL     1      36.996  43.763  -1.253  1.00  0.00     0.137 C
BRANCH  22  23
HETATM   23  C11 UNL     1      37.783  43.125  -0.163  1.00  0.00     0.016 C
HETATM   24  C12 UNL     1      37.176  41.884   0.396  1.00  0.00     0.006 C
ENDBRANCH  22  23
ENDBRANCH  20  22
ENDBRANCH   7  20
TORSDOF 9
ENDMDL