MODEL 4
REMARK VINA RESULT: -5.474875218      2.667      5.041
REMARK  8 active torsions:
REMARK  status: ('A' for Active; 'I' for Inactive)
REMARK    1  A    between atoms: N1_1  and  C1_5
REMARK    2  A    between atoms: C1_5  and  C2_6
REMARK    3  A    between atoms: C2_6  and  C3_7
REMARK    4  A    between atoms: C3_7  and  C4_8
REMARK    5  A    between atoms: C4_8  and  C5_9
REMARK    6  A    between atoms: C5_9  and  N2_10
REMARK    7  A    between atoms: C7_15  and  C8_16
REMARK    8  A    between atoms: C8_16  and  C9_17
ROOT
HETATM    1  N2  UNL     1      34.947  40.898  -6.838  1.00  0.00    -0.313 N
HETATM    2  C6  UNL     1      35.726  41.462  -5.810  1.00  0.00     0.321 A
HETATM    3  O1  UNL     1      36.706  41.102  -5.079  1.00  0.00    -0.247 OA
HETATM    4  N3  UNL     1      34.974  42.648  -5.889  1.00  0.00    -0.321 N
ATOM      5  H3  UNL     1      34.955  43.519  -5.359  1.00  0.00     0.166 HD
HETATM    6  C7  UNL     1      34.255  42.146  -6.998  1.00  0.00     0.193 A
ENDROOT
BRANCH   1   7
HETATM    7  C5  UNL     1      34.919  39.575  -7.427  1.00  0.00     0.130 C
BRANCH   7   8
HETATM    8  C4  UNL     1      35.706  39.506  -8.699  1.00  0.00     0.020 C
BRANCH   8   9
HETATM    9  C3  UNL     1      35.197  38.333  -9.525  1.00  0.00     0.003 C
BRANCH   9  10
HETATM   10  C2  UNL     1      36.073  38.115 -10.741  1.00  0.00     0.027 C
BRANCH  10  11
HETATM   11  C1  UNL     1      37.366  37.481 -10.243  1.00  0.00     0.229 C
BRANCH  11  12
HETATM   12  N1  UNL     1      38.469  37.933 -11.081  1.00  0.00    -0.079 N
ATOM     13  H13 UNL     1      39.377  37.644 -10.718  1.00  0.00     0.274 HD
ATOM     14  H12 UNL     1      38.509  37.438 -11.973  1.00  0.00     0.274 HD
ATOM     15  H11 UNL     1      38.402  38.943 -11.201  1.00  0.00     0.274 HD
ENDBRANCH  11  12
ENDBRANCH  10  11
ENDBRANCH   9  10
ENDBRANCH   8   9
ENDBRANCH   7   8
ENDBRANCH   1   7
BRANCH   6  16
HETATM   16  C8  UNL     1      34.404  42.858  -8.304  1.00  0.00     0.052 C
BRANCH  16  17
HETATM   17  C9  UNL     1      33.195  42.970  -9.158  1.00  0.00    -0.008 C
HETATM   18  C10 UNL     1      33.588  43.901 -10.319  1.00  0.00     0.032 C
HETATM   19  C11 UNL     1      32.418  44.318 -11.136  1.00  0.00     0.232 C
HETATM   20  N4  UNL     1      31.577  43.153 -11.331  1.00  0.00    -0.075 N
HETATM   21  C12 UNL     1      32.385  41.949 -11.257  1.00  0.00     0.232 C
ATOM     22  H42 UNL     1      30.793  43.131 -10.679  1.00  0.00     0.277 HD
ATOM     23  H41 UNL     1      31.044  43.204 -12.200  1.00  0.00     0.277 HD
HETATM   24  C13 UNL     1      32.852  41.649  -9.852  1.00  0.00     0.032 C
ENDBRANCH  16  17
ENDBRANCH   6  16
TORSDOF 8
ENDMDL