MODEL 2
REMARK VINA RESULT: -6.145637283      1.001      1.149
REMARK  8 active torsions:
REMARK  status: ('A' for Active; 'I' for Inactive)
REMARK    1  A    between atoms: C8_9  and  N2_10
REMARK    2  A    between atoms: N2_10  and  C9_12
REMARK    3  A    between atoms: C9_12  and  C10_13
REMARK    4  A    between atoms: C10_13  and  C11_14
REMARK    5  A    between atoms: C11_14  and  C12_15
REMARK    6  A    between atoms: C12_15  and  C13_16
REMARK    7  A    between atoms: C13_16  and  C14_17
REMARK    8  A    between atoms: C14_17  and  N3_18
ROOT
HETATM    1  C1  UNL     1      32.776  43.801  -8.866  1.00  0.00     0.068 C
HETATM    2  C2  UNL     1      33.591  42.682  -8.300  1.00  0.00     0.007 A
HETATM    3  C3  UNL     1      33.730  41.495  -8.989  1.00  0.00     0.033 A
HETATM    4  C4  UNL     1      34.483  40.474  -8.453  1.00  0.00    -0.036 A
HETATM    5  C5  UNL     1      34.616  39.194  -9.226  1.00  0.00     0.050 C
HETATM    6  C6  UNL     1      35.094  40.630  -7.246  1.00  0.00     0.094 A
HETATM    7  C7  UNL     1      35.881  39.548  -6.701  1.00  0.00     0.104 C
HETATM    8  N1  UNL     1      36.534  38.681  -6.254  1.00  0.00    -0.191 NA
HETATM    9  C8  UNL     1      34.963  41.832  -6.534  1.00  0.00     0.126 A
HETATM   10  N4  UNL     1      34.208  42.797  -7.114  1.00  0.00    -0.345 N
ATOM     11  H4  UNL     1      34.100  43.678  -6.610  1.00  0.00     0.167 HD
ENDROOT
BRANCH   9  12
HETATM   12  N2  UNL     1      35.539  41.895  -5.445  1.00  0.00    -0.355 N
ATOM     13  H2  UNL     1      35.131  41.156  -4.872  1.00  0.00     0.166 HD
BRANCH  12  14
HETATM   14  C9  UNL     1      36.476  42.504  -4.655  1.00  0.00     0.062 C
BRANCH  14  15
HETATM   15  C10 UNL     1      37.557  41.574  -4.148  1.00  0.00     0.044 C
BRANCH  15  16
HETATM   16  C11 UNL     1      38.119  42.216  -2.863  1.00  0.00     0.005 C
BRANCH  16  17
HETATM   17  C12 UNL     1      37.281  43.445  -2.596  1.00  0.00     0.002 C
BRANCH  17  18
HETATM   18  C13 UNL     1      36.880  43.491  -1.157  1.00  0.00     0.027 C
BRANCH  18  19
HETATM   19  C14 UNL     1      36.123  42.260  -0.761  1.00  0.00     0.229 C
BRANCH  19  20
HETATM   20  N3  UNL     1      34.867  42.193  -1.523  1.00  0.00    -0.079 N
ATOM     21  H33 UNL     1      34.119  42.730  -1.084  1.00  0.00     0.274 HD
ATOM     22  H32 UNL     1      34.920  42.709  -2.402  1.00  0.00     0.274 HD
ATOM     23  H31 UNL     1      34.608  41.216  -1.664  1.00  0.00     0.274 HD
ENDBRANCH  19  20
ENDBRANCH  18  19
ENDBRANCH  17  18
ENDBRANCH  16  17
ENDBRANCH  15  16
ENDBRANCH  14  15
ENDBRANCH  12  14
ENDBRANCH   9  12
TORSDOF 8
ENDMDL