MODEL 3
REMARK VINA RESULT: -6.420665447      1.581      6.578
REMARK  8 active torsions:
REMARK  status: ('A' for Active; 'I' for Inactive)
REMARK    1  A    between atoms: C2_2  and  C3_3
REMARK    2  A    between atoms: C3_3  and  C4_4
REMARK    3  A    between atoms: C4_4  and  C5_5
REMARK    4  A    between atoms: C5_5  and  N1_6
REMARK    5  A    between atoms: C7_11  and  N3_12
REMARK    6  A    between atoms: C9_17  and  N5_18
REMARK    7  A    between atoms: N5_18  and  C10_20
REMARK    8  A    between atoms: C10_20  and  C11_21
ROOT
HETATM    1  N1  UNL     1      36.684  41.532  -4.352  1.00  0.00    -0.225 N
ATOM      2  H1  UNL     1      37.173  40.695  -4.036  1.00  0.00     0.177 HD
HETATM    3  C6  UNL     1      35.863  41.383  -5.319  1.00  0.00     0.707 A
HETATM    4  N2  UNL     1      35.730  40.120  -5.826  1.00  0.00    -0.022 N
ATOM      5  H2  UNL     1      36.280  39.360  -5.423  1.00  0.00     0.203 HD
HETATM    6  C7  UNL     1      34.891  39.858  -6.845  1.00  0.00     0.706 A
HETATM    7  N4  UNL     1      34.194  40.897  -7.336  1.00  0.00    -0.022 N
ATOM      8  H4  UNL     1      33.548  40.734  -8.109  1.00  0.00     0.203 HD
HETATM    9  C9  UNL     1      34.316  42.158  -6.840  1.00  0.00     0.707 A
HETATM   10  N6  UNL     1      35.163  42.396  -5.820  1.00  0.00    -0.022 N
ATOM     11  H6  UNL     1      35.266  43.336  -5.438  1.00  0.00     0.203 HD
ENDROOT
BRANCH   1  12
HETATM   12  C5  UNL     1      36.986  42.740  -3.670  1.00  0.00     0.138 C
BRANCH  12  13
HETATM   13  C4  UNL     1      37.609  42.383  -2.327  1.00  0.00     0.020 C
BRANCH  13  14
HETATM   14  C3  UNL     1      36.736  43.005  -1.248  1.00  0.00     0.001 C
BRANCH  14  15
HETATM   15  C2  UNL     1      36.619  44.494  -1.411  1.00  0.00    -0.004 C
HETATM   16  C1  UNL     1      37.914  45.135  -1.036  1.00  0.00     0.005 C
ENDBRANCH  14  15
ENDBRANCH  13  14
ENDBRANCH  12  13
ENDBRANCH   1  12
BRANCH   6  17
HETATM   17  N3  UNL     1      34.810  38.657  -7.276  1.00  0.00    -0.229 N
HETATM   18  C8  UNL     1      35.899  37.821  -7.664  1.00  0.00     0.165 C
ATOM     19  H3  UNL     1      33.874  38.258  -7.351  1.00  0.00     0.177 HD
ENDBRANCH   6  17
BRANCH   9  20
HETATM   20  N5  UNL     1      33.647  43.152  -7.313  1.00  0.00    -0.225 N
ATOM     21  H5  UNL     1      33.590  44.038  -6.809  1.00  0.00     0.177 HD
BRANCH  20  22
HETATM   22  C10 UNL     1      32.978  42.970  -8.585  1.00  0.00     0.137 C
BRANCH  22  23
HETATM   23  C11 UNL     1      33.895  43.391  -9.727  1.00  0.00     0.016 C
HETATM   24  C12 UNL     1      33.145  44.236 -10.748  1.00  0.00     0.006 C
ENDBRANCH  22  23
ENDBRANCH  20  22
ENDBRANCH   9  20
TORSDOF 8
ENDMDL