MODEL 5
REMARK VINA RESULT: -6.233235000      2.269      2.669
REMARK  6 active torsions:
REMARK  status: ('A' for Active; 'I' for Inactive)
REMARK    1  A    between atoms: C3_3  and  C4_4
REMARK    2  A    between atoms: C4_4  and  C5_5
REMARK    3  A    between atoms: C5_5  and  N1_6
REMARK    4  A    between atoms: N1_6  and  C7_8
REMARK    5  A    between atoms: C7_8  and  C8_9
REMARK    6  A    between atoms: C10_13  and  C11_14
ROOT
HETATM    1  C1  UNL     1      37.338  41.985   0.847  1.00  0.00     0.012 C
HETATM    2  C2  UNL     1      37.671  42.774  -0.011  1.00  0.00    -0.117 C
HETATM    3  C3  UNL     1      38.069  43.734  -1.056  1.00  0.00     0.098 C
ENDROOT
BRANCH   3   4
HETATM    4  C4  UNL     1      36.998  43.752  -2.122  1.00  0.00     0.057 C
BRANCH   4   5
HETATM    5  C5  UNL     1      36.584  42.333  -2.456  1.00  0.00     0.064 C
BRANCH   5   6
HETATM    6  N1  UNL     1      37.365  41.718  -3.442  1.00  0.00    -0.372 N
HETATM    7  C6  UNL     1      38.282  40.715  -3.114  1.00  0.00     0.154 C
BRANCH   6   8
HETATM    8  C7  UNL     1      37.362  42.308  -4.709  1.00  0.00     0.120 C
BRANCH   8   9
HETATM    9  C8  UNL     1      36.201  41.808  -5.507  1.00  0.00     0.064 A
HETATM   10  C9  UNL     1      35.134  42.524  -6.015  1.00  0.00     0.120 A
HETATM   11  N2  UNL     1      34.314  41.682  -6.668  1.00  0.00    -0.353 N
HETATM   12  C10 UNL     1      34.842  40.427  -6.588  1.00  0.00     0.087 A
ATOM     13  H2  UNL     1      33.447  41.937  -7.142  1.00  0.00     0.166 HD
HETATM   14  N4  UNL     1      35.975  40.536  -5.886  1.00  0.00    -0.343 N
ATOM     15  H4  UNL     1      36.590  39.753  -5.664  1.00  0.00     0.167 HD
BRANCH  12  16
HETATM   16  C11 UNL     1      34.218  39.212  -7.191  1.00  0.00     0.071 C
HETATM   17  C12 UNL     1      33.068  38.775  -6.302  1.00  0.00     0.015 C
HETATM   18  C13 UNL     1      32.492  37.532  -6.994  1.00  0.00     0.020 C
HETATM   19  C14 UNL     1      31.883  38.069  -8.286  1.00  0.00     0.113 C
HETATM   20  N3  UNL     1      32.880  38.593  -9.163  1.00  0.00    -0.420 N
HETATM   21  C15 UNL     1      33.802  39.520  -8.579  1.00  0.00     0.126 C
ATOM     22  H3  UNL     1      32.932  38.323 -10.145  1.00  0.00     0.153 HD
ENDBRANCH  12  16
ENDBRANCH   8   9
ENDBRANCH   6   8
ENDBRANCH   5   6
ENDBRANCH   4   5
ENDBRANCH   3   4
TORSDOF 6
ENDMDL