MODEL 3
REMARK VINA RESULT: -5.793542289      1.084      1.655
REMARK  7 active torsions:
REMARK  status: ('A' for Active; 'I' for Inactive)
REMARK    1  A    between atoms: C2_2  and  C3_3
REMARK    2  A    between atoms: C3_3  and  C4_4
REMARK    3  A    between atoms: C4_4  and  C5_5
REMARK    4  A    between atoms: C5_5  and  C6_6
REMARK    5  A    between atoms: C7_9  and  C8_10
REMARK    6  A    between atoms: C8_10  and  S1_11
REMARK    7  A    between atoms: N3_17  and  N4_19
ROOT
HETATM    1  C6  UNL     1      32.909  42.976  -9.028  1.00  0.00     0.146 C
HETATM    2  N1  UNL     1      32.074  42.039  -9.704  1.00  0.00    -0.404 N
ATOM      3  H1  UNL     1      31.348  42.343 -10.353  1.00  0.00     0.154 HD
HETATM    4  C7  UNL     1      32.301  40.665  -9.433  1.00  0.00     0.104 C
HETATM    5  C10 UNL     1      33.759  40.288  -9.337  1.00  0.00     0.149 C
HETATM    6  N2  UNL     1      34.378  41.106  -8.315  1.00  0.00    -0.370 N
HETATM    7  C11 UNL     1      35.599  40.671  -7.657  1.00  0.00     0.151 C
HETATM    8  C12 UNL     1      33.744  42.332  -7.989  1.00  0.00     0.116 C
HETATM    9  N3  UNL     1      33.886  42.862  -6.856  1.00  0.00    -0.294 N
ATOM     10  H3  UNL     1      33.391  43.743  -6.722  1.00  0.00     0.187 HD
ENDROOT
BRANCH   1  11
HETATM   11  C5  UNL     1      33.889  43.530 -10.072  1.00  0.00     0.033 C
BRANCH  11  12
HETATM   12  C4  UNL     1      33.173  43.826 -11.371  1.00  0.00     0.006 C
BRANCH  12  13
HETATM   13  C3  UNL     1      32.327  45.065 -11.160  1.00  0.00     0.026 C
BRANCH  13  14
HETATM   14  C2  UNL     1      32.528  46.063 -12.220  1.00  0.00    -0.037 C
HETATM   15  C1  UNL     1      33.630  46.032 -12.939  1.00  0.00     0.007 C
ENDBRANCH  13  14
ENDBRANCH  12  13
ENDBRANCH  11  12
ENDBRANCH   1  11
BRANCH   4  16
HETATM   16  C8  UNL     1      31.734  39.870 -10.616  1.00  0.00     0.099 C
BRANCH  16  17
HETATM   17  S1  UNL     1      30.370  38.811 -10.045  1.00  0.00    -0.171 SA
HETATM   18  C9  UNL     1      30.995  37.786  -8.686  1.00  0.00     0.089 C
ENDBRANCH  16  17
ENDBRANCH   4  16
BRANCH   9  19
HETATM   19  N4  UNL     1      34.604  42.428  -5.782  1.00  0.00    -0.344 N
ATOM     20  H42 UNL     1      35.264  41.680  -5.997  1.00  0.00     0.176 HD
ATOM     21  H41 UNL     1      34.573  42.742  -4.813  1.00  0.00     0.176 HD
ENDBRANCH   9  19
TORSDOF 7
ENDMDL