MODEL 2
REMARK VINA RESULT: -6.725982539      1.053      1.088
REMARK  8 active torsions:
REMARK  status: ('A' for Active; 'I' for Inactive)
REMARK    1  A    between atoms: C2_2  and  C3_3
REMARK    2  A    between atoms: C3_3  and  C4_4
REMARK    3  A    between atoms: C4_4  and  N1_5
REMARK    4  A    between atoms: C6_10  and  N3_11
REMARK    5  A    between atoms: N3_11  and  C7_13
REMARK    6  A    between atoms: C7_13  and  C8_14
REMARK    7  A    between atoms: C8_14  and  C9_15
REMARK    8  A    between atoms: C9_15  and  N4_16
ROOT
HETATM    1  N1  UNL     1      33.599  43.114  -7.779  1.00  0.00    -0.355 N
ATOM      2  H1  UNL     1      33.559  44.038  -7.348  1.00  0.00     0.166 HD
HETATM    3  C5  UNL     1      34.359  42.358  -7.147  1.00  0.00     0.128 A
HETATM    4  N2  UNL     1      34.973  42.893  -6.038  1.00  0.00    -0.176 N
ATOM      5  H2  UNL     1      34.773  43.865  -5.802  1.00  0.00     0.186 HD
HETATM    6  C6  UNL     1      35.809  42.221  -5.258  1.00  0.00     0.679 A
HETATM    7  N5  UNL     1      36.092  40.952  -5.539  1.00  0.00    -0.195 N
ATOM      8  H5  UNL     1      36.735  40.434  -4.941  1.00  0.00     0.184 HD
HETATM    9  C10 UNL     1      35.545  40.354  -6.592  1.00  0.00     0.032 A
HETATM   10  C11 UNL     1      35.845  38.920  -6.934  1.00  0.00     0.069 C
HETATM   11  C12 UNL     1      34.678  41.046  -7.402  1.00  0.00     0.005 A
HETATM   12  C13 UNL     1      34.074  40.355  -8.583  1.00  0.00     0.054 C
ENDROOT
BRANCH   6  13
HETATM   13  N3  UNL     1      36.329  42.820  -4.242  1.00  0.00    -0.226 N
ATOM     14  H3  UNL     1      35.808  43.602  -3.846  1.00  0.00     0.177 HD
BRANCH  13  15
HETATM   15  C7  UNL     1      37.564  42.488  -3.627  1.00  0.00     0.139 C
BRANCH  15  16
HETATM   16  C8  UNL     1      37.427  41.815  -2.286  1.00  0.00     0.047 C
BRANCH  16  17
HETATM   17  C9  UNL     1      36.224  42.474  -1.596  1.00  0.00     0.231 C
BRANCH  17  18
HETATM   18  N4  UNL     1      35.114  41.539  -1.534  1.00  0.00    -0.079 N
ATOM     19  H43 UNL     1      34.660  41.544  -0.621  1.00  0.00     0.274 HD
ATOM     20  H42 UNL     1      34.321  41.848  -2.097  1.00  0.00     0.274 HD
ATOM     21  H41 UNL     1      35.430  40.606  -1.800  1.00  0.00     0.274 HD
ENDBRANCH  17  18
ENDBRANCH  16  17
ENDBRANCH  15  16
ENDBRANCH  13  15
ENDBRANCH   6  13
BRANCH   1  22
HETATM   22  C4  UNL     1      32.782  43.052  -8.916  1.00  0.00     0.062 C
BRANCH  22  23
HETATM   23  C3  UNL     1      33.547  43.705 -10.068  1.00  0.00     0.044 C
BRANCH  23  24
HETATM   24  C2  UNL     1      33.520  42.828 -11.299  1.00  0.00     0.001 C
HETATM   25  C1  UNL     1      33.203  43.574 -12.553  1.00  0.00     0.005 C
ENDBRANCH  23  24
ENDBRANCH  22  23
ENDBRANCH   1  22
TORSDOF 8
ENDMDL