MODEL 1
REMARK VINA RESULT: -6.221578635      0.000      0.000
REMARK  8 active torsions:
REMARK  status: ('A' for Active; 'I' for Inactive)
REMARK    1  A    between atoms: C2_2  and  C3_3
REMARK    2  A    between atoms: C3_3  and  C4_4
REMARK    3  A    between atoms: C4_4  and  C5_5
REMARK    4  A    between atoms: C5_5  and  C6_6
REMARK    5  A    between atoms: C6_6  and  C7_7
REMARK    6  A    between atoms: C8_8  and  C9_9
REMARK    7  A    between atoms: C9_9  and  O1_10
REMARK    8  A    between atoms: C11_14  and  O3_15
ROOT
HETATM    1  C7  UNL     1      38.343  41.726  -3.750  1.00  0.00     0.024 C
HETATM    2  C8  UNL     1      37.465  42.710  -4.343  1.00  0.00     0.150 C
HETATM    3  O2  UNL     1      37.045  43.576  -3.317  1.00  0.00    -0.375 OA
HETATM    4  C10 UNL     1      37.982  43.504  -2.319  1.00  0.00     0.156 C
HETATM    5  C11 UNL     1      37.422  43.767  -0.947  1.00  0.00     0.152 C
HETATM    6  C12 UNL     1      36.418  42.637  -0.796  1.00  0.00     0.022 A
HETATM    7  C13 UNL     1      36.885  41.358  -0.185  1.00  0.00     0.013 A
HETATM    8  C14 UNL     1      36.985  41.486  -1.649  1.00  0.00    -0.001 A
HETATM    9  C15 UNL     1      38.243  41.998  -2.249  1.00  0.00     0.028 C
ENDROOT
BRANCH   1  10
HETATM   10  C6  UNL     1      38.156  40.285  -4.071  1.00  0.00     0.007 C
BRANCH  10  11
HETATM   11  C5  UNL     1      39.533  39.642  -4.112  1.00  0.00     0.000 C
BRANCH  11  12
HETATM   12  C4  UNL     1      39.667  38.541  -3.084  1.00  0.00     0.000 C
BRANCH  12  13
HETATM   13  C3  UNL     1      38.352  38.043  -2.591  1.00  0.00    -0.000 C
BRANCH  13  14
HETATM   14  C2  UNL     1      38.439  37.838  -1.093  1.00  0.00    -0.005 C
HETATM   15  C1  UNL     1      39.545  36.893  -0.741  1.00  0.00     0.005 C
ENDBRANCH  13  14
ENDBRANCH  12  13
ENDBRANCH  11  12
ENDBRANCH  10  11
ENDBRANCH   1  10
BRANCH   2  16
HETATM   16  C9  UNL     1      36.250  42.269  -5.076  1.00  0.00     0.196 C
BRANCH  16  17
HETATM   17  O1  UNL     1      35.479  43.246  -5.630  1.00  0.00    -0.398 OA
ATOM     18  H1  UNL     1      34.813  42.968  -6.248  1.00  0.00     0.209 HD
ENDBRANCH  16  17
ENDBRANCH   2  16
BRANCH   5  19
HETATM   19  O3  UNL     1      38.466  43.542  -0.031  1.00  0.00    -0.393 OA
ATOM     20  H3  UNL     1      38.833  44.392   0.181  1.00  0.00     0.210 HD
ENDBRANCH   5  19
TORSDOF 8
ENDMDL