MODEL 3
REMARK VINA RESULT: -6.238380940      1.243      1.835
REMARK  6 active torsions:
REMARK  status: ('A' for Active; 'I' for Inactive)
REMARK    1  A    between atoms: N1_2  and  C2_5
REMARK    2  A    between atoms: C2_5  and  C3_6
REMARK    3  A    between atoms: N2_9  and  C6_10
REMARK    4  A    between atoms: C6_10  and  C7_11
REMARK    5  A    between atoms: C7_11  and  N3_12
REMARK    6  A    between atoms: N3_12  and  C8_14
ROOT
HETATM    1  C3  UNL     1      33.687  41.964  -9.478  1.00  0.00     0.017 C
HETATM    2  C4  UNL     1      33.947  40.522  -9.054  1.00  0.00     0.026 C
HETATM    3  C5  UNL     1      35.231  40.501  -8.311  1.00  0.00     0.122 C
HETATM    4  N2  UNL     1      35.370  41.467  -7.288  1.00  0.00    -0.392 N
HETATM    5  C13 UNL     1      34.757  42.699  -7.418  1.00  0.00     0.058 C
HETATM    6  C14 UNL     1      33.482  42.760  -8.233  1.00  0.00     0.050 C
ENDROOT
BRANCH   4   7
HETATM    7  C6  UNL     1      35.704  40.953  -5.998  1.00  0.00     0.141 C
BRANCH   7   8
HETATM    8  C7  UNL     1      36.133  42.207  -5.195  1.00  0.00     0.134 C
BRANCH   8   9
HETATM    9  N3  UNL     1      35.597  42.012  -3.898  1.00  0.00    -0.411 N
ATOM     10  H3  UNL     1      34.592  42.010  -3.727  1.00  0.00     0.154 HD
BRANCH   9  11
HETATM   11  C8  UNL     1      36.550  41.817  -2.832  1.00  0.00     0.114 C
HETATM   12  C9  UNL     1      35.896  41.902  -1.470  1.00  0.00     0.032 C
HETATM   13  C10 UNL     1      36.533  42.853  -0.525  1.00  0.00     0.022 C
HETATM   14  C11 UNL     1      36.963  44.150  -1.152  1.00  0.00     0.119 C
HETATM   15  N4  UNL     1      37.606  44.012  -2.406  1.00  0.00    -0.400 N
HETATM   16  C12 UNL     1      37.754  42.713  -2.934  1.00  0.00     0.080 C
ATOM     17  H4  UNL     1      37.951  44.827  -2.912  1.00  0.00     0.158 HD
ENDBRANCH   9  11
ENDBRANCH   8   9
ENDBRANCH   7   8
ENDBRANCH   4   7
BRANCH   1  18
HETATM   18  C2  UNL     1      32.532  42.016 -10.456  1.00  0.00     0.236 C
BRANCH  18  19
HETATM   19  N1  UNL     1      31.399  41.247  -9.969  1.00  0.00    -0.079 N
HETATM   20  C1  UNL     1      30.769  40.592 -11.075  1.00  0.00     0.267 C
ATOM     21  H12 UNL     1      30.745  41.816  -9.432  1.00  0.00     0.276 HD
ATOM     22  H11 UNL     1      31.661  40.594  -9.230  1.00  0.00     0.276 HD
ENDBRANCH  18  19
ENDBRANCH   1  18
TORSDOF 6
ENDMDL