MODEL 3
REMARK VINA RESULT: -6.374933737      1.651      5.347
REMARK  8 active torsions:
REMARK  status: ('A' for Active; 'I' for Inactive)
REMARK    1  A    between atoms: C2_2  and  C3_3
REMARK    2  A    between atoms: C3_3  and  C4_4
REMARK    3  A    between atoms: C4_4  and  N1_5
REMARK    4  A    between atoms: C6_10  and  N3_11
REMARK    5  A    between atoms: C8_16  and  N5_17
REMARK    6  A    between atoms: N5_17  and  C9_19
REMARK    7  A    between atoms: C9_19  and  C10_20
REMARK    8  A    between atoms: C10_20  and  C11_21
ROOT
HETATM    1  N1  UNL     1      36.950  41.729  -4.001  1.00  0.00    -0.225 N
ATOM      2  H1  UNL     1      37.521  40.987  -3.595  1.00  0.00     0.177 HD
HETATM    3  C5  UNL     1      36.212  41.475  -5.017  1.00  0.00     0.707 A
HETATM    4  N2  UNL     1      36.190  40.215  -5.553  1.00  0.00    -0.022 N
ATOM      5  H2  UNL     1      36.774  39.499  -5.122  1.00  0.00     0.203 HD
HETATM    6  C6  UNL     1      35.447  39.872  -6.610  1.00  0.00     0.706 A
HETATM    7  N4  UNL     1      34.686  40.838  -7.158  1.00  0.00    -0.022 N
ATOM      8  H4  UNL     1      34.106  40.613  -7.967  1.00  0.00     0.203 HD
HETATM    9  C8  UNL     1      34.668  42.088  -6.673  1.00  0.00     0.707 A
HETATM   10  N6  UNL     1      35.441  42.400  -5.593  1.00  0.00    -0.022 N
ATOM     11  H6  UNL     1      35.430  43.351  -5.221  1.00  0.00     0.203 HD
ENDROOT
BRANCH   1  12
HETATM   12  C4  UNL     1      36.984  43.040  -3.428  1.00  0.00     0.138 C
BRANCH  12  13
HETATM   13  C3  UNL     1      36.912  42.864  -1.904  1.00  0.00     0.020 C
BRANCH  13  14
HETATM   14  C2  UNL     1      36.568  44.264  -1.374  1.00  0.00    -0.003 C
HETATM   15  C1  UNL     1      37.886  44.954  -1.114  1.00  0.00     0.005 C
ENDBRANCH  13  14
ENDBRANCH  12  13
ENDBRANCH   1  12
BRANCH   6  16
HETATM   16  N3  UNL     1      35.405  38.701  -7.137  1.00  0.00    -0.229 N
HETATM   17  C7  UNL     1      34.102  38.117  -7.490  1.00  0.00     0.165 C
ATOM     18  H3  UNL     1      36.266  38.182  -7.309  1.00  0.00     0.177 HD
ENDBRANCH   6  16
BRANCH   9  19
HETATM   19  N5  UNL     1      33.959  43.038  -7.164  1.00  0.00    -0.225 N
ATOM     20  H5  UNL     1      34.053  43.956  -6.729  1.00  0.00     0.177 HD
BRANCH  19  21
HETATM   21  C9  UNL     1      33.054  42.932  -8.258  1.00  0.00     0.138 C
BRANCH  21  22
HETATM   22  C10 UNL     1      33.753  43.382  -9.520  1.00  0.00     0.020 C
BRANCH  22  23
HETATM   23  C11 UNL     1      32.840  44.185 -10.415  1.00  0.00    -0.003 C
HETATM   24  C12 UNL     1      33.668  44.535 -11.660  1.00  0.00     0.005 C
ENDBRANCH  22  23
ENDBRANCH  21  22
ENDBRANCH  19  21
ENDBRANCH   9  19
TORSDOF 8
ENDMDL