MODEL 1
REMARK VINA RESULT: -3.336684952      0.000      0.000
REMARK  1 active torsions:
REMARK  status: ('A' for Active; 'I' for Inactive)
REMARK    1  A    between atoms: O1_1  and  C1_3
ROOT
HETATM    1  C1  UNL     1      34.950  19.805  60.043  1.00  0.00     0.118 A
HETATM    2  C2  UNL     1      33.584  19.301  59.623  1.00  0.00     0.034 A
HETATM    3  C3  UNL     1      33.726  20.533  60.430  1.00  0.00     0.034 A
ENDROOT
BRANCH   1   4
HETATM    4  O1  UNL     1      35.730  20.257  58.954  1.00  0.00    -0.396 OA
ATOM      5  H1  UNL     1      36.545  19.779  58.858  1.00  0.00     0.210 HD
ENDBRANCH   1   4
TORSDOF 1
ENDMDL