MODEL 3
REMARK VINA RESULT: -4.403469345      0.154      1.951
REMARK  0 active torsions:
REMARK  status: ('A' for Active; 'I' for Inactive)
ROOT
HETATM    1  C1  UNL     1      33.299  18.787  60.175  1.00  0.00     0.003 A
HETATM    2  C2  UNL     1      33.799  17.606  59.672  1.00  0.00     0.017 A
HETATM    3  C3  UNL     1      35.067  17.630  59.133  1.00  0.00     0.087 A
HETATM    4  N1  UNL     1      35.775  18.774  59.111  1.00  0.00    -0.375 N
ATOM      5  H1  UNL     1      36.711  18.751  58.705  1.00  0.00     0.164 HD
HETATM    6  C4  UNL     1      35.324  19.946  59.590  1.00  0.00     0.087 A
HETATM    7  C5  UNL     1      34.056  19.940  60.132  1.00  0.00     0.017 A
ENDROOT
TORSDOF 0
ENDMDL