MODEL 4
REMARK VINA RESULT: -4.262601319      5.701      6.555
REMARK  1 active torsions:
REMARK  status: ('A' for Active; 'I' for Inactive)
REMARK    1  A    between atoms: O1_1  and  C1_3
ROOT
HETATM    1  C1  UNL     1      37.918  22.211  57.119  1.00  0.00     0.182 A
HETATM    2  C2  UNL     1      37.829  23.533  56.769  1.00  0.00     0.066 A
HETATM    3  C3  UNL     1      38.809  23.743  55.831  1.00  0.00     0.029 A
HETATM    4  C4  UNL     1      39.473  22.536  55.632  1.00  0.00     0.145 A
HETATM    5  O2  UNL     1      38.897  21.664  56.427  1.00  0.00    -0.300 OA
ENDROOT
BRANCH   1   6
HETATM    6  O1  UNL     1      37.090  21.587  58.056  1.00  0.00    -0.341 OA
ATOM      7  H1  UNL     1      36.146  21.683  58.085  1.00  0.00     0.220 HD
ENDBRANCH   1   6
TORSDOF 1
ENDMDL