MODEL 2
REMARK VINA RESULT: -4.249849866      0.007      1.902
REMARK  0 active torsions:
REMARK  status: ('A' for Active; 'I' for Inactive)
ROOT
HETATM    1  C1  UNL     1      34.069  20.150  60.200  1.00  0.00     0.034 A
HETATM    2  C2  UNL     1      35.301  19.946  59.634  1.00  0.00     0.090 A
HETATM    3  N1  UNL     1      35.583  18.726  59.133  1.00  0.00    -0.362 N
ATOM      4  H1  UNL     1      36.499  18.571  58.712  1.00  0.00     0.165 HD
HETATM    5  C3  UNL     1      34.713  17.710  59.166  1.00  0.00     0.179 A
HETATM    6  N2  UNL     1      33.518  17.936  59.724  1.00  0.00    -0.362 N
ATOM      7  H2  UNL     1      32.844  17.171  59.755  1.00  0.00     0.165 HD
HETATM    8  C4  UNL     1      33.165  19.120  60.243  1.00  0.00     0.090 A
ENDROOT
TORSDOF 0
ENDMDL