MODEL 2
REMARK VINA RESULT: -2.901281724      0.538      1.600
REMARK  0 active torsions:
REMARK  status: ('A' for Active; 'I' for Inactive)
ROOT
HETATM    1  C1  UNL     1      33.782  20.505  60.256  1.00  0.00     0.020 C
HETATM    2  C2  UNL     1      35.094  19.802  60.063  1.00  0.00     0.074 C
HETATM    3  S1  UNL     1      34.191  18.592  59.026  1.00  0.00    -0.169 SA
HETATM    4  C3  UNL     1      33.052  19.188  60.325  1.00  0.00     0.074 C
ENDROOT
TORSDOF 0
ENDMDL