MODEL 5
REMARK VINA RESULT: -3.607628255      0.150      1.409
REMARK  0 active torsions:
REMARK  status: ('A' for Active; 'I' for Inactive)
ROOT
HETATM    1  C1  UNL     1      33.829  20.459  60.447  1.00  0.00    -0.030 A
HETATM    2  C2  UNL     1      34.856  19.956  59.863  1.00  0.00    -0.030 A
HETATM    3  C3  UNL     1      34.165  18.746  59.504  1.00  0.00     0.030 A
HETATM    4  C4  UNL     1      32.999  19.309  60.163  1.00  0.00     0.030 A
ENDROOT
TORSDOF 0
ENDMDL