MODEL 3
REMARK VINA RESULT: -2.842457124      1.382      1.538
REMARK  0 active torsions:
REMARK  status: ('A' for Active; 'I' for Inactive)
ROOT
HETATM    1  C1  UNL     1      34.245  18.727  59.157  1.00  0.00     0.104 A
HETATM    2  C2  UNL     1      33.205  18.918  60.020  1.00  0.00     0.085 A
HETATM    3  S1  UNL     1      33.872  20.405  60.383  1.00  0.00    -0.026 SA
HETATM    4  N1  UNL     1      34.980  19.871  59.275  1.00  0.00    -0.337 N
ATOM      5  H1  UNL     1      35.837  20.237  58.861  1.00  0.00     0.173 HD
ENDROOT
TORSDOF 0
ENDMDL