MODEL 2
REMARK VINA RESULT: -3.792142747      0.014      1.650
REMARK  0 active torsions:
REMARK  status: ('A' for Active; 'I' for Inactive)
ROOT
HETATM    1  C1  UNL     1      33.123  19.281  60.226  1.00  0.00     0.037 A
HETATM    2  C2  UNL     1      33.809  20.467  60.375  1.00  0.00     0.108 A
HETATM    3  N1  UNL     1      34.942  20.372  59.659  1.00  0.00    -0.312 N
ATOM      4  H1  UNL     1      35.651  21.099  59.580  1.00  0.00     0.186 HD
HETATM    5  N2  UNL     1      34.994  19.175  59.066  1.00  0.00    -0.312 N
ATOM      6  H2  UNL     1      35.750  18.850  58.464  1.00  0.00     0.186 HD
HETATM    7  C3  UNL     1      33.887  18.458  59.387  1.00  0.00     0.108 A
ENDROOT
TORSDOF 0
ENDMDL