MODEL 3
REMARK VINA RESULT: -3.842151325      7.277      7.934
REMARK  0 active torsions:
REMARK  status: ('A' for Active; 'I' for Inactive)
ROOT
HETATM    1  N1  UNL     1      33.717  20.618  60.613  1.00  0.00    -0.197 NA
HETATM    2  C1  UNL     1      33.924  19.726  59.913  1.00  0.00     0.064 C
HETATM    3  C2  UNL     1      34.189  18.608  59.007  1.00  0.00     0.093 A
HETATM    4  C3  UNL     1      33.941  17.205  59.478  1.00  0.00     0.020 A
HETATM    5  C4  UNL     1      35.333  17.684  59.291  1.00  0.00     0.020 A
ENDROOT
TORSDOF 0
ENDMDL