MODEL 5
REMARK VINA RESULT: -3.557649759      7.610      7.987
REMARK  0 active torsions:
REMARK  status: ('A' for Active; 'I' for Inactive)
ROOT
HETATM    1  O1  UNL     1      36.128  25.782  53.975  1.00  0.00    -0.260 OA
HETATM    2  C1  UNL     1      36.630  25.027  54.831  1.00  0.00     0.289 A
HETATM    3  C2  UNL     1      37.966  24.541  55.164  1.00  0.00     0.107 A
HETATM    4  C3  UNL     1      37.486  23.829  56.177  1.00  0.00     0.152 A
HETATM    5  O2  UNL     1      36.202  24.258  55.904  1.00  0.00    -0.288 OA
ENDROOT
TORSDOF 0
ENDMDL