MODEL 4
REMARK VINA RESULT: -5.340129519      2.192      2.591
REMARK  2 active torsions:
REMARK  status: ('A' for Active; 'I' for Inactive)
REMARK    1  A    between atoms: S1_2  and  C2_3
REMARK    2  A    between atoms: C8_13  and  N3_14
ROOT
HETATM    1  C2  UNL     1      17.114   2.914  11.960  1.00  0.00     0.274 C
HETATM    2  C3  UNL     1      16.880   2.678  13.421  1.00  0.00     0.346 C
HETATM    3  N1  UNL     1      17.161   3.820  14.214  1.00  0.00     0.100 N
HETATM    4  C4  UNL     1      16.173   4.048  15.255  1.00  0.00     0.275 A
HETATM    5  C5  UNL     1      15.890   5.372  14.625  1.00  0.00     0.068 A
HETATM    6  C6  UNL     1      17.015   5.084  13.634  1.00  0.00     0.258 A
HETATM    7  C7  UNL     1      16.662   5.188  12.213  1.00  0.00     0.259 C
HETATM    8  N2  UNL     1      16.220   3.986  11.577  1.00  0.00    -0.028 N
ATOM      9  H21 UNL     1      15.243   3.772  11.777  1.00  0.00     0.281 HD
ATOM     10  H22 UNL     1      16.136   4.084  10.565  1.00  0.00     0.281 HD
HETATM   11  C8  UNL     1      17.884   5.664  11.412  1.00  0.00     0.261 C
HETATM   12  C9  UNL     1      18.857   4.527  11.531  1.00  0.00     0.013 C
HETATM   13  C10 UNL     1      20.291   4.871  11.351  1.00  0.00     0.065 C
HETATM   14  N4  UNL     1      18.462   3.339  11.772  1.00  0.00    -0.353 N
ATOM     15  H4  UNL     1      19.183   2.621  11.839  1.00  0.00     0.162 HD
ENDROOT
BRANCH  11  16
HETATM   16  N3  UNL     1      17.527   5.934  10.041  1.00  0.00    -0.068 N
ATOM     17  H33 UNL     1      17.180   5.099   9.570  1.00  0.00     0.275 HD
ATOM     18  H32 UNL     1      16.686   6.508   9.976  1.00  0.00     0.275 HD
ATOM     19  H31 UNL     1      18.308   6.354   9.538  1.00  0.00     0.275 HD
ENDBRANCH  11  16
BRANCH   1  20
HETATM   20  S1  UNL     1      16.829   1.419  10.989  1.00  0.00    -0.112 SA
HETATM   21  C1  UNL     1      17.945   0.070  11.459  1.00  0.00     0.094 C
ENDBRANCH   1  20
TORSDOF 2
ENDMDL