MODEL 1
REMARK VINA RESULT: -6.974748684      0.000      0.000
REMARK  3 active torsions:
REMARK  status: ('A' for Active; 'I' for Inactive)
REMARK    1  A    between atoms: C2_2  and  N1_5
REMARK    2  A    between atoms: C5_7  and  C6_8
REMARK    3  A    between atoms: C5_7  and  N6_15
ROOT
HETATM    1  N1  UNL     1      16.586   5.525  13.028  1.00  0.00    -0.365 N
ATOM      2  H1  UNL     1      16.530   5.780  12.042  1.00  0.00     0.162 HD
HETATM    3  C5  UNL     1      16.879   4.332  13.136  1.00  0.00     0.147 C
ENDROOT
BRANCH   3   4
HETATM    4  C6  UNL     1      17.057   3.581  14.357  1.00  0.00     0.175 C
HETATM    5  N2  UNL     1      17.710   3.873  15.442  1.00  0.00    -0.267 N
HETATM    6  N3  UNL     1      17.621   2.856  16.383  1.00  0.00    -0.007 NA
ATOM      7  H2  UNL     1      18.224   4.742  15.584  1.00  0.00     0.185 HD
HETATM    8  N4  UNL     1      16.597   1.962  15.973  1.00  0.00    -0.007 NA
HETATM    9  N5  UNL     1      16.506   2.288  14.601  1.00  0.00    -0.267 N
ATOM     10  H5  UNL     1      16.101   1.684  13.886  1.00  0.00     0.185 HD
ENDBRANCH   3   4
BRANCH   3  11
HETATM   11  N6  UNL     1      17.063   3.612  11.880  1.00  0.00    -0.364 N
HETATM   12  C7  UNL     1      16.032   2.970  11.088  1.00  0.00     0.124 C
HETATM   13  C8  UNL     1      16.754   1.805  10.404  1.00  0.00     0.021 C
HETATM   14  C9  UNL     1      18.196   1.896  10.858  1.00  0.00     0.021 C
HETATM   15  C10 UNL     1      18.305   3.392  11.173  1.00  0.00     0.124 C
ENDBRANCH   3  11
BRANCH   1  16
HETATM   16  C2  UNL     1      16.307   6.637  13.822  1.00  0.00     0.021 C
HETATM   17  C1  UNL     1      17.476   7.164  14.637  1.00  0.00     0.037 C
HETATM   18  C3  UNL     1      15.152   6.392  14.798  1.00  0.00     0.037 C
HETATM   19  C4  UNL     1      15.809   7.786  12.932  1.00  0.00     0.037 C
ENDBRANCH   1  16
TORSDOF 3
ENDMDL