MODEL 5
REMARK VINA RESULT: -4.833915071      2.006      2.210
REMARK  3 active torsions:
REMARK  status: ('A' for Active; 'I' for Inactive)
REMARK    1  A    between atoms: C5_8  and  C6_9
REMARK    2  A    between atoms: C6_9  and  O1_10
REMARK    3  A    between atoms: C7_12  and  O2_13
ROOT
HETATM    1  C1  UNL     1      17.671   6.421   9.264  1.00  0.00     0.125 C
HETATM    2  N1  UNL     1      16.938   5.735  10.278  1.00  0.00    -0.252 NA
HETATM    3  S1  UNL     1      16.816   6.517  11.830  1.00  0.00    -0.060 SA
HETATM    4  C2  UNL     1      17.911   5.088  12.067  1.00  0.00     0.086 C
HETATM    5  C3  UNL     1      19.362   5.589  12.112  1.00  0.00     0.042 C
HETATM    6  S2  UNL     1      17.549   4.126  13.513  1.00  0.00    -0.145 SA
HETATM    7  C4  UNL     1      16.745   2.570  13.115  1.00  0.00     0.084 C
HETATM    8  C5  UNL     1      16.843   2.251  11.661  1.00  0.00     0.049 C
HETATM    9  C7  UNL     1      16.568   3.404  10.751  1.00  0.00     0.146 C
HETATM   10  C8  UNL     1      17.566   4.496  10.769  1.00  0.00     0.128 C
ENDROOT
BRANCH   8  11
HETATM   11  C6  UNL     1      18.130   1.526  11.303  1.00  0.00     0.172 C
BRANCH  11  12
HETATM   12  O1  UNL     1      17.876   0.176  11.290  1.00  0.00    -0.400 OA
ATOM     13  H1  UNL     1      18.295  -0.199  10.524  1.00  0.00     0.209 HD
ENDBRANCH  11  12
ENDBRANCH   8  11
BRANCH   9  14
HETATM   14  O2  UNL     1      15.254   3.835  11.014  1.00  0.00    -0.393 OA
ATOM     15  H2  UNL     1      14.989   4.384  10.285  1.00  0.00     0.210 HD
ENDBRANCH   9  14
TORSDOF 3
ENDMDL