MODEL 3
REMARK VINA RESULT: -6.310136390      0.630      1.009
REMARK  4 active torsions:
REMARK  status: ('A' for Active; 'I' for Inactive)
REMARK    1  A    between atoms: O1_2  and  C2_3
REMARK    2  A    between atoms: C2_3  and  C3_5
REMARK    3  A    between atoms: C9_11  and  O3_12
REMARK    4  A    between atoms: N1_15  and  O4_17
ROOT
HETATM    1  C3  UNL     1      16.564   4.727  14.647  1.00  0.00     0.091 C
HETATM    2  C4  UNL     1      17.906   5.159  15.123  1.00  0.00     0.026 C
HETATM    3  C5  UNL     1      18.336   6.525  14.802  1.00  0.00     0.002 C
HETATM    4  C6  UNL     1      17.829   7.138  13.544  1.00  0.00     0.005 C
HETATM    5  C7  UNL     1      16.653   6.441  12.936  1.00  0.00    -0.010 C
HETATM    6  C8  UNL     1      17.138   5.407  11.983  1.00  0.00     0.042 C
HETATM    7  C9  UNL     1      16.670   4.023  12.218  1.00  0.00     0.167 C
HETATM    8  C10 UNL     1      16.633   3.644  13.644  1.00  0.00     0.057 C
HETATM    9  N1  UNL     1      16.664   2.397  13.927  1.00  0.00    -0.274 N
ATOM     10  H1  UNL     1      16.639   2.121  14.909  1.00  0.00     0.193 HD
HETATM   11  C11 UNL     1      15.808   5.905  14.061  1.00  0.00     0.030 C
ENDROOT
BRANCH   1  12
HETATM   12  C2  UNL     1      15.725   4.209  15.775  1.00  0.00     0.273 C
HETATM   13  O2  UNL     1      14.525   4.555  15.950  1.00  0.00    -0.264 OA
BRANCH  12  14
HETATM   14  O1  UNL     1      16.236   3.304  16.702  1.00  0.00    -0.326 OA
HETATM   15  C1  UNL     1      15.402   2.466  17.446  1.00  0.00     0.213 C
ENDBRANCH  12  14
ENDBRANCH   1  12
BRANCH   7  16
HETATM   16  O3  UNL     1      15.423   3.744  11.665  1.00  0.00    -0.390 OA
ATOM     17  H3  UNL     1      14.937   4.515  11.400  1.00  0.00     0.210 HD
ENDBRANCH   7  16
BRANCH   9  18
HETATM   18  O4  UNL     1      16.728   1.412  12.972  1.00  0.00    -0.290 OA
ATOM     19  H4  UNL     1      15.978   0.888  12.717  1.00  0.00     0.244 HD
ENDBRANCH   9  18
TORSDOF 4
ENDMDL