MODEL 2
REMARK VINA RESULT: -5.846532405      2.971      4.827
REMARK  2 active torsions:
REMARK  status: ('A' for Active; 'I' for Inactive)
REMARK    1  A    between atoms: C5_5  and  N2_8
REMARK    2  A    between atoms: N2_8  and  C7_10
ROOT
HETATM    1  C1  UNL     1      19.785   4.876   9.319  1.00  0.00     0.026 C
HETATM    2  C2  UNL     1      19.612   4.902  10.844  1.00  0.00     0.004 C
HETATM    3  C3  UNL     1      21.028   5.069  11.397  1.00  0.00     0.026 C
HETATM    4  C4  UNL     1      19.013   3.592  11.234  1.00  0.00     0.067 C
HETATM    5  C5  UNL     1      17.651   3.749  11.919  1.00  0.00     0.138 C
HETATM    6  C6  UNL     1      17.181   2.382  12.142  1.00  0.00     0.091 C
HETATM    7  N1  UNL     1      16.819   1.273  12.309  1.00  0.00    -0.195 NA
HETATM    8  C8  UNL     1      16.670   4.426  10.993  1.00  0.00     0.057 C
HETATM    9  C9  UNL     1      16.869   5.918  10.947  1.00  0.00     0.078 C
HETATM   10  S1  UNL     1      18.623   6.337  11.274  1.00  0.00    -0.160 SA
ENDROOT
BRANCH   5  11
HETATM   11  N2  UNL     1      17.784   4.404  13.181  1.00  0.00    -0.201 N
ATOM     12  H2  UNL     1      18.540   5.085  13.257  1.00  0.00     0.179 HD
BRANCH  11  13
HETATM   13  C7  UNL     1      17.067   4.236  14.224  1.00  0.00     0.711 A
HETATM   14  N3  UNL     1      17.544   3.667  15.365  1.00  0.00    -0.115 N
HETATM   15  N4  UNL     1      16.584   3.629  16.259  1.00  0.00    -0.213 N
ATOM     16  H3  UNL     1      18.495   3.324  15.502  1.00  0.00     0.207 HD
HETATM   17  N5  UNL     1      15.484   4.154  15.752  1.00  0.00    -0.213 N
ATOM     18  H4  UNL     1      16.675   3.251  17.202  1.00  0.00     0.210 HD
HETATM   19  N6  UNL     1      15.787   4.525  14.503  1.00  0.00    -0.115 N
ATOM     20  H5  UNL     1      14.583   4.257  16.219  1.00  0.00     0.210 HD
ATOM     21  H6  UNL     1      15.136   4.967  13.853  1.00  0.00     0.207 HD
ENDBRANCH  11  13
ENDBRANCH   5  11
TORSDOF 2
ENDMDL