MODEL 3
REMARK VINA RESULT: -6.296383539      2.575      5.143
REMARK  1 active torsions:
REMARK  status: ('A' for Active; 'I' for Inactive)
REMARK    1  A    between atoms: C5_6  and  C6_7
ROOT
HETATM    1  C6  UNL     1      17.405   3.468  15.042  1.00  0.00     0.134 C
HETATM    2  C7  UNL     1      16.459   3.160  13.919  1.00  0.00     0.049 C
HETATM    3  C8  UNL     1      16.897   3.689  12.592  1.00  0.00     0.116 C
HETATM    4  N1  UNL     1      16.827   5.097  12.443  1.00  0.00    -0.418 N
ATOM      5  H1  UNL     1      17.098   5.563  11.578  1.00  0.00     0.153 HD
HETATM    6  C9  UNL     1      16.354   5.821  13.573  1.00  0.00     0.153 C
HETATM    7  C10 UNL     1      17.308   5.867  14.726  1.00  0.00     0.203 C
HETATM    8  C11 UNL     1      18.260   6.972  14.465  1.00  0.00     0.086 C
HETATM    9  N2  UNL     1      19.002   7.836  14.251  1.00  0.00    -0.195 NA
HETATM   10  N3  UNL     1      18.069   4.707  14.950  1.00  0.00    -0.395 N
ATOM     11  H3  UNL     1      19.084   4.760  15.045  1.00  0.00     0.155 HD
ENDROOT
BRANCH   1  12
HETATM   12  C5  UNL     1      16.672   3.258  16.356  1.00  0.00     0.283 C
HETATM   13  O1  UNL     1      16.233   1.936  16.439  1.00  0.00    -0.356 OA
HETATM   14  C4  UNL     1      15.389   1.963  17.545  1.00  0.00     0.208 C
HETATM   15  C2  UNL     1      14.680   3.303  17.328  1.00  0.00     0.078 C
HETATM   16  C1  UNL     1      13.277   3.065  16.768  1.00  0.00     0.048 C
HETATM   17  C3  UNL     1      14.630   4.094  18.620  1.00  0.00     0.048 C
HETATM   18  O2  UNL     1      15.482   3.963  16.404  1.00  0.00    -0.347 OA
ENDBRANCH   1  12
TORSDOF 1
ENDMDL