MODEL 2
REMARK VINA RESULT: -6.239620363      1.457      2.086
REMARK  4 active torsions:
REMARK  status: ('A' for Active; 'I' for Inactive)
REMARK    1  A    between atoms: O1_2  and  C2_3
REMARK    2  A    between atoms: C2_3  and  O3_5
REMARK    3  A    between atoms: O3_5  and  C3_6
REMARK    4  A    between atoms: C6_10  and  C7_11
ROOT
HETATM    1  C3  UNL     1      16.448   3.333  12.899  1.00  0.00     0.200 C
HETATM    2  C4  UNL     1      16.472   2.324  11.743  1.00  0.00     0.241 C
HETATM    3  C5  UNL     1      17.905   2.038  11.429  1.00  0.00     0.204 C
HETATM    4  O4  UNL     1      18.735   3.122  11.804  1.00  0.00    -0.381 OA
HETATM    5  C6  UNL     1      18.124   4.245  11.264  1.00  0.00     0.162 C
HETATM    6  C11 UNL     1      16.726   4.310  11.793  1.00  0.00     0.247 C
HETATM    7  N1  UNL     1      15.922   3.411  10.943  1.00  0.00    -0.057 N
ATOM      8  H11 UNL     1      14.916   3.537  10.830  1.00  0.00     0.278 HD
ATOM      9  H12 UNL     1      16.001   3.420   9.926  1.00  0.00     0.278 HD
ENDROOT
BRANCH   1  10
HETATM   10  O3  UNL     1      17.435   3.110  13.836  1.00  0.00    -0.288 OA
BRANCH  10  11
HETATM   11  C2  UNL     1      17.043   2.847  15.158  1.00  0.00     0.406 C
HETATM   12  O2  UNL     1      17.822   3.136  16.116  1.00  0.00    -0.230 OA
BRANCH  11  13
HETATM   13  O1  UNL     1      15.830   2.278  15.480  1.00  0.00    -0.303 OA
HETATM   14  C1  UNL     1      15.110   2.657  16.650  1.00  0.00     0.215 C
ENDBRANCH  11  13
ENDBRANCH  10  11
ENDBRANCH   1  10
BRANCH   5  15
HETATM   15  C7  UNL     1      18.906   5.502  11.413  1.00  0.00    -0.023 C
HETATM   16  C8  UNL     1      18.740   6.505  10.340  1.00  0.00     0.017 C
HETATM   17  C9  UNL     1      18.620   6.103  12.768  1.00  0.00     0.017 C
HETATM   18  C10 UNL     1      20.379   5.103  11.436  1.00  0.00     0.017 C
ENDBRANCH   5  15
TORSDOF 4
ENDMDL