MODEL 4
REMARK VINA RESULT: -5.898132713      2.250      4.336
REMARK  4 active torsions:
REMARK  status: ('A' for Active; 'I' for Inactive)
REMARK    1  A    between atoms: C2_2  and  O1_3
REMARK    2  A    between atoms: O1_3  and  C3_4
REMARK    3  A    between atoms: C9_10  and  O2_11
REMARK    4  A    between atoms: C10_14  and  O4_15
ROOT
HETATM    1  C3  UNL     1      17.258   4.757  12.778  1.00  0.00     0.139 C
HETATM    2  C4  UNL     1      17.371   3.579  11.837  1.00  0.00     0.071 C
HETATM    3  C5  UNL     1      18.758   3.261  11.430  1.00  0.00     0.016 C
HETATM    4  C6  UNL     1      19.620   4.448  11.125  1.00  0.00    -0.013 C
HETATM    5  C7  UNL     1      19.469   4.941   9.717  1.00  0.00     0.010 C
HETATM    6  C8  UNL     1      18.513   6.081   9.581  1.00  0.00     0.069 C
HETATM    7  C9  UNL     1      17.388   6.028  10.616  1.00  0.00     0.170 C
HETATM    8  O3  UNL     1      16.475   5.128  10.214  1.00  0.00    -0.325 OA
HETATM    9  C10 UNL     1      16.513   3.863  10.656  1.00  0.00     0.267 C
HETATM   10  C11 UNL     1      17.899   5.912  12.009  1.00  0.00     0.078 C
HETATM   11  C12 UNL     1      19.398   5.607  12.053  1.00  0.00     0.017 C
ENDROOT
BRANCH   1  12
HETATM   12  O1  UNL     1      17.975   4.556  13.936  1.00  0.00    -0.385 OA
BRANCH  12  13
HETATM   13  C2  UNL     1      17.208   4.756  15.082  1.00  0.00     0.163 C
HETATM   14  C1  UNL     1      17.182   3.485  15.892  1.00  0.00     0.033 C
ENDBRANCH  12  13
ENDBRANCH   1  12
BRANCH   9  15
HETATM   15  O4  UNL     1      15.196   3.470  10.993  1.00  0.00    -0.371 OA
ATOM     16  H4  UNL     1      15.006   3.833  11.850  1.00  0.00     0.212 HD
ENDBRANCH   9  15
BRANCH   7  17
HETATM   17  O2  UNL     1      16.778   7.306  10.526  1.00  0.00    -0.365 OA
ATOM     18  H2  UNL     1      16.127   7.201   9.842  1.00  0.00     0.213 HD
ENDBRANCH   7  17
TORSDOF 4
ENDMDL