MODEL 5
REMARK VINA RESULT: -5.443590799      3.015      4.059
REMARK  1 active torsions:
REMARK  status: ('A' for Active; 'I' for Inactive)
REMARK    1  A    between atoms: C2_2  and  N1_4
ROOT
HETATM    1  N1  UNL     1      16.027   3.637  16.810  1.00  0.00    -0.361 N
ATOM      2  H1  UNL     1      16.659   2.941  17.209  1.00  0.00     0.162 HD
HETATM    3  C4  UNL     1      16.456   4.300  15.824  1.00  0.00     0.178 C
HETATM    4  O1  UNL     1      17.706   4.104  15.305  1.00  0.00    -0.328 OA
HETATM    5  C5  UNL     1      18.011   4.685  14.060  1.00  0.00     0.211 C
HETATM    6  C6  UNL     1      16.965   4.405  13.004  1.00  0.00     0.084 C
HETATM    7  C7  UNL     1      17.515   4.838  11.682  1.00  0.00     0.266 C
HETATM    8  N2  UNL     1      17.456   3.813  10.664  1.00  0.00    -0.068 N
ATOM      9  H21 UNL     1      17.853   4.104   9.770  1.00  0.00     0.277 HD
ATOM     10  H22 UNL     1      16.511   3.629  10.326  1.00  0.00     0.277 HD
HETATM   11  C8  UNL     1      18.112   2.635  11.238  1.00  0.00     0.276 C
HETATM   12  C9  UNL     1      17.149   2.107  12.260  1.00  0.00     0.083 C
HETATM   13  N3  UNL     1      16.563   3.063  13.110  1.00  0.00    -0.387 N
ATOM     14  H3  UNL     1      15.858   2.785  13.794  1.00  0.00     0.159 HD
HETATM   15  C10 UNL     1      15.709   5.258  13.245  1.00  0.00     0.117 C
HETATM   16  S1  UNL     1      15.475   5.540  15.030  1.00  0.00    -0.084 SA
ENDROOT
BRANCH   1  17
HETATM   17  C2  UNL     1      14.738   3.769  17.422  1.00  0.00     0.076 C
HETATM   18  C1  UNL     1      14.802   3.802  18.927  1.00  0.00     0.032 C
HETATM   19  C3  UNL     1      13.859   2.588  17.024  1.00  0.00     0.032 C
ENDBRANCH   1  17
TORSDOF 1
ENDMDL