MODEL 4
REMARK VINA RESULT: -6.123447826      1.824      4.768
REMARK  4 active torsions:
REMARK  status: ('A' for Active; 'I' for Inactive)
REMARK    1  A    between atoms: C2_2  and  O2_4
REMARK    2  A    between atoms: O2_4  and  C3_5
REMARK    3  A    between atoms: C10_13  and  O4_14
REMARK    4  A    between atoms: C11_16  and  O5_17
ROOT
HETATM    1  C3  UNL     1      16.878   5.362  13.147  1.00  0.00     0.169 C
HETATM    2  C4  UNL     1      16.534   4.666  14.439  1.00  0.00     0.042 C
HETATM    3  C5  UNL     1      15.078   4.850  14.716  1.00  0.00     0.015 C
HETATM    4  C6  UNL     1      16.914   3.226  14.467  1.00  0.00     0.124 C
HETATM    5  C7  UNL     1      16.359   2.620  15.743  1.00  0.00     0.040 C
HETATM    6  O3  UNL     1      16.301   2.568  13.404  1.00  0.00    -0.378 OA
HETATM    7  C8  UNL     1      17.307   2.356  12.446  1.00  0.00     0.149 C
HETATM    8  C9  UNL     1      17.010   1.032  11.785  1.00  0.00     0.042 C
HETATM    9  C10 UNL     1      17.278   3.510  11.498  1.00  0.00     0.178 C
HETATM   10  C11 UNL     1      16.407   4.642  11.930  1.00  0.00     0.179 C
ENDROOT
BRANCH   1  11
HETATM   11  O2  UNL     1      18.257   5.692  13.101  1.00  0.00    -0.313 OA
BRANCH  11  12
HETATM   12  C2  UNL     1      18.879   6.470  14.070  1.00  0.00     0.255 C
HETATM   13  C1  UNL     1      18.724   7.943  14.144  1.00  0.00     0.126 C
HETATM   14  O1  UNL     1      19.603   5.826  14.904  1.00  0.00    -0.266 OA
ENDBRANCH  11  12
ENDBRANCH   1  11
BRANCH  10  15
HETATM   15  O5  UNL     1      16.372   5.570  10.874  1.00  0.00    -0.390 OA
ATOM     16  H5  UNL     1      17.168   6.089  10.921  1.00  0.00     0.210 HD
ENDBRANCH  10  15
BRANCH   9  17
HETATM   17  O4  UNL     1      16.770   3.034  10.275  1.00  0.00    -0.390 OA
ATOM     18  H4  UNL     1      17.512   2.878   9.702  1.00  0.00     0.210 HD
ENDBRANCH   9  17
TORSDOF 4
ENDMDL