MODEL 2
REMARK VINA RESULT: -7.180791945      0.998      1.051
REMARK  1 active torsions:
REMARK  status: ('A' for Active; 'I' for Inactive)
REMARK    1  A    between atoms: C5_10  and  C6_11
ROOT
HETATM    1  N1  UNL     1      18.834   4.939  11.318  1.00  0.00    -0.388 N
ATOM      2  H11 UNL     1      18.773   4.659  10.338  1.00  0.00     0.157 HD
ATOM      3  H12 UNL     1      19.621   5.530  11.049  1.00  0.00     0.157 HD
HETATM    4  C1  UNL     1      18.175   4.637  12.378  1.00  0.00     0.088 C
HETATM    5  N2  UNL     1      18.261   5.025  13.736  1.00  0.00    -0.352 N
ATOM      6  H2  UNL     1      19.001   5.345  14.359  1.00  0.00     0.163 HD
HETATM    7  C2  UNL     1      16.852   4.770  13.857  1.00  0.00     0.122 C
HETATM    8  C3  UNL     1      15.953   5.945  13.569  1.00  0.00     0.061 C
HETATM    9  C4  UNL     1      14.699   5.560  14.301  1.00  0.00     0.062 C
HETATM   10  C5  UNL     1      15.224   4.698  15.397  1.00  0.00     0.049 C
HETATM   11  N3  UNL     1      16.403   4.283  15.124  1.00  0.00    -0.365 N
ATOM     12  H3  UNL     1      16.954   3.679  15.734  1.00  0.00     0.161 HD
HETATM   13  C7  UNL     1      17.028   3.773  12.769  1.00  0.00     0.083 C
HETATM   14  C8  UNL     1      15.934   3.662  11.758  1.00  0.00     0.026 C
HETATM   15  C9  UNL     1      16.288   2.605  10.742  1.00  0.00     0.028 C
HETATM   16  C10 UNL     1      16.751   1.320  11.379  1.00  0.00     0.167 C
HETATM   17  O1  UNL     1      16.665   1.404  12.788  1.00  0.00    -0.390 OA
HETATM   18  C11 UNL     1      17.500   2.430  13.222  1.00  0.00     0.189 C
ENDROOT
BRANCH  10  19
HETATM   19  C6  UNL     1      14.419   4.406  16.618  1.00  0.00     0.398 C
HETATM   20  F1  UNL     1      13.482   3.414  16.341  1.00  0.00    -0.208 F
HETATM   21  F2  UNL     1      13.720   5.515  17.050  1.00  0.00    -0.208 F
ENDBRANCH  10  19
TORSDOF 1
ENDMDL