MODEL 4
REMARK VINA RESULT: -6.022119644      1.738      2.366
REMARK  4 active torsions:
REMARK  status: ('A' for Active; 'I' for Inactive)
REMARK    1  A    between atoms: N1_2  and  N2_3
REMARK    2  A    between atoms: N1_2  and  C2_6
REMARK    3  A    between atoms: C2_6  and  N3_8
REMARK    4  A    between atoms: N3_8  and  N4_10
ROOT
HETATM    1  N4  UNL     1      17.943   4.111  14.809  1.00  0.00    -0.307 N
ATOM      2  H4  UNL     1      18.735   3.481  14.928  1.00  0.00     0.186 HD
HETATM    3  C3  UNL     1      16.862   3.887  15.465  1.00  0.00     0.004 C
HETATM    4  C4  UNL     1      16.840   2.711  16.363  1.00  0.00     0.060 C
HETATM    5  C5  UNL     1      15.449   2.223  16.645  1.00  0.00     0.084 C
HETATM    6  C6  UNL     1      14.629   3.436  17.074  1.00  0.00     0.244 C
HETATM    7  F1  UNL     1      13.400   2.971  17.474  1.00  0.00    -0.206 F
HETATM    8  F2  UNL     1      15.305   4.072  18.087  1.00  0.00    -0.206 F
HETATM    9  C7  UNL     1      14.440   4.296  15.868  1.00  0.00     0.084 C
HETATM   10  C8  UNL     1      15.723   4.812  15.281  1.00  0.00     0.060 C
ENDROOT
BRANCH   1  11
HETATM   11  N3  UNL     1      18.063   5.191  13.938  1.00  0.00    -0.275 N
ATOM     12  H3  UNL     1      18.061   6.135  14.325  1.00  0.00     0.189 HD
BRANCH  11  13
HETATM   13  C2  UNL     1      18.187   5.033  12.542  1.00  0.00     0.206 C
HETATM   14  S1  UNL     1      18.702   6.260  11.614  1.00  0.00    -0.038 SA
BRANCH  13  15
HETATM   15  N1  UNL     1      17.867   3.810  11.927  1.00  0.00    -0.277 N
HETATM   16  C1  UNL     1      16.470   3.591  11.549  1.00  0.00     0.179 C
BRANCH  15  17
HETATM   17  N2  UNL     1      18.845   2.836  11.684  1.00  0.00    -0.341 N
ATOM     18  H22 UNL     1      19.833   3.080  11.613  1.00  0.00     0.177 HD
ATOM     19  H21 UNL     1      18.593   1.854  11.571  1.00  0.00     0.177 HD
ENDBRANCH  15  17
ENDBRANCH  13  15
ENDBRANCH  11  13
ENDBRANCH   1  11
TORSDOF 4
ENDMDL