MODEL 1
REMARK VINA RESULT: -6.155785552      0.000      0.000
REMARK  2 active torsions:
REMARK  status: ('A' for Active; 'I' for Inactive)
REMARK    1  A    between atoms: N1_1  and  N2_4
REMARK       I    between atoms: N2_4  and  C1_6
REMARK       I    between atoms: C1_6  and  N3_8
REMARK    2  A    between atoms: C7_15  and  C8_16
ROOT
HETATM    1  N2  UNL     1      15.580   2.853  16.539  1.00  0.00    -0.258 N
ATOM      2  H2  UNL     1      15.246   3.797  16.734  1.00  0.00     0.191 HD
HETATM    3  C1  UNL     1      16.282   2.596  15.335  1.00  0.00     0.337 C
HETATM    4  O1  UNL     1      16.689   1.433  15.103  1.00  0.00    -0.245 OA
HETATM    5  N3  UNL     1      16.521   3.629  14.411  1.00  0.00    -0.321 N
HETATM    6  C2  UNL     1      16.085   5.013  14.601  1.00  0.00     0.148 C
HETATM    7  C3  UNL     1      17.140   5.737  13.810  1.00  0.00     0.027 C
HETATM    8  C4  UNL     1      16.970   7.208  13.653  1.00  0.00     0.032 C
HETATM    9  C5  UNL     1      18.485   7.321  13.494  1.00  0.00     0.076 C
HETATM   10  S1  UNL     1      18.733   5.879  14.595  1.00  0.00    -0.157 SA
HETATM   11  C6  UNL     1      17.179   4.919  12.558  1.00  0.00     0.053 C
HETATM   12  C7  UNL     1      17.228   3.521  13.131  1.00  0.00     0.155 C
ENDROOT
BRANCH  12  13
HETATM   13  C8  UNL     1      16.558   2.525  12.209  1.00  0.00     0.376 C
HETATM   14  F1  UNL     1      15.719   3.139  11.321  1.00  0.00    -0.212 F
HETATM   15  F2  UNL     1      17.590   1.887  11.524  1.00  0.00    -0.212 F
ENDBRANCH  12  13
BRANCH   1  16
HETATM   16  N1  UNL     1      15.335   1.831  17.469  1.00  0.00    -0.341 N
ATOM     17  H12 UNL     1      15.649   0.887  17.245  1.00  0.00     0.177 HD
ATOM     18  H11 UNL     1      14.856   2.021  18.349  1.00  0.00     0.177 HD
ENDBRANCH   1  16
TORSDOF 2
ENDMDL