MODEL 3
REMARK VINA RESULT: -6.191783750      4.071      6.909
REMARK  4 active torsions:
REMARK  status: ('A' for Active; 'I' for Inactive)
REMARK    1  A    between atoms: C2_2  and  N1_5
REMARK    2  A    between atoms: N1_5  and  C5_7
REMARK    3  A    between atoms: N4_13  and  C7_15
REMARK    4  A    between atoms: C7_15  and  C8_16
ROOT
HETATM    1  C5  UNL     1      17.757   3.789  11.945  1.00  0.00     0.163 A
HETATM    2  N2  UNL     1      17.862   2.820  12.853  1.00  0.00    -0.278 N
ATOM      3  H2  UNL     1      18.459   2.011  12.685  1.00  0.00     0.189 HD
HETATM    4  N3  UNL     1      17.189   2.929  13.953  1.00  0.00    -0.278 N
ATOM      5  H3  UNL     1      17.246   2.207  14.672  1.00  0.00     0.189 HD
HETATM    6  C6  UNL     1      16.421   4.004  14.128  1.00  0.00     0.163 A
HETATM    7  N4  UNL     1      15.667   4.296  15.168  1.00  0.00    -0.361 N
ATOM      8  H4  UNL     1      15.119   5.156  15.187  1.00  0.00     0.161 HD
HETATM    9  S1  UNL     1      16.672   4.874  12.685  1.00  0.00    -0.016 SA
ENDROOT
BRANCH   7  10
HETATM   10  C7  UNL     1      15.630   3.376  16.280  1.00  0.00     0.239 C
BRANCH  10  11
HETATM   11  C8  UNL     1      14.426   3.683  17.179  1.00  0.00     0.403 C
HETATM   12  F1  UNL     1      13.483   2.699  17.090  1.00  0.00    -0.169 F
HETATM   13  F2  UNL     1      14.883   3.883  18.458  1.00  0.00    -0.169 F
HETATM   14  F3  UNL     1      13.883   4.872  16.726  1.00  0.00    -0.169 F
ENDBRANCH  10  11
ENDBRANCH   7  10
BRANCH   1  15
HETATM   15  N1  UNL     1      18.353   3.869  10.772  1.00  0.00    -0.361 N
ATOM     16  H1  UNL     1      18.038   3.242  10.032  1.00  0.00     0.162 HD
BRANCH  15  17
HETATM   17  C2  UNL     1      19.413   4.776  10.474  1.00  0.00     0.021 C
HETATM   18  C1  UNL     1      20.198   5.160  11.709  1.00  0.00     0.037 C
HETATM   19  C3  UNL     1      18.945   6.003   9.721  1.00  0.00     0.037 C
HETATM   20  C4  UNL     1      20.394   4.052   9.539  1.00  0.00     0.037 C
ENDBRANCH  15  17
ENDBRANCH   1  15
TORSDOF 4
ENDMDL