MODEL 1
REMARK VINA RESULT: -6.185004830      0.000      0.000
REMARK  4 active torsions:
REMARK  status: ('A' for Active; 'I' for Inactive)
REMARK    1  A    between atoms: C5_8  and  C6_9
REMARK    2  A    between atoms: C6_9  and  O2_10
REMARK    3  A    between atoms: C8_13  and  O3_14
REMARK    4  A    between atoms: C9_16  and  C10_17
ROOT
HETATM    1  C1  UNL     1      19.203   5.498  12.745  1.00  0.00     0.011 C
HETATM    2  C2  UNL     1      17.738   5.338  12.395  1.00  0.00    -0.006 C
HETATM    3  C3  UNL     1      17.388   3.934  12.011  1.00  0.00     0.060 C
HETATM    4  C4  UNL     1      16.945   3.121  13.171  1.00  0.00     0.019 C
HETATM    5  N1  UNL     1      16.952   1.867  13.334  1.00  0.00    -0.274 N
ATOM      6  H1  UNL     1      17.286   1.200  12.637  1.00  0.00     0.193 HD
HETATM    7  O1  UNL     1      16.447   1.509  14.580  1.00  0.00    -0.272 OA
HETATM    8  C5  UNL     1      16.814   2.640  15.389  1.00  0.00     0.188 C
HETATM    9  C7  UNL     1      16.380   3.711  14.412  1.00  0.00     0.096 C
HETATM   10  C8  UNL     1      16.957   5.059  14.740  1.00  0.00     0.136 C
HETATM   11  C9  UNL     1      16.840   5.885  13.479  1.00  0.00     0.033 C
ENDROOT
BRANCH   8  12
HETATM   12  C6  UNL     1      16.050   2.676  16.673  1.00  0.00     0.199 C
BRANCH  12  13
HETATM   13  O2  UNL     1      15.345   1.508  16.837  1.00  0.00    -0.398 OA
ATOM     14  H2  UNL     1      14.857   1.307  16.048  1.00  0.00     0.209 HD
ENDBRANCH  12  13
ENDBRANCH   8  12
BRANCH  10  15
HETATM   15  O3  UNL     1      18.248   4.943  15.201  1.00  0.00    -0.394 OA
ATOM     16  H3  UNL     1      18.422   5.577  15.887  1.00  0.00     0.210 HD
ENDBRANCH  10  15
BRANCH  11  17
HETATM   17  C10 UNL     1      17.029   7.337  13.702  1.00  0.00     0.122 C
HETATM   18 CL1  UNL     1      16.068   8.242  12.515  1.00  0.00    -0.130 Cl
ENDBRANCH  11  17
TORSDOF 4
ENDMDL