MODEL 1
REMARK VINA RESULT: -4.598749004      0.000      0.000
REMARK  3 active torsions:
REMARK  status: ('A' for Active; 'I' for Inactive)
REMARK    1  A    between atoms: C2_2  and  O1_4
REMARK    2  A    between atoms: C2_2  and  C4_6
REMARK    3  A    between atoms: C4_6  and  O2_7
ROOT
HETATM    1  C4  UNL     1      17.125   4.975  12.820  1.00  0.00     0.165 C
HETATM    2  C5  UNL     1      18.439   4.989  12.109  1.00  0.00     0.217 C
HETATM    3  O3  UNL     1      18.600   3.654  12.404  1.00  0.00    -0.349 OA
HETATM    4  C6  UNL     1      17.219   3.497  12.639  1.00  0.00     0.232 C
HETATM    5 CL1  UNL     1      16.895   2.518  14.086  1.00  0.00    -0.072 Cl
HETATM    6 BR1  UNL     1      16.269   2.775  11.122  1.00  0.00    -0.033 Br
ENDROOT
BRANCH   1   7
HETATM    7  C2  UNL     1      17.137   5.354  14.272  1.00  0.00     0.088 C
HETATM    8  C1  UNL     1      17.433   6.847  14.456  1.00  0.00     0.049 C
HETATM    9  C3  UNL     1      15.753   5.111  14.821  1.00  0.00     0.049 C
BRANCH   7  10
HETATM   10  O1  UNL     1      18.125   4.678  14.975  1.00  0.00    -0.387 OA
ATOM     11  H1  UNL     1      18.799   4.464  14.341  1.00  0.00     0.210 HD
ENDBRANCH   7  10
ENDBRANCH   1   7
BRANCH   1  12
HETATM   12  O2  UNL     1      16.154   5.621  12.105  1.00  0.00    -0.379 OA
ATOM     13  H2  UNL     1      16.405   6.500  11.848  1.00  0.00     0.211 HD
ENDBRANCH   1  12
TORSDOF 3
ENDMDL