MODEL 3
REMARK VINA RESULT: -5.962512461      2.374      3.061
REMARK  2 active torsions:
REMARK  status: ('A' for Active; 'I' for Inactive)
REMARK    1  A    between atoms: O1_2  and  C2_3
REMARK    2  A    between atoms: C2_3  and  C3_5
ROOT
HETATM    1  C3  UNL     1      17.200   4.308  14.004  1.00  0.00     0.141 C
HETATM    2  C4  UNL     1      16.704   3.171  13.159  1.00  0.00     0.052 C
HETATM    3  N1  UNL     1      18.522   4.651  13.530  1.00  0.00    -0.355 N
ATOM      4  H1  UNL     1      19.421   4.413  13.948  1.00  0.00     0.162 HD
HETATM    5  C5  UNL     1      18.277   5.407  12.332  1.00  0.00     0.126 C
HETATM    6  C6  UNL     1      19.186   5.709  11.416  1.00  0.00     0.236 C
HETATM    7  F1  UNL     1      18.786   6.431  10.346  1.00  0.00    -0.215 F
HETATM    8  N2  UNL     1      16.890   5.775  12.303  1.00  0.00    -0.362 N
ATOM      9  H2  UNL     1      16.347   6.115  11.509  1.00  0.00     0.162 HD
HETATM   10  C7  UNL     1      16.440   5.551  13.666  1.00  0.00     0.066 C
HETATM   11  C8  UNL     1      16.880   6.745  14.474  1.00  0.00     0.034 C
HETATM   12  C9  UNL     1      15.639   7.300  15.144  1.00  0.00     0.003 C
HETATM   13  C10 UNL     1      14.557   6.873  14.173  1.00  0.00     0.003 C
HETATM   14  C11 UNL     1      14.964   5.448  13.792  1.00  0.00     0.034 C
ENDROOT
BRANCH   1  15
HETATM   15  C2  UNL     1      17.170   3.927  15.417  1.00  0.00     0.289 C
HETATM   16  O2  UNL     1      18.274   3.617  15.951  1.00  0.00    -0.262 OA
BRANCH  15  17
HETATM   17  O1  UNL     1      16.057   3.875  16.214  1.00  0.00    -0.324 OA
HETATM   18  C1  UNL     1      15.575   2.628  16.738  1.00  0.00     0.213 C
ENDBRANCH  15  17
ENDBRANCH   1  15
TORSDOF 2
ENDMDL