MODEL 4
REMARK VINA RESULT: -6.755454184      3.925      5.895
REMARK  2 active torsions:
REMARK  status: ('A' for Active; 'I' for Inactive)
REMARK    1  A    between atoms: C3_6  and  C5_8
REMARK       I    between atoms: C5_8  and  N2_10
REMARK    2  A    between atoms: N2_10  and  C6_12
ROOT
HETATM    1  C1  UNL     1      20.074   3.447   9.911  1.00  0.00     0.046 C
HETATM    2  C2  UNL     1      19.289   3.249  11.181  1.00  0.00     0.255 C
HETATM    3  N1  UNL     1      18.159   4.149  11.264  1.00  0.00    -0.048 N
ATOM      4  H11 UNL     1      17.859   4.498  10.353  1.00  0.00     0.279 HD
ATOM      5  H12 UNL     1      18.396   5.050  11.679  1.00  0.00     0.279 HD
HETATM    6  C3  UNL     1      17.116   3.464  11.971  1.00  0.00     0.208 C
HETATM    7  C4  UNL     1      15.824   3.684  11.197  1.00  0.00     0.057 C
HETATM    8  C7  UNL     1      17.475   1.997  12.011  1.00  0.00     0.130 C
HETATM    9  C8  UNL     1      18.656   1.859  11.105  1.00  0.00     0.274 C
HETATM   10  F1  UNL     1      19.573   0.957  11.569  1.00  0.00    -0.204 F
HETATM   11  F2  UNL     1      18.272   1.591   9.815  1.00  0.00    -0.204 F
ENDROOT
BRANCH   6  12
HETATM   12  C5  UNL     1      16.917   4.018  13.319  1.00  0.00     0.260 C
HETATM   13  O1  UNL     1      16.258   5.101  13.423  1.00  0.00    -0.270 OA
HETATM   14  N2  UNL     1      17.394   3.457  14.506  1.00  0.00    -0.302 N
ATOM     15  H2  UNL     1      18.383   3.589  14.720  1.00  0.00     0.171 HD
BRANCH  14  16
HETATM   16  C6  UNL     1      16.699   2.793  15.348  1.00  0.00     0.197 A
HETATM   17  N3  UNL     1      16.487   1.557  15.814  1.00  0.00    -0.229 N
HETATM   18  O2  UNL     1      15.555   1.694  16.738  1.00  0.00    -0.194 OA
ATOM     19  H3  UNL     1      16.946   0.696  15.519  1.00  0.00     0.198 HD
HETATM   20  S1  UNL     1      15.518   3.308  16.453  1.00  0.00     0.099 SA
ENDBRANCH  14  16
ENDBRANCH   6  12
TORSDOF 2
ENDMDL