MODEL 1
REMARK VINA RESULT: -6.390087133      0.000      0.000
REMARK  3 active torsions:
REMARK  status: ('A' for Active; 'I' for Inactive)
REMARK    1  A    between atoms: C2_2  and  N1_4
REMARK    2  A    between atoms: C2_2  and  C9_15
REMARK       I    between atoms: N1_4  and  C4_5
REMARK       I    between atoms: C4_5  and  N2_7
REMARK    3  A    between atoms: N2_7  and  N3_9
ROOT
HETATM    1  N1  UNL     1      18.046   4.127  12.361  1.00  0.00    -0.375 NA
HETATM    2  C4  UNL     1      17.087   3.492  13.096  1.00  0.00     0.408 C
HETATM    3  O1  UNL     1      16.372   2.515  12.798  1.00  0.00    -0.229 OA
HETATM    4  N2  UNL     1      16.798   3.988  14.464  1.00  0.00    -0.238 N
ATOM      5  H2  UNL     1      17.320   4.796  14.805  1.00  0.00     0.193 HD
ENDROOT
BRANCH   1   6
HETATM    6  C2  UNL     1      19.011   4.760  11.611  1.00  0.00     0.188 C
HETATM    7  C1  UNL     1      18.439   5.486  10.370  1.00  0.00     0.064 C
HETATM    8  C3  UNL     1      19.874   5.785  12.320  1.00  0.00     0.064 C
BRANCH   6   9
HETATM    9  C9  UNL     1      19.991   3.745  10.953  1.00  0.00     0.424 C
HETATM   10  F1  UNL     1      19.788   2.480  11.418  1.00  0.00    -0.167 F
HETATM   11  F2  UNL     1      21.253   4.112  11.379  1.00  0.00    -0.167 F
HETATM   12  F3  UNL     1      19.873   3.891   9.591  1.00  0.00    -0.167 F
ENDBRANCH   6   9
ENDBRANCH   1   6
BRANCH   4  13
HETATM   13  N3  UNL     1      15.879   3.427  15.285  1.00  0.00    -0.298 N
HETATM   14  C5  UNL     1      16.337   2.362  16.110  1.00  0.00     0.174 C
HETATM   15  C6  UNL     1      15.517   2.198  17.363  1.00  0.00     0.189 C
HETATM   16  O2  UNL     1      14.163   2.262  17.010  1.00  0.00    -0.384 OA
HETATM   17  C7  UNL     1      13.820   3.551  16.622  1.00  0.00     0.213 C
HETATM   18  C8  UNL     1      14.838   4.230  15.763  1.00  0.00     0.109 C
ENDBRANCH   4  13
TORSDOF 3
ENDMDL