MODEL 3
REMARK VINA RESULT: -6.319040267      3.229      5.754
REMARK  4 active torsions:
REMARK  status: ('A' for Active; 'I' for Inactive)
REMARK    1  A    between atoms: C2_2  and  N1_4
REMARK       I    between atoms: N1_4  and  C3_6
REMARK    2  A    between atoms: C3_6  and  O2_8
REMARK    3  A    between atoms: O2_8  and  C4_9
REMARK    4  A    between atoms: C10_16  and  O3_17
ROOT
HETATM    1  C4  UNL     1      15.622   3.646  14.498  1.00  0.00     0.147 C
HETATM    2  C5  UNL     1      16.748   3.260  15.447  1.00  0.00     0.048 C
HETATM    3  C6  UNL     1      16.630   4.713  15.925  1.00  0.00     0.020 C
HETATM    4  C7  UNL     1      15.134   4.457  15.690  1.00  0.00     0.058 C
HETATM    5  C8  UNL     1      14.839   3.435  16.736  1.00  0.00     0.132 C
HETATM    6  C9  UNL     1      14.776   3.997  18.126  1.00  0.00     0.055 C
HETATM    7  F1  UNL     1      13.678   2.731  16.506  1.00  0.00    -0.240 F
HETATM    8  C10 UNL     1      16.075   2.527  16.568  1.00  0.00     0.164 C
ENDROOT
BRANCH   1   9
HETATM    9  O2  UNL     1      16.129   4.432  13.451  1.00  0.00    -0.298 OA
BRANCH   9  10
HETATM   10  C3  UNL     1      16.617   3.824  12.316  1.00  0.00     0.362 C
HETATM   11  N1  UNL     1      17.948   3.353  12.187  1.00  0.00    -0.320 N
ATOM     12  H1  UNL     1      18.598   3.460  12.965  1.00  0.00     0.166 HD
HETATM   13  O1  UNL     1      15.813   3.686  11.340  1.00  0.00    -0.238 OA
BRANCH  11  14
HETATM   14  C2  UNL     1      18.391   2.730  10.979  1.00  0.00     0.179 C
HETATM   15  C1  UNL     1      19.879   2.894  10.753  1.00  0.00     0.049 C
HETATM   16 CL1  UNL     1      18.079   0.966  11.032  1.00  0.00    -0.103 Cl
ENDBRANCH  11  14
ENDBRANCH   9  10
ENDBRANCH   1   9
BRANCH   8  17
HETATM   17  O3  UNL     1      15.696   1.242  16.233  1.00  0.00    -0.392 OA
ATOM     18  H3  UNL     1      15.120   0.840  16.873  1.00  0.00     0.210 HD
ENDBRANCH   8  17
TORSDOF 4
ENDMDL