MODEL 4
REMARK VINA RESULT: -7.401974439      1.726      2.131
REMARK  7 active torsions:
REMARK  status: ('A' for Active; 'I' for Inactive)
REMARK    1  A    between atoms: C2_2  and  C3_3
REMARK    2  A    between atoms: C3_3  and  C4_4
REMARK    3  A    between atoms: C3_3  and  N3_23
REMARK       I    between atoms: C4_4  and  N1_6
REMARK    4  A    between atoms: N1_6  and  C5_8
REMARK    5  A    between atoms: C8_12  and  C9_13
REMARK    6  A    between atoms: C10_14  and  N2_15
REMARK    7  A    between atoms: C11_18  and  O4_19
ROOT
HETATM    1  C4  UNL     1      19.951 -16.413  22.142  1.00  0.00     0.245 C
HETATM    2  O1  UNL     1      20.238 -16.673  20.968  1.00  0.00    -0.271 OA
HETATM    3  N1  UNL     1      18.893 -15.508  22.374  1.00  0.00    -0.323 N
ATOM      4  H1  UNL     1      18.662 -15.292  23.343  1.00  0.00     0.169 HD
ENDROOT
BRANCH   3   5
HETATM    5  C5  UNL     1      18.134 -14.881  21.365  1.00  0.00     0.065 A
HETATM    6  C6  UNL     1      18.691 -13.867  20.633  1.00  0.00     0.062 A
HETATM    7 CL1  UNL     1      20.338 -13.278  20.905  1.00  0.00    -0.082 Cl
HETATM    8  C7  UNL     1      17.917 -13.298  19.660  1.00  0.00     0.040 A
HETATM    9  C8  UNL     1      16.587 -13.694  19.372  1.00  0.00     0.001 A
HETATM   10  C11 UNL     1      16.043 -14.704  20.112  1.00  0.00     0.086 A
HETATM   11  C13 UNL     1      16.844 -15.283  21.106  1.00  0.00     0.001 A
HETATM   12  C14 UNL     1      16.230 -16.381  21.894  1.00  0.00     0.054 C
BRANCH   9  13
HETATM   13  C9  UNL     1      15.910 -13.001  18.321  1.00  0.00     0.038 C
HETATM   14  C10 UNL     1      16.363 -12.560  17.198  1.00  0.00     0.168 C
BRANCH  14  15
HETATM   15  N2  UNL     1      15.483 -11.875  16.250  1.00  0.00    -0.127 N
HETATM   16  O2  UNL     1      14.414 -11.423  16.679  1.00  0.00    -0.532 OA
HETATM   17  O3  UNL     1      15.834 -11.740  14.939  1.00  0.00    -0.532 OA
ENDBRANCH  14  15
ENDBRANCH   9  13
BRANCH  10  18
HETATM   18  O4  UNL     1      14.744 -15.181  19.943  1.00  0.00    -0.354 OA
HETATM   19  C12 UNL     1      13.715 -14.407  20.613  1.00  0.00     0.210 C
ENDBRANCH  10  18
ENDBRANCH   3   5
BRANCH   1  20
HETATM   20  C3  UNL     1      20.649 -16.990  23.337  1.00  0.00     0.186 C
BRANCH  20  21
HETATM   21  C2  UNL     1      20.016 -18.319  23.575  1.00  0.00     0.031 C
HETATM   22  C1  UNL     1      20.927 -19.483  23.228  1.00  0.00     0.007 C
ENDBRANCH  20  21
BRANCH  20  23
HETATM   23  N3  UNL     1      20.697 -16.101  24.437  1.00  0.00    -0.293 N
HETATM   24  C15 UNL     1      19.863 -16.277  25.516  1.00  0.00     0.144 A
HETATM   25  C16 UNL     1      19.878 -15.436  26.596  1.00  0.00     0.199 A
HETATM   26  F1  UNL     1      19.063 -15.600  27.663  1.00  0.00    -0.199 F
HETATM   27  C17 UNL     1      20.758 -14.377  26.609  1.00  0.00     0.289 A
HETATM   28  O5  UNL     1      20.816 -13.567  27.585  1.00  0.00    -0.265 OA
HETATM   29  N4  UNL     1      21.562 -14.224  25.544  1.00  0.00    -0.273 N
HETATM   30  C18 UNL     1      21.540 -15.066  24.471  1.00  0.00     0.330 A
ATOM     31  H4  UNL     1      22.219 -13.444  25.537  1.00  0.00     0.173 HD
HETATM   32  O6  UNL     1      22.367 -14.752  23.578  1.00  0.00    -0.246 OA
ENDBRANCH  20  23
ENDBRANCH   1  20
TORSDOF 7
ENDMDL