MODEL 2
REMARK VINA RESULT: -6.645544605      1.233      1.371
REMARK  12 active torsions:
REMARK  status: ('A' for Active; 'I' for Inactive)
REMARK    1  A    between atoms: O1_2  and  C2_3
REMARK    2  A    between atoms: C2_3  and  C3_5
REMARK    3  A    between atoms: C3_5  and  O3_6
REMARK    4  A    between atoms: C3_5  and  N1_15
REMARK    5  A    between atoms: O3_6  and  C4_7
REMARK    6  A    between atoms: C4_7  and  C5_8
REMARK    7  A    between atoms: C5_8  and  C6_11
REMARK    8  A    between atoms: C12_18  and  C13_19
REMARK    9  A    between atoms: C12_18  and  C16_23
REMARK   10  A    between atoms: C13_19  and  N2_20
REMARK   11  A    between atoms: C16_23  and  O4_24
REMARK   12  A    between atoms: N3_26  and  O5_28
ROOT
HETATM    1  N1  UNL     1      17.066 -14.696  21.447  1.00  0.00     0.127 N
HETATM    2  C10 UNL     1      16.255 -15.709  20.872  1.00  0.00     0.277 C
HETATM    3  C11 UNL     1      14.814 -15.459  21.225  1.00  0.00     0.050 C
HETATM    4  C12 UNL     1      14.386 -14.140  20.632  1.00  0.00     0.056 C
HETATM    5  C17 UNL     1      15.221 -13.092  21.409  1.00  0.00     0.050 C
HETATM    6  C18 UNL     1      16.319 -13.748  22.198  1.00  0.00     0.277 C
ENDROOT
BRANCH   1   7
HETATM    7  C3  UNL     1      18.261 -15.183  22.083  1.00  0.00     0.459 C
BRANCH   7   8
HETATM    8  C2  UNL     1      19.374 -15.241  21.076  1.00  0.00     0.318 C
HETATM    9  O2  UNL     1      20.212 -16.176  21.071  1.00  0.00    -0.260 OA
BRANCH   8  10
HETATM   10  O1  UNL     1      19.511 -14.256  20.112  1.00  0.00    -0.323 OA
HETATM   11  C1  UNL     1      20.294 -13.087  20.292  1.00  0.00     0.213 C
ENDBRANCH   8  10
ENDBRANCH   7   8
BRANCH   7  12
HETATM   12  O3  UNL     1      18.697 -14.415  23.136  1.00  0.00    -0.347 OA
BRANCH  12  13
HETATM   13  C4  UNL     1      18.833 -15.221  24.256  1.00  0.00     0.214 C
BRANCH  13  14
HETATM   14  C5  UNL     1      20.239 -15.509  24.661  1.00  0.00     0.141 C
HETATM   15 CL1  UNL     1      21.389 -14.450  23.818  1.00  0.00    -0.099 Cl
HETATM   16 CL2  UNL     1      20.682 -17.192  24.218  1.00  0.00    -0.099 Cl
BRANCH  14  17
HETATM   17  C6  UNL     1      20.435 -15.320  26.143  1.00  0.00    -0.014 C
HETATM   18  C7  UNL     1      20.642 -13.870  26.502  1.00  0.00     0.018 C
HETATM   19  C8  UNL     1      19.240 -15.826  26.933  1.00  0.00     0.018 C
HETATM   20  C9  UNL     1      21.651 -16.073  26.634  1.00  0.00     0.018 C
ENDBRANCH  14  17
ENDBRANCH  13  14
ENDBRANCH  12  13
ENDBRANCH   7  12
ENDBRANCH   1   7
BRANCH   4  21
HETATM   21  C13 UNL     1      14.756 -14.072  19.198  1.00  0.00     0.289 C
BRANCH  21  22
HETATM   22  N2  UNL     1      15.439 -12.911  18.728  1.00  0.00     0.081 N
HETATM   23  C14 UNL     1      14.597 -12.381  17.613  1.00  0.00     0.309 C
HETATM   24  C15 UNL     1      16.714 -13.181  18.074  1.00  0.00     0.309 C
ENDBRANCH  21  22
ENDBRANCH   4  21
BRANCH   4  25
HETATM   25  C16 UNL     1      12.967 -13.960  20.966  1.00  0.00     0.146 C
HETATM   26  N3  UNL     1      12.641 -13.643  22.171  1.00  0.00    -0.250 N
ATOM     27  H3  UNL     1      13.382 -13.524  22.862  1.00  0.00     0.196 HD
BRANCH  25  28
HETATM   28  O4  UNL     1      12.002 -14.131  20.001  1.00  0.00    -0.347 OA
ATOM     29  H4  UNL     1      11.363 -14.829  20.083  1.00  0.00     0.219 HD
ENDBRANCH  25  28
BRANCH  26  30
HETATM   30  O5  UNL     1      11.336 -13.456  22.567  1.00  0.00    -0.288 OA
ATOM     31  H5  UNL     1      11.052 -13.549  23.470  1.00  0.00     0.244 HD
ENDBRANCH  26  30
ENDBRANCH   4  25
TORSDOF 12
ENDMDL