MODEL 3
REMARK VINA RESULT: -6.329138477      4.347      5.967
REMARK  7 active torsions:
REMARK  status: ('A' for Active; 'I' for Inactive)
REMARK    1  A    between atoms: C6_10  and  C7_11
REMARK       I    between atoms: C7_11  and  N3_13
REMARK    2  A    between atoms: N3_13  and  C8_15
REMARK    3  A    between atoms: C11_20  and  C12_21
REMARK    4  A    between atoms: C12_21  and  N4_23
REMARK    5  A    between atoms: N4_23  and  C14_24
REMARK    6  A    between atoms: N4_23  and  C17_27
REMARK    7  A    between atoms: C17_27  and  C19_29
ROOT
HETATM    1  C8  UNL     1      12.512 -16.619  21.422  1.00  0.00     0.088 A
HETATM    2  S1  UNL     1      11.156 -17.156  20.542  1.00  0.00    -0.080 SA
HETATM    3  C9  UNL     1      11.719 -18.670  20.066  1.00  0.00     0.094 A
HETATM    4  C10 UNL     1      12.984 -18.733  20.610  1.00  0.00     0.134 A
HETATM    5  F1  UNL     1      13.713 -19.883  20.281  1.00  0.00    -0.205 F
HETATM    6  C11 UNL     1      13.422 -17.670  21.328  1.00  0.00     0.048 A
ENDROOT
BRANCH   1   7
HETATM    7  N3  UNL     1      12.595 -15.401  22.151  1.00  0.00    -0.316 N
HETATM    8  C7  UNL     1      12.335 -14.177  21.458  1.00  0.00     0.258 C
HETATM    9  O2  UNL     1      12.071 -14.211  20.233  1.00  0.00    -0.267 OA
ATOM     10  H3  UNL     1      12.835 -15.400  23.143  1.00  0.00     0.169 HD
BRANCH   8  11
HETATM   11  C6  UNL     1      12.358 -12.893  22.126  1.00  0.00     0.061 A
HETATM   12  C2  UNL     1      13.282 -11.936  21.817  1.00  0.00     0.038 A
HETATM   13  C1  UNL     1      14.346 -12.184  20.811  1.00  0.00     0.070 C
HETATM   14  N1  UNL     1      13.231 -10.736  22.441  1.00  0.00    -0.300 N
HETATM   15  N2  UNL     1      12.320 -10.456  23.340  1.00  0.00    -0.262 N
ATOM     16  H1  UNL     1      13.924 -10.026  22.203  1.00  0.00     0.187 HD
HETATM   17  C3  UNL     1      12.333  -9.140  23.942  1.00  0.00     0.181 C
HETATM   18  C4  UNL     1      11.394 -11.377  23.671  1.00  0.00     0.262 A
HETATM   19  O1  UNL     1      10.551 -11.046  24.538  1.00  0.00    -0.267 OA
HETATM   20  C5  UNL     1      11.386 -12.622  23.073  1.00  0.00     0.095 A
ENDBRANCH   8  11
ENDBRANCH   1   7
BRANCH   6  21
HETATM   21  C12 UNL     1      14.834 -17.518  21.879  1.00  0.00     0.259 C
HETATM   22  C13 UNL     1      15.149 -18.503  22.936  1.00  0.00     0.048 C
BRANCH  21  23
HETATM   23  N4  UNL     1      15.772 -17.559  20.763  1.00  0.00     0.115 N
BRANCH  23  24
HETATM   24  C14 UNL     1      16.788 -18.536  20.815  1.00  0.00     0.217 C
HETATM   25  C15 UNL     1      18.143 -18.235  21.352  1.00  0.00     0.042 C
HETATM   26  C16 UNL     1      16.825 -19.590  19.746  1.00  0.00     0.042 C
ENDBRANCH  23  24
BRANCH  23  27
HETATM   27  C17 UNL     1      16.352 -16.247  20.551  1.00  0.00     0.320 C
HETATM   28  C18 UNL     1      16.018 -15.326  21.742  1.00  0.00     0.055 C
BRANCH  27  29
HETATM   29  C19 UNL     1      15.773 -15.503  19.422  1.00  0.00     0.207 C
HETATM   30  O3  UNL     1      16.303 -14.412  19.001  1.00  0.00    -0.646 OA
HETATM   31  O4  UNL     1      14.643 -15.881  18.737  1.00  0.00    -0.646 OA
ENDBRANCH  27  29
ENDBRANCH  23  27
ENDBRANCH  21  23
ENDBRANCH   6  21
TORSDOF 7
ENDMDL