MODEL 5
REMARK VINA RESULT: -7.701824679      4.585      8.366
REMARK  10 active torsions:
REMARK  status: ('A' for Active; 'I' for Inactive)
REMARK    1  A    between atoms: C2_2  and  C3_3
REMARK    2  A    between atoms: C3_3  and  N1_4
REMARK    3  A    between atoms: C4_5  and  C5_6
REMARK    4  A    between atoms: C5_6  and  C6_7
REMARK    5  A    between atoms: C10_20  and  S1_21
REMARK    6  A    between atoms: S1_21  and  C11_22
REMARK    7  A    between atoms: C11_22  and  C12_23
REMARK    8  A    between atoms: C12_23  and  O3_25
REMARK    9  A    between atoms: O3_25  and  C13_26
REMARK   10  A    between atoms: C13_26  and  C14_28
ROOT
HETATM    1  N1  UNL     1      18.289 -15.525  22.395  1.00  0.00    -0.308 N
HETATM    2  C4  UNL     1      18.433 -15.101  23.628  1.00  0.00     0.126 A
HETATM    3  N4  UNL     1      17.353 -15.710  24.309  1.00  0.00    -0.283 N
ATOM      4  H4  UNL     1      17.156 -15.602  25.304  1.00  0.00     0.188 HD
HETATM    5  N5  UNL     1      16.660 -16.415  23.498  1.00  0.00    -0.278 N
ATOM      6  H5  UNL     1      15.830 -16.950  23.753  1.00  0.00     0.189 HD
HETATM    7  C10 UNL     1      17.181 -16.351  22.264  1.00  0.00     0.163 A
ENDROOT
BRANCH   7   8
HETATM    8  S1  UNL     1      16.544 -17.080  20.783  1.00  0.00    -0.082 SA
BRANCH   8   9
HETATM    9  C11 UNL     1      14.928 -17.769  21.035  1.00  0.00     0.194 C
BRANCH   9  10
HETATM   10  C12 UNL     1      13.885 -16.710  21.238  1.00  0.00     0.276 C
HETATM   11  O2  UNL     1      13.042 -16.744  22.147  1.00  0.00    -0.264 OA
BRANCH  10  12
HETATM   12  O3  UNL     1      13.922 -15.652  20.314  1.00  0.00    -0.241 OA
BRANCH  12  13
HETATM   13  C13 UNL     1      13.093 -14.563  20.405  1.00  0.00     0.321 C
HETATM   14  O4  UNL     1      11.982 -14.574  19.810  1.00  0.00    -0.260 OA
BRANCH  13  15
HETATM   15  C14 UNL     1      13.435 -13.347  21.188  1.00  0.00     0.277 C
HETATM   16 CL1  UNL     1      13.143 -11.849  20.251  1.00  0.00    -0.073 Cl
HETATM   17 CL2  UNL     1      12.319 -13.355  22.610  1.00  0.00    -0.073 Cl
HETATM   18 CL3  UNL     1      15.120 -13.332  21.730  1.00  0.00    -0.073 Cl
ENDBRANCH  13  15
ENDBRANCH  12  13
ENDBRANCH  10  12
ENDBRANCH   9  10
ENDBRANCH   8   9
ENDBRANCH   7   8
BRANCH   1  19
HETATM   19  C3  UNL     1      19.148 -15.272  21.229  1.00  0.00     0.159 C
BRANCH  19  20
HETATM   20  C2  UNL     1      19.034 -13.869  20.757  1.00  0.00    -0.017 C
HETATM   21  C1  UNL     1      20.058 -13.265  20.201  1.00  0.00     0.008 C
ENDBRANCH  19  20
ENDBRANCH   1  19
BRANCH   2  22
HETATM   22  C5  UNL     1      19.279 -14.160  24.338  1.00  0.00     0.081 C
BRANCH  22  23
HETATM   23  C6  UNL     1      20.677 -14.410  24.622  1.00  0.00     0.062 A
HETATM   24  N2  UNL     1      21.640 -14.752  23.722  1.00  0.00    -0.307 N
HETATM   25  C7  UNL     1      22.841 -14.835  24.318  1.00  0.00     0.325 A
ATOM     26  H2  UNL     1      21.473 -14.921  22.731  1.00  0.00     0.170 HD
HETATM   27  O1  UNL     1      23.931 -15.124  23.769  1.00  0.00    -0.247 OA
HETATM   28  N3  UNL     1      22.654 -14.550  25.617  1.00  0.00    -0.311 N
HETATM   29  C8  UNL     1      21.359 -14.294  25.811  1.00  0.00     0.036 A
ATOM     30  H3  UNL     1      23.380 -14.532  26.334  1.00  0.00     0.170 HD
HETATM   31  C9  UNL     1      20.773 -13.982  27.157  1.00  0.00     0.070 C
ENDBRANCH  22  23
ENDBRANCH   2  22
TORSDOF 10
ENDMDL