MODEL 3
REMARK VINA RESULT: -6.335929986      1.148      1.256
REMARK  7 active torsions:
REMARK  status: ('A' for Active; 'I' for Inactive)
REMARK    1  A    between atoms: O1_2  and  C2_3
REMARK    2  A    between atoms: C4_5  and  O2_6
REMARK    3  A    between atoms: C6_8  and  C7_9
REMARK    4  A    between atoms: N1_10  and  N2_12
REMARK       I    between atoms: N2_12  and  C8_14
REMARK    5  A    between atoms: C8_14  and  C9_16
REMARK    6  A    between atoms: C11_18  and  S1_19
REMARK    7  A    between atoms: S1_19  and  N3_20
ROOT
HETATM    1  N2  UNL     1      18.469 -14.404  23.423  1.00  0.00    -0.266 N
ATOM      2  H2  UNL     1      18.345 -13.448  23.754  1.00  0.00     0.190 HD
HETATM    3  C8  UNL     1      17.608 -14.833  22.402  1.00  0.00     0.273 C
HETATM    4  O3  UNL     1      17.755 -16.030  21.990  1.00  0.00    -0.266 OA
ENDROOT
BRANCH   3   5
HETATM    5  C9  UNL     1      16.572 -14.075  21.767  1.00  0.00     0.073 A
HETATM    6  C10 UNL     1      15.253 -14.559  21.765  1.00  0.00     0.047 A
HETATM    7  C11 UNL     1      14.199 -13.904  21.217  1.00  0.00     0.102 A
HETATM    8  C12 UNL     1      14.451 -12.675  20.623  1.00  0.00     0.060 A
HETATM    9 CL1  UNL     1      13.086 -11.830  19.917  1.00  0.00    -0.083 Cl
HETATM   10  C13 UNL     1      15.724 -12.164  20.603  1.00  0.00     0.068 A
HETATM   11  C14 UNL     1      16.788 -12.861  21.173  1.00  0.00     0.133 A
HETATM   12  F1  UNL     1      18.009 -12.265  21.072  1.00  0.00    -0.205 F
BRANCH   7  13
HETATM   13  S1  UNL     1      12.567 -14.560  21.249  1.00  0.00     0.258 S
HETATM   14  O4  UNL     1      11.904 -14.539  19.923  1.00  0.00    -0.201 OA
HETATM   15  O5  UNL     1      12.664 -15.960  21.804  1.00  0.00    -0.201 OA
BRANCH  13  16
HETATM   16  N3  UNL     1      11.659 -13.585  22.376  1.00  0.00    -0.324 N
ATOM     17  H32 UNL     1      10.994 -12.851  22.132  1.00  0.00     0.169 HD
ATOM     18  H31 UNL     1      11.925 -13.896  23.311  1.00  0.00     0.169 HD
ENDBRANCH  13  16
ENDBRANCH   7  13
ENDBRANCH   3   5
BRANCH   1  19
HETATM   19  N1  UNL     1      19.468 -15.141  24.026  1.00  0.00    -0.308 N
HETATM   20  C7  UNL     1      20.673 -15.314  23.771  1.00  0.00     0.129 C
ATOM     21  H1  UNL     1      19.153 -15.649  24.853  1.00  0.00     0.186 HD
BRANCH  20  22
HETATM   22  C6  UNL     1      21.491 -16.194  24.645  1.00  0.00     0.057 A
HETATM   23  C4  UNL     1      21.473 -16.327  26.005  1.00  0.00     0.089 A
HETATM   24  C3  UNL     1      22.337 -17.209  26.543  1.00  0.00     0.082 A
HETATM   25  C2  UNL     1      23.155 -17.891  25.685  1.00  0.00     0.112 A
HETATM   26  S2  UNL     1      22.693 -17.283  24.156  1.00  0.00    -0.061 SA
BRANCH  23  27
HETATM   27  O2  UNL     1      20.563 -15.546  26.774  1.00  0.00    -0.354 OA
HETATM   28  C5  UNL     1      20.868 -14.284  27.276  1.00  0.00     0.210 C
ENDBRANCH  23  27
BRANCH  25  29
HETATM   29  O1  UNL     1      24.131 -18.856  26.009  1.00  0.00    -0.349 OA
HETATM   30  C1  UNL     1      25.463 -18.380  26.186  1.00  0.00     0.211 C
ENDBRANCH  25  29
ENDBRANCH  20  22
ENDBRANCH   1  19
TORSDOF 7
ENDMDL