MODEL 3
REMARK VINA RESULT: -7.651564161      2.326      2.813
REMARK  8 active torsions:
REMARK  status: ('A' for Active; 'I' for Inactive)
REMARK    1  A    between atoms: C2_2  and  C3_3
REMARK    2  A    between atoms: C3_3  and  S1_4
REMARK    3  A    between atoms: C3_3  and  C16_28
REMARK    4  A    between atoms: S1_4  and  C4_5
REMARK    5  A    between atoms: C4_5  and  C5_6
REMARK    6  A    between atoms: C5_6  and  N3_11
REMARK    7  A    between atoms: N3_11  and  N4_13
REMARK    8  A    between atoms: C7_15  and  C8_16
ROOT
HETATM    1  C5  UNL     1      14.380 -13.696  20.555  1.00  0.00     0.114 C
HETATM    2  N1  UNL     1      15.074 -12.672  20.235  1.00  0.00    -0.281 N
ATOM      3  H1  UNL     1      14.581 -11.838  19.917  1.00  0.00     0.179 HD
HETATM    4  C6  UNL     1      16.444 -12.631  20.295  1.00  0.00     0.183 C
HETATM    5  N2  UNL     1      17.607 -12.585  20.326  1.00  0.00    -0.172 NA
ENDROOT
BRANCH   1   6
HETATM    6  C4  UNL     1      12.906 -13.592  20.438  1.00  0.00     0.153 C
BRANCH   6   7
HETATM    7  S1  UNL     1      12.099 -13.402  22.019  1.00  0.00    -0.146 SA
BRANCH   7   8
HETATM    8  C3  UNL     1      12.287 -11.808  22.787  1.00  0.00     0.148 C
BRANCH   8   9
HETATM    9  C2  UNL     1      11.247 -11.413  23.769  1.00  0.00     0.021 C
HETATM   10  C1  UNL     1      11.425 -10.143  24.502  1.00  0.00     0.007 C
ENDBRANCH   8   9
BRANCH   8  11
HETATM   11  C16 UNL     1      12.573 -10.720  21.794  1.00  0.00     0.187 C
HETATM   12  O3  UNL     1      11.683 -10.193  21.086  1.00  0.00    -0.647 OA
HETATM   13  O4  UNL     1      13.868 -10.253  21.625  1.00  0.00    -0.647 OA
ENDBRANCH   8  11
ENDBRANCH   7   8
ENDBRANCH   6   7
ENDBRANCH   1   6
BRANCH   1  14
HETATM   14  N3  UNL     1      15.028 -14.871  20.999  1.00  0.00    -0.288 N
ATOM     15  H3  UNL     1      14.887 -15.729  20.465  1.00  0.00     0.188 HD
BRANCH  14  16
HETATM   16  N4  UNL     1      15.848 -14.928  22.121  1.00  0.00    -0.310 N
HETATM   17  C7  UNL     1      16.791 -15.757  22.293  1.00  0.00     0.120 C
ATOM     18  H4  UNL     1      15.676 -14.251  22.864  1.00  0.00     0.186 HD
BRANCH  17  19
HETATM   19  C8  UNL     1      17.609 -15.740  23.521  1.00  0.00     0.007 A
HETATM   20  C9  UNL     1      18.484 -14.712  23.794  1.00  0.00     0.054 A
HETATM   21  C10 UNL     1      19.261 -14.670  24.933  1.00  0.00     0.104 A
HETATM   22  C11 UNL     1      19.174 -15.698  25.859  1.00  0.00     0.125 A
HETATM   23  O2  UNL     1      20.143 -13.645  25.218  1.00  0.00    -0.346 OA
HETATM   24  C12 UNL     1      18.294 -16.721  25.573  1.00  0.00     0.092 A
HETATM   25  O1  UNL     1      19.952 -15.680  27.020  1.00  0.00    -0.344 OA
HETATM   26 CL1  UNL     1      18.184 -18.033  26.754  1.00  0.00    -0.079 Cl
HETATM   27  C13 UNL     1      17.517 -16.769  24.441  1.00  0.00     0.070 A
HETATM   28 CL2  UNL     1      16.420 -18.091  24.134  1.00  0.00    -0.081 Cl
HETATM   29  C14 UNL     1      21.194 -14.975  26.912  1.00  0.00     0.202 C
HETATM   30  C15 UNL     1      21.017 -13.613  26.306  1.00  0.00     0.202 C
ENDBRANCH  17  19
ENDBRANCH  14  16
ENDBRANCH   1  14
TORSDOF 8
ENDMDL