MODEL 3
REMARK VINA RESULT: -6.742535705      2.298      2.791
REMARK  11 active torsions:
REMARK  status: ('A' for Active; 'I' for Inactive)
REMARK       I    between atoms: N1_2  and  C3_4
REMARK    1  A    between atoms: C3_4  and  C4_6
REMARK    2  A    between atoms: C4_6  and  S1_7
REMARK    3  A    between atoms: S1_7  and  C5_8
REMARK    4  A    between atoms: C8_14  and  C9_15
REMARK    5  A    between atoms: C11_18  and  C12_19
REMARK    6  A    between atoms: C12_19  and  O2_20
REMARK    7  A    between atoms: C12_19  and  N3_22
REMARK    8  A    between atoms: N3_22  and  C13_24
REMARK    9  A    between atoms: C13_24  and  C14_25
REMARK   10  A    between atoms: C14_25  and  C15_26
REMARK   11  A    between atoms: C15_26  and  O3_27
ROOT
HETATM    1  C9  UNL     1      15.135 -15.179  21.350  1.00  0.00    -0.047 C
HETATM    2  C10 UNL     1      13.954 -15.533  21.339  1.00  0.00     0.010 C
HETATM    3 CL2  UNL     1      12.308 -16.044  21.306  1.00  0.00    -0.023 Cl
ENDROOT
BRANCH   1   4
HETATM    4  C8  UNL     1      16.561 -14.756  21.325  1.00  0.00     0.056 A
HETATM    5  C7  UNL     1      17.578 -15.563  21.767  1.00  0.00     0.057 A
HETATM    6  C6  UNL     1      17.501 -16.864  22.300  1.00  0.00     0.120 A
HETATM    7  C16 UNL     1      18.837 -15.066  21.691  1.00  0.00     0.091 A
HETATM    8  N2  UNL     1      18.602 -17.514  22.685  1.00  0.00    -0.327 N
HETATM    9 CL1  UNL     1      15.948 -17.693  22.484  1.00  0.00    -0.063 Cl
HETATM   10  C5  UNL     1      19.833 -17.017  22.607  1.00  0.00     0.146 A
ATOM     11  H2  UNL     1      18.492 -18.453  23.065  1.00  0.00     0.169 HD
HETATM   12  N4  UNL     1      19.945 -15.770  22.101  1.00  0.00    -0.330 N
ATOM     13  H4  UNL     1      20.868 -15.342  22.021  1.00  0.00     0.168 HD
HETATM   14  S2  UNL     1      18.627 -13.520  21.027  1.00  0.00    -0.066 SA
HETATM   15  C11 UNL     1      16.879 -13.527  20.849  1.00  0.00     0.077 A
BRANCH  10  16
HETATM   16  S1  UNL     1      21.285 -17.907  23.133  1.00  0.00    -0.085 SA
BRANCH  16  17
HETATM   17  C4  UNL     1      21.789 -17.314  24.757  1.00  0.00     0.185 C
BRANCH  17  18
HETATM   18  C3  UNL     1      21.690 -15.842  24.796  1.00  0.00     0.228 C
HETATM   19  N1  UNL     1      20.782 -15.203  25.701  1.00  0.00    -0.360 N
HETATM   20  C1  UNL     1      19.980 -16.022  26.560  1.00  0.00     0.152 C
HETATM   21  C2  UNL     1      20.679 -13.764  25.746  1.00  0.00     0.152 C
HETATM   22  O1  UNL     1      22.379 -15.095  24.058  1.00  0.00    -0.273 OA
ENDBRANCH  17  18
ENDBRANCH  16  17
ENDBRANCH  10  16
BRANCH  15  23
HETATM   23  C12 UNL     1      16.142 -12.394  20.305  1.00  0.00     0.154 C
BRANCH  23  24
HETATM   24  O2  UNL     1      16.249 -12.178  19.022  1.00  0.00    -0.345 OA
ATOM     25  H2  UNL     1      15.542 -11.701  18.605  1.00  0.00     0.219 HD
ENDBRANCH  23  24
BRANCH  23  26
HETATM   26  N3  UNL     1      15.322 -11.485  20.960  1.00  0.00    -0.370 N
ATOM     27  H3  UNL     1      15.675 -10.549  21.159  1.00  0.00     0.161 HD
BRANCH  26  28
HETATM   28  C13 UNL     1      13.950 -11.844  21.372  1.00  0.00     0.123 C
BRANCH  28  29
HETATM   29  C14 UNL     1      13.339 -10.651  22.055  1.00  0.00     0.045 C
BRANCH  29  30
HETATM   30  C15 UNL     1      12.104 -10.256  21.242  1.00  0.00     0.165 C
BRANCH  30  31
HETATM   31  O3  UNL     1      12.454  -9.899  19.952  1.00  0.00    -0.401 OA
ATOM     32  H3  UNL     1      12.199 -10.573  19.332  1.00  0.00     0.209 HD
ENDBRANCH  30  31
ENDBRANCH  29  30
ENDBRANCH  28  29
ENDBRANCH  26  28
ENDBRANCH  23  26
ENDBRANCH  15  23
ENDBRANCH   1   4
TORSDOF 11
ENDMDL