MODEL 1
REMARK VINA RESULT: -7.291646748      0.000      0.000
REMARK  7 active torsions:
REMARK  status: ('A' for Active; 'I' for Inactive)
REMARK    1  A    between atoms: N1_2  and  C2_3
REMARK    2  A    between atoms: N1_2  and  S2_21
REMARK    3  A    between atoms: C2_3  and  C3_4
REMARK    4  A    between atoms: C3_4  and  C4_5
REMARK    5  A    between atoms: C4_5  and  C5_6
REMARK    6  A    between atoms: C5_6  and  N2_7
REMARK    7  A    between atoms: S2_21  and  C10_24
ROOT
HETATM    1  C5  UNL     1      13.323 -12.268  21.074  1.00  0.00     0.231 C
HETATM    2  C6  UNL     1      12.708 -10.943  21.244  1.00  0.00     0.091 C
HETATM    3  N3  UNL     1      12.643 -10.110  20.319  1.00  0.00    -0.394 N
ATOM      4  H31 UNL     1      12.216  -9.191  20.437  1.00  0.00     0.156 HD
ATOM      5  H32 UNL     1      13.050 -10.348  19.415  1.00  0.00     0.156 HD
HETATM    6  S1  UNL     1      11.981 -10.519  22.859  1.00  0.00    -0.036 SA
HETATM    7  C7  UNL     1      11.282 -12.097  23.443  1.00  0.00     0.199 C
HETATM    8  O1  UNL     1      10.817 -12.218  24.519  1.00  0.00    -0.285 OA
HETATM    9  C8  UNL     1      11.353 -13.191  22.458  1.00  0.00     0.172 C
HETATM   10  C9  UNL     1      12.703 -13.340  21.900  1.00  0.00     0.177 C
HETATM   11  O2  UNL     1      13.330 -14.356  22.114  1.00  0.00    -0.294 OA
ENDROOT
BRANCH   1  12
HETATM   12  C4  UNL     1      14.819 -12.191  21.370  1.00  0.00     0.056 C
BRANCH  12  13
HETATM   13  C3  UNL     1      15.592 -12.620  20.183  1.00  0.00     0.024 C
BRANCH  13  14
HETATM   14  C2  UNL     1      16.794 -13.505  20.587  1.00  0.00     0.135 C
BRANCH  14  15
HETATM   15  N1  UNL     1      16.339 -14.836  20.586  1.00  0.00    -0.311 N
HETATM   16  C1  UNL     1      15.701 -15.299  19.412  1.00  0.00     0.163 C
BRANCH  15  17
HETATM   17  S2  UNL     1      16.919 -15.942  21.677  1.00  0.00     0.268 S
HETATM   18  O3  UNL     1      17.594 -17.082  20.923  1.00  0.00    -0.200 OA
HETATM   19  O4  UNL     1      15.818 -16.614  22.477  1.00  0.00    -0.200 OA
BRANCH  17  20
HETATM   20  C10 UNL     1      18.080 -15.358  22.847  1.00  0.00     0.143 A
HETATM   21  S3  UNL     1      18.025 -15.234  24.540  1.00  0.00    -0.063 SA
HETATM   22  C11 UNL     1      19.566 -14.568  24.823  1.00  0.00     0.077 A
HETATM   23 CL1  UNL     1      20.327 -14.118  26.362  1.00  0.00    -0.076 Cl
HETATM   24  C12 UNL     1      20.090 -14.459  23.570  1.00  0.00     0.057 A
HETATM   25  C13 UNL     1      19.320 -14.870  22.532  1.00  0.00     0.066 A
HETATM   26 CL2  UNL     1      19.926 -14.765  20.836  1.00  0.00    -0.082 Cl
ENDBRANCH  17  20
ENDBRANCH  15  17
ENDBRANCH  14  15
ENDBRANCH  13  14
ENDBRANCH  12  13
ENDBRANCH   1  12
BRANCH   1  27
HETATM   27  N2  UNL     1      13.105 -12.642  19.678  1.00  0.00    -0.057 N
ATOM     28  H23 UNL     1      13.936 -13.062  19.262  1.00  0.00     0.276 HD
ATOM     29  H22 UNL     1      12.475 -13.439  19.590  1.00  0.00     0.276 HD
ATOM     30  H21 UNL     1      12.778 -11.835  19.146  1.00  0.00     0.276 HD
ENDBRANCH   1  27
TORSDOF 7
ENDMDL