MODEL 1
REMARK VINA RESULT: -8.027983629      0.000      0.000
REMARK  10 active torsions:
REMARK  status: ('A' for Active; 'I' for Inactive)
REMARK    1  A    between atoms: C2_2  and  O1_3
REMARK    2  A    between atoms: O1_3  and  C3_4
REMARK    3  A    between atoms: C3_4  and  C4_6
REMARK    4  A    between atoms: C4_6  and  C5_7
REMARK    5  A    between atoms: C5_7  and  N1_8
REMARK    6  A    between atoms: C5_7  and  C15_25
REMARK    7  A    between atoms: N1_8  and  C6_9
REMARK    8  A    between atoms: C7_12  and  C8_13
REMARK    9  A    between atoms: C11_17  and  O3_18
REMARK   10  A    between atoms: C15_25  and  C16_27
ROOT
HETATM    1  C16 UNL     1      14.290 -13.500  18.625  1.00  0.00     0.299 C
HETATM    2  O5  UNL     1      14.968 -14.486  18.237  1.00  0.00    -0.272 OA
HETATM    3  C17 UNL     1      14.272 -12.328  17.765  1.00  0.00     0.147 C
HETATM    4  N3  UNL     1      14.262 -11.391  17.064  1.00  0.00    -0.188 NA
ENDROOT
BRANCH   1   5
HETATM    5  C15 UNL     1      13.550 -13.486  19.857  1.00  0.00     0.245 C
HETATM    6  O4  UNL     1      12.338 -13.802  19.850  1.00  0.00    -0.285 OA
BRANCH   5   7
HETATM    7  C5  UNL     1      14.141 -13.104  21.195  1.00  0.00     0.253 C
BRANCH   7   8
HETATM    8  C4  UNL     1      13.660 -11.659  21.396  1.00  0.00     0.159 C
BRANCH   8   9
HETATM    9  C3  UNL     1      12.677 -11.588  22.499  1.00  0.00     0.262 C
HETATM   10  O2  UNL     1      12.365 -12.690  23.068  1.00  0.00    -0.265 OA
BRANCH   9  11
HETATM   11  O1  UNL     1      12.080 -10.448  22.953  1.00  0.00    -0.322 OA
BRANCH  11  12
HETATM   12  C2  UNL     1      11.524 -10.348  24.270  1.00  0.00     0.174 C
HETATM   13  C1  UNL     1      11.859  -8.949  24.770  1.00  0.00     0.034 C
ENDBRANCH  11  12
ENDBRANCH   9  11
ENDBRANCH   8   9
ENDBRANCH   7   8
BRANCH   7  14
HETATM   14  N1  UNL     1      15.416 -13.338  21.362  1.00  0.00    -0.410 NA
BRANCH  14  15
HETATM   15  C6  UNL     1      16.633 -13.530  21.410  1.00  0.00     0.217 A
HETATM   16  N2  UNL     1      17.363 -13.924  22.490  1.00  0.00    -0.324 N
HETATM   17  C7  UNL     1      18.633 -14.067  22.381  1.00  0.00     0.052 A
ATOM     18  H2  UNL     1      16.901 -14.105  23.382  1.00  0.00     0.169 HD
HETATM   19  C14 UNL     1      19.214 -13.812  21.159  1.00  0.00     0.084 A
HETATM   20  S1  UNL     1      17.870 -13.373  20.211  1.00  0.00    -0.049 SA
BRANCH  17  21
HETATM   21  C8  UNL     1      19.520 -14.492  23.515  1.00  0.00    -0.005 A
HETATM   22  C9  UNL     1      18.974 -14.979  24.673  1.00  0.00     0.040 A
HETATM   23  C10 UNL     1      19.831 -15.363  25.702  1.00  0.00     0.069 A
HETATM   24 CL1  UNL     1      19.159 -15.996  27.189  1.00  0.00    -0.081 Cl
HETATM   25  C11 UNL     1      21.194 -15.270  25.599  1.00  0.00     0.109 A
HETATM   26  C12 UNL     1      21.711 -14.770  24.410  1.00  0.00     0.069 A
HETATM   27 CL2  UNL     1      23.452 -14.651  24.273  1.00  0.00    -0.081 Cl
HETATM   28  C13 UNL     1      20.878 -14.388  23.383  1.00  0.00     0.040 A
BRANCH  25  29
HETATM   29  O3  UNL     1      22.049 -15.649  26.621  1.00  0.00    -0.357 OA
ATOM     30  H3  UNL     1      22.674 -15.052  27.015  1.00  0.00     0.217 HD
ENDBRANCH  25  29
ENDBRANCH  17  21
ENDBRANCH  14  15
ENDBRANCH   7  14
ENDBRANCH   5   7
ENDBRANCH   1   5
TORSDOF 10
ENDMDL