MODEL 2
REMARK VINA RESULT: -7.156150473      0.941      1.057
REMARK  7 active torsions:
REMARK  status: ('A' for Active; 'I' for Inactive)
REMARK    1  A    between atoms: C2_2  and  C3_3
REMARK    2  A    between atoms: C3_3  and  N1_4
REMARK    3  A    between atoms: C7_9  and  N2_10
REMARK       I    between atoms: N2_10  and  C8_12
REMARK    4  A    between atoms: C8_12  and  C9_14
REMARK    5  A    between atoms: N4_24  and  C15_25
REMARK    6  A    between atoms: N5_27  and  C17_28
REMARK    7  A    between atoms: C17_28  and  C18_29
ROOT
HETATM    1  N1  UNL     1      14.294 -13.090  20.430  1.00  0.00    -0.264 N
HETATM    2  C4  UNL     1      13.977 -14.374  20.786  1.00  0.00     0.281 A
HETATM    3  O1  UNL     1      12.803 -14.781  20.584  1.00  0.00    -0.265 OA
HETATM    4  C5  UNL     1      14.899 -15.228  21.353  1.00  0.00     0.133 A
HETATM    5  C6  UNL     1      16.207 -14.771  21.577  1.00  0.00     0.100 A
HETATM    6  C7  UNL     1      16.929 -15.801  22.091  1.00  0.00     0.087 A
HETATM    7  C13 UNL     1      16.065 -16.914  22.194  1.00  0.00     0.037 A
HETATM    8  C14 UNL     1      16.433 -18.259  22.709  1.00  0.00     0.071 C
HETATM    9  N4  UNL     1      14.893 -16.511  21.746  1.00  0.00    -0.343 N
HETATM   10  N5  UNL     1      16.511 -13.514  21.229  1.00  0.00    -0.295 N
HETATM   11  C20 UNL     1      15.537 -12.730  20.669  1.00  0.00     0.332 A
HETATM   12  O3  UNL     1      15.891 -11.561  20.360  1.00  0.00    -0.246 OA
ENDROOT
BRANCH   6  13
HETATM   13  N2  UNL     1      18.269 -15.850  22.474  1.00  0.00    -0.318 N
HETATM   14  C8  UNL     1      18.850 -15.480  23.702  1.00  0.00     0.273 C
HETATM   15  O2  UNL     1      18.063 -15.043  24.607  1.00  0.00    -0.266 OA
ATOM     16  H2  UNL     1      18.916 -16.202  21.768  1.00  0.00     0.169 HD
BRANCH  14  17
HETATM   17  C9  UNL     1      20.280 -15.574  23.965  1.00  0.00     0.105 A
HETATM   18  C10 UNL     1      20.924 -16.756  24.260  1.00  0.00     0.080 A
HETATM   19  C11 UNL     1      22.284 -16.488  24.457  1.00  0.00     0.157 A
HETATM   20  F1  UNL     1      23.257 -17.377  24.764  1.00  0.00    -0.203 F
HETATM   21  C12 UNL     1      22.416 -15.136  24.271  1.00  0.00     0.143 A
HETATM   22 CL1  UNL     1      23.920 -14.260  24.398  1.00  0.00    -0.061 Cl
HETATM   23  N3  UNL     1      21.203 -14.621  23.979  1.00  0.00    -0.340 N
ATOM     24  H3  UNL     1      21.021 -13.634  23.796  1.00  0.00     0.167 HD
ENDBRANCH  14  17
ENDBRANCH   6  13
BRANCH  10  25
HETATM   25  C17 UNL     1      17.765 -12.906  21.495  1.00  0.00     0.134 C
BRANCH  25  26
HETATM   26  C18 UNL     1      18.754 -12.993  20.382  1.00  0.00     0.016 C
HETATM   27  C19 UNL     1      20.099 -13.518  20.647  1.00  0.00     0.006 C
ENDBRANCH  25  26
ENDBRANCH  10  25
BRANCH   9  28
HETATM   28  C15 UNL     1      13.709 -17.354  21.683  1.00  0.00     0.125 C
HETATM   29  C16 UNL     1      13.646 -18.135  20.381  1.00  0.00     0.027 C
ENDBRANCH   9  28
BRANCH   1  30
HETATM   30  C3  UNL     1      13.263 -12.308  19.834  1.00  0.00     0.137 C
BRANCH  30  31
HETATM   31  C2  UNL     1      12.749 -11.142  20.574  1.00  0.00     0.016 C
HETATM   32  C1  UNL     1      11.945 -11.592  21.768  1.00  0.00     0.006 C
ENDBRANCH  30  31
ENDBRANCH   1  30
TORSDOF 7
ENDMDL