MODEL 1
REMARK VINA RESULT: -11.045419990      0.000      0.000
REMARK  5 active torsions:
REMARK  status: ('A' for Active; 'I' for Inactive)
REMARK    1  A    between atoms: C4_4  and  C5_5
REMARK    2  A    between atoms: C5_5  and  C6_6
REMARK    3  A    between atoms: C6_6  and  C7_7
REMARK    4  A    between atoms: C6_6  and  C19_19
REMARK    5  A    between atoms: C10_10  and  C11_11
ROOT
HETATM    1  C6  UNL     1      58.679  34.978  31.981  1.00  0.00    -0.033 C
ENDROOT
BRANCH   1   2
HETATM    2  C5  UNL     1      58.018  34.038  32.922  1.00  0.00     0.078 C
BRANCH   2   3
HETATM    3  C4  UNL     1      56.676  33.575  32.524  1.00  0.00    -0.054 A
HETATM    4  C3  UNL     1      55.552  34.358  32.798  1.00  0.00     0.007 A
HETATM    5  C2  UNL     1      54.335  33.881  32.418  1.00  0.00     0.001 A
HETATM    6  C1  UNL     1      54.174  32.670  31.783  1.00  0.00     0.000 A
HETATM    7  C30 UNL     1      55.262  31.875  31.499  1.00  0.00     0.001 A
HETATM    8  C29 UNL     1      56.508  32.366  31.889  1.00  0.00     0.007 A
ENDBRANCH   2   3
ENDBRANCH   1   2
BRANCH   1   9
HETATM    9  C7  UNL     1      58.339  34.787  30.549  1.00  0.00    -0.029 A
HETATM   10  C8  UNL     1      58.888  33.757  29.838  1.00  0.00     0.013 A
HETATM   11  C9  UNL     1      58.518  33.595  28.516  1.00  0.00     0.013 A
HETATM   12  C10 UNL     1      57.618  34.421  27.869  1.00  0.00    -0.026 A
HETATM   13  C17 UNL     1      57.082  35.448  28.608  1.00  0.00     0.013 A
HETATM   14  C18 UNL     1      57.447  35.620  29.937  1.00  0.00     0.013 A
BRANCH  12  15
HETATM   15  C11 UNL     1      57.235  34.241  26.488  1.00  0.00    -0.026 A
HETATM   16  C12 UNL     1      58.091  34.640  25.483  1.00  0.00     0.012 A
HETATM   17  C13 UNL     1      57.744  34.474  24.158  1.00  0.00     0.001 A
HETATM   18  C14 UNL     1      56.516  33.901  23.836  1.00  0.00     0.000 A
HETATM   19  C15 UNL     1      55.671  33.508  24.866  1.00  0.00     0.001 A
HETATM   20  C16 UNL     1      56.011  33.670  26.189  1.00  0.00     0.012 A
ENDBRANCH  12  15
ENDBRANCH   1   9
BRANCH   1  21
HETATM   21  C19 UNL     1      58.867  36.357  32.417  1.00  0.00    -0.018 A
HETATM   22  C20 UNL     1      58.006  36.959  33.355  1.00  0.00     0.013 A
HETATM   23  C21 UNL     1      58.111  38.231  33.802  1.00  0.00     0.002 A
HETATM   24  C22 UNL     1      59.104  39.031  33.341  1.00  0.00     0.012 A
HETATM   25  C23 UNL     1      59.986  38.530  32.425  1.00  0.00    -0.025 A
HETATM   26  C24 UNL     1      60.983  39.371  31.982  1.00  0.00     0.012 A
HETATM   27  C28 UNL     1      59.861  37.224  31.982  1.00  0.00    -0.015 A
HETATM   28  C25 UNL     1      61.889  38.902  31.066  1.00  0.00     0.001 A
HETATM   29  C26 UNL     1      61.793  37.603  30.602  1.00  0.00     0.001 A
HETATM   30  C27 UNL     1      60.773  36.798  31.078  1.00  0.00     0.013 A
ENDBRANCH   1  21
TORSDOF 5
ENDMDL