MODEL 1
REMARK VINA RESULT: -11.813249076      0.000      0.000
REMARK  5 active torsions:
REMARK  status: ('A' for Active; 'I' for Inactive)
REMARK    1  A    between atoms: C1_1  and  C24_28
REMARK    2  A    between atoms: C2_2  and  C3_3
REMARK    3  A    between atoms: C6_6  and  C7_7
REMARK    4  A    between atoms: C8_10  and  C9_11
REMARK    5  A    between atoms: C15_17  and  C16_18
ROOT
HETATM    1  C7  UNL     1      57.135  34.406  27.906  1.00  0.00     0.116 A
HETATM    2  N1  UNL     1      56.293  33.533  27.335  1.00  0.00    -0.339 N
ATOM      3  H1  UNL     1      55.585  33.000  27.842  1.00  0.00     0.167 HD
HETATM    4  C8  UNL     1      56.503  33.450  26.014  1.00  0.00     0.072 A
HETATM    5  C15 UNL     1      57.542  34.329  25.754  1.00  0.00     0.072 A
HETATM    6  N2  UNL     1      57.902  34.893  26.918  1.00  0.00    -0.339 N
ATOM      7  H2  UNL     1      58.644  35.584  27.034  1.00  0.00     0.167 HD
ENDROOT
BRANCH   1   8
HETATM    8  C6  UNL     1      57.219  34.769  29.310  1.00  0.00     0.008 A
HETATM    9  C5  UNL     1      56.110  34.692  30.107  1.00  0.00     0.016 A
HETATM   10  C4  UNL     1      56.230  35.047  31.432  1.00  0.00     0.012 A
HETATM   11  C3  UNL     1      57.426  35.468  31.950  1.00  0.00    -0.036 A
HETATM   12  C23 UNL     1      58.572  35.550  31.135  1.00  0.00     0.012 A
HETATM   13  C22 UNL     1      58.430  35.192  29.816  1.00  0.00     0.016 A
BRANCH  11  14
HETATM   14  C2  UNL     1      57.543  35.841  33.344  1.00  0.00     0.012 C
HETATM   15  C1  UNL     1      57.561  37.088  33.726  1.00  0.00     0.012 C
BRANCH  15  16
HETATM   16  C24 UNL     1      57.679  37.471  35.121  1.00  0.00    -0.036 A
HETATM   17  C25 UNL     1      58.056  38.775  35.426  1.00  0.00     0.011 A
HETATM   18  C26 UNL     1      58.170  39.146  36.750  1.00  0.00     0.001 A
HETATM   19  C27 UNL     1      57.913  38.235  37.736  1.00  0.00     0.000 A
HETATM   20  C28 UNL     1      57.540  36.948  37.463  1.00  0.00     0.001 A
HETATM   21  C29 UNL     1      57.424  36.571  36.118  1.00  0.00     0.011 A
ENDBRANCH  15  16
ENDBRANCH  11  14
ENDBRANCH   1   8
BRANCH   4  22
HETATM   22  C9  UNL     1      55.813  32.628  25.024  1.00  0.00    -0.007 A
HETATM   23  C10 UNL     1      56.347  31.479  24.471  1.00  0.00     0.014 A
HETATM   24  C11 UNL     1      55.664  30.734  23.541  1.00  0.00     0.001 A
HETATM   25  C12 UNL     1      54.409  31.100  23.116  1.00  0.00     0.000 A
HETATM   26  C13 UNL     1      53.854  32.241  23.653  1.00  0.00     0.001 A
HETATM   27  C14 UNL     1      54.557  32.981  24.590  1.00  0.00     0.014 A
ENDBRANCH   4  22
BRANCH   5  28
HETATM   28  C16 UNL     1      58.168  34.622  24.449  1.00  0.00    -0.007 A
HETATM   29  C17 UNL     1      58.741  35.853  24.230  1.00  0.00     0.014 A
HETATM   30  C18 UNL     1      59.337  36.173  23.031  1.00  0.00     0.001 A
HETATM   31  C19 UNL     1      59.372  35.253  22.008  1.00  0.00     0.000 A
HETATM   32  C20 UNL     1      58.794  34.028  22.247  1.00  0.00     0.001 A
HETATM   33  C21 UNL     1      58.198  33.698  23.437  1.00  0.00     0.014 A
ENDBRANCH   5  28
TORSDOF 5
ENDMDL