MODEL 2
REMARK VINA RESULT: -12.071198190      0.132      1.214
REMARK  5 active torsions:
REMARK  status: ('A' for Active; 'I' for Inactive)
REMARK    1  A    between atoms: C1_1  and  C24_28
REMARK    2  A    between atoms: C2_2  and  C3_3
REMARK    3  A    between atoms: C5_5  and  C6_6
REMARK    4  A    between atoms: C7_7  and  C8_8
REMARK    5  A    between atoms: C17_19  and  C18_20
ROOT
HETATM    1  C3  UNL     1      57.275  34.465  26.196  1.00  0.00     0.033 A
HETATM    2  C4  UNL     1      56.815  34.364  27.518  1.00  0.00     0.041 A
HETATM    3  C5  UNL     1      57.437  35.003  28.545  1.00  0.00    -0.032 A
HETATM    4  C16 UNL     1      58.568  35.772  28.217  1.00  0.00     0.042 A
HETATM    5  C17 UNL     1      59.035  35.885  26.936  1.00  0.00     0.043 A
HETATM    6  N2  UNL     1      58.353  35.212  25.961  1.00  0.00    -0.356 N
ATOM      7  H2  UNL     1      58.688  35.286  25.000  1.00  0.00     0.166 HD
ENDROOT
BRANCH   3   8
HETATM    8  C6  UNL     1      57.023  34.954  29.968  1.00  0.00     0.012 C
HETATM    9  C7  UNL     1      57.938  34.867  30.887  1.00  0.00     0.014 C
BRANCH   9  10
HETATM   10  C8  UNL     1      57.800  34.805  32.315  1.00  0.00    -0.008 A
HETATM   11  C9  UNL     1      57.641  33.604  33.036  1.00  0.00     0.100 A
HETATM   12  N1  UNL     1      57.542  33.880  34.329  1.00  0.00    -0.364 N
HETATM   13  C10 UNL     1      57.628  35.199  34.489  1.00  0.00     0.043 A
ATOM     14  H1  UNL     1      57.420  33.196  35.076  1.00  0.00     0.165 HD
HETATM   15  C11 UNL     1      57.577  35.938  35.647  1.00  0.00     0.030 A
HETATM   16  C15 UNL     1      57.791  35.816  33.251  1.00  0.00     0.002 A
HETATM   17  C12 UNL     1      57.690  37.298  35.559  1.00  0.00     0.002 A
HETATM   18  C13 UNL     1      57.850  37.948  34.362  1.00  0.00     0.001 A
HETATM   19  C14 UNL     1      57.901  37.192  33.193  1.00  0.00     0.014 A
ENDBRANCH   9  10
ENDBRANCH   3   8
BRANCH   1  20
HETATM   20  C2  UNL     1      56.563  33.752  25.123  1.00  0.00     0.030 C
HETATM   21  C1  UNL     1      56.693  34.101  23.868  1.00  0.00     0.013 C
BRANCH  21  22
HETATM   22  C24 UNL     1      56.003  33.416  22.795  1.00  0.00    -0.036 A
HETATM   23  C25 UNL     1      56.521  33.318  21.528  1.00  0.00     0.011 A
HETATM   24  C26 UNL     1      55.796  32.645  20.559  1.00  0.00     0.001 A
HETATM   25  C27 UNL     1      54.573  32.069  20.818  1.00  0.00     0.000 A
HETATM   26  C28 UNL     1      54.057  32.171  22.090  1.00  0.00     0.001 A
HETATM   27  C29 UNL     1      54.771  32.832  23.037  1.00  0.00     0.011 A
ENDBRANCH  21  22
ENDBRANCH   1  20
BRANCH   5  28
HETATM   28  C18 UNL     1      60.199  36.677  26.595  1.00  0.00    -0.009 A
HETATM   29  C19 UNL     1      60.282  37.365  25.418  1.00  0.00     0.013 A
HETATM   30  C20 UNL     1      61.423  38.115  25.128  1.00  0.00     0.001 A
HETATM   31  C21 UNL     1      62.468  38.170  26.018  1.00  0.00     0.000 A
HETATM   32  C22 UNL     1      62.387  37.469  27.219  1.00  0.00     0.001 A
HETATM   33  C23 UNL     1      61.270  36.732  27.507  1.00  0.00     0.013 A
ENDBRANCH   5  28
TORSDOF 5
ENDMDL