MODEL 2
REMARK VINA RESULT: -11.903582441      0.883      3.396
REMARK  4 active torsions:
REMARK  status: ('A' for Active; 'I' for Inactive)
REMARK    1  A    between atoms: C1_1  and  C24_28
REMARK    2  A    between atoms: C2_2  and  C3_3
REMARK    3  A    between atoms: C7_7  and  C8_8
REMARK    4  A    between atoms: C9_11  and  C10_12
ROOT
HETATM    1  C8  UNL     1      59.016  35.717  26.522  1.00  0.00     0.116 A
HETATM    2  N1  UNL     1      58.286  35.422  27.608  1.00  0.00    -0.339 N
ATOM      3  H1  UNL     1      58.460  35.801  28.539  1.00  0.00     0.167 HD
HETATM    4  C9  UNL     1      57.297  34.564  27.311  1.00  0.00     0.072 A
HETATM    5  C16 UNL     1      57.421  34.310  25.952  1.00  0.00     0.072 A
HETATM    6  C17 UNL     1      56.591  33.444  25.146  1.00  0.00    -0.007 A
HETATM    7  C18 UNL     1      55.874  33.960  24.106  1.00  0.00     0.014 A
HETATM    8  C19 UNL     1      55.060  33.148  23.308  1.00  0.00     0.001 A
HETATM    9  C20 UNL     1      55.021  31.811  23.628  1.00  0.00     0.000 A
HETATM   10  C21 UNL     1      55.724  31.245  24.667  1.00  0.00     0.001 A
HETATM   11  C22 UNL     1      56.519  32.110  25.426  1.00  0.00     0.014 A
HETATM   12  N2  UNL     1      58.479  35.030  25.504  1.00  0.00    -0.339 N
ATOM     13  H2  UNL     1      58.815  35.046  24.542  1.00  0.00     0.167 HD
ENDROOT
BRANCH   1  14
HETATM   14  C7  UNL     1      60.187  36.623  26.454  1.00  0.00     0.009 A
HETATM   15  C6  UNL     1      60.369  37.450  25.379  1.00  0.00     0.015 A
HETATM   16  C5  UNL     1      61.442  38.292  25.305  1.00  0.00     0.002 A
HETATM   17  C4  UNL     1      62.330  38.280  26.345  1.00  0.00     0.011 A
HETATM   18  C3  UNL     1      62.237  37.489  27.462  1.00  0.00    -0.035 A
HETATM   19  C23 UNL     1      61.095  36.644  27.465  1.00  0.00     0.026 A
BRANCH  18  20
HETATM   20  C2  UNL     1      63.177  37.391  28.540  1.00  0.00     0.012 C
HETATM   21  C1  UNL     1      63.112  37.517  29.792  1.00  0.00     0.012 C
BRANCH  21  22
HETATM   22  C24 UNL     1      62.115  37.830  30.750  1.00  0.00    -0.036 A
HETATM   23  C25 UNL     1      62.038  39.111  31.330  1.00  0.00     0.011 A
HETATM   24  C26 UNL     1      61.016  39.491  32.146  1.00  0.00     0.001 A
HETATM   25  C27 UNL     1      59.996  38.637  32.452  1.00  0.00     0.000 A
HETATM   26  C28 UNL     1      60.030  37.378  31.907  1.00  0.00     0.001 A
HETATM   27  C29 UNL     1      61.066  37.001  31.082  1.00  0.00     0.011 A
ENDBRANCH  21  22
ENDBRANCH  18  20
ENDBRANCH   1  14
BRANCH   4  28
HETATM   28  C10 UNL     1      56.293  34.002  28.207  1.00  0.00    -0.007 A
HETATM   29  C11 UNL     1      55.160  34.706  28.555  1.00  0.00     0.014 A
HETATM   30  C12 UNL     1      54.198  34.197  29.400  1.00  0.00     0.001 A
HETATM   31  C13 UNL     1      54.354  32.924  29.934  1.00  0.00     0.000 A
HETATM   32  C14 UNL     1      55.474  32.190  29.609  1.00  0.00     0.001 A
HETATM   33  C15 UNL     1      56.416  32.731  28.760  1.00  0.00     0.014 A
ENDBRANCH   4  28
TORSDOF 4
ENDMDL