MODEL 1
REMARK VINA RESULT: -12.037102523      0.000      0.000
REMARK  5 active torsions:
REMARK  status: ('A' for Active; 'I' for Inactive)
REMARK    1  A    between atoms: C1_1  and  C13_15
REMARK    2  A    between atoms: C2_2  and  C3_3
REMARK    3  A    between atoms: C6_8  and  C7_9
REMARK    4  A    between atoms: C15_17  and  C16_18
REMARK    5  A    between atoms: C16_18  and  C17_19
ROOT
HETATM    1  C13 UNL     1      57.096  36.177  33.980  1.00  0.00     0.033 A
HETATM    2  C14 UNL     1      57.909  37.056  33.327  1.00  0.00     0.037 A
HETATM    3  C15 UNL     1      58.370  38.237  33.929  1.00  0.00    -0.039 A
HETATM    4  C23 UNL     1      57.973  38.477  35.211  1.00  0.00    -0.003 A
HETATM    5  C24 UNL     1      58.376  39.581  35.923  1.00  0.00     0.014 A
HETATM    6  C25 UNL     1      58.004  39.843  37.239  1.00  0.00     0.001 A
HETATM    7  C26 UNL     1      57.180  38.926  37.847  1.00  0.00     0.002 A
HETATM    8  C27 UNL     1      56.740  37.799  37.196  1.00  0.00     0.030 A
HETATM    9  C28 UNL     1      57.137  37.583  35.896  1.00  0.00     0.043 A
HETATM   10  N2  UNL     1      56.742  36.474  35.234  1.00  0.00    -0.356 N
ATOM     11  H2  UNL     1      56.133  35.819  35.724  1.00  0.00     0.166 HD
ENDROOT
BRANCH   1  12
HETATM   12  C1  UNL     1      56.643  34.959  33.302  1.00  0.00     0.030 C
HETATM   13  C2  UNL     1      56.846  34.726  32.039  1.00  0.00     0.016 C
BRANCH  13  14
HETATM   14  C3  UNL     1      56.376  33.504  31.421  1.00  0.00    -0.008 A
HETATM   15  C4  UNL     1      55.573  32.508  31.983  1.00  0.00     0.100 A
HETATM   16  N1  UNL     1      55.340  31.531  31.119  1.00  0.00    -0.374 N
HETATM   17  C5  UNL     1      55.968  31.843  29.982  1.00  0.00     0.100 A
ATOM     18  H1  UNL     1      54.783  30.695  31.291  1.00  0.00     0.164 HD
HETATM   19  C6  UNL     1      56.623  33.059  30.126  1.00  0.00     0.001 A
BRANCH  19  20
HETATM   20  C7  UNL     1      57.416  33.709  29.092  1.00  0.00    -0.024 A
HETATM   21  C8  UNL     1      57.964  32.960  28.056  1.00  0.00     0.012 A
HETATM   22  C9  UNL     1      58.723  33.542  27.065  1.00  0.00     0.001 A
HETATM   23  C10 UNL     1      58.966  34.897  27.068  1.00  0.00     0.000 A
HETATM   24  C11 UNL     1      58.443  35.655  28.069  1.00  0.00     0.001 A
HETATM   25  C12 UNL     1      57.679  35.060  29.066  1.00  0.00     0.012 A
ENDBRANCH  19  20
ENDBRANCH  13  14
ENDBRANCH   1  12
BRANCH   3  26
HETATM   26  C16 UNL     1      59.176  39.203  33.164  1.00  0.00     0.078 C
BRANCH  26  27
HETATM   27  C17 UNL     1      60.313  38.633  32.432  1.00  0.00    -0.054 A
HETATM   28  C18 UNL     1      60.271  37.634  31.515  1.00  0.00     0.007 A
HETATM   29  C19 UNL     1      61.392  37.141  30.870  1.00  0.00     0.001 A
HETATM   30  C20 UNL     1      62.634  37.661  31.140  1.00  0.00     0.000 A
HETATM   31  C21 UNL     1      62.725  38.676  32.065  1.00  0.00     0.001 A
HETATM   32  C22 UNL     1      61.596  39.148  32.693  1.00  0.00     0.007 A
ENDBRANCH  26  27
ENDBRANCH   3  26
TORSDOF 5
ENDMDL