MODEL 5
REMARK VINA RESULT: -9.477291942      3.976      5.584
REMARK  5 active torsions:
REMARK  status: ('A' for Active; 'I' for Inactive)
REMARK    1  A    between atoms: C2_2  and  O1_3
REMARK    2  A    between atoms: O1_3  and  C3_4
REMARK    3  A    between atoms: C8_9  and  C9_10
REMARK    4  A    between atoms: C10_11  and  C11_12
REMARK    5  A    between atoms: C14_15  and  C15_16
ROOT
HETATM    1  C9  UNL     1      58.055  35.066  31.966  1.00  0.00     0.017 A
HETATM    2  C10 UNL     1      58.869  36.165  31.808  1.00  0.00     0.055 A
HETATM    3  N1  UNL     1      58.768  36.923  32.912  1.00  0.00    -0.354 N
ATOM      4  H1  UNL     1      59.265  37.801  33.067  1.00  0.00     0.166 HD
HETATM    5  C23 UNL     1      57.910  36.351  33.790  1.00  0.00     0.043 A
HETATM    6  C24 UNL     1      57.465  36.707  35.040  1.00  0.00     0.030 A
HETATM    7  C25 UNL     1      56.567  35.935  35.750  1.00  0.00     0.002 A
HETATM    8  C26 UNL     1      56.120  34.772  35.158  1.00  0.00     0.001 A
HETATM    9  C27 UNL     1      56.547  34.382  33.900  1.00  0.00     0.014 A
HETATM   10  C28 UNL     1      57.440  35.167  33.216  1.00  0.00     0.004 A
ENDROOT
BRANCH   2  11
HETATM   11  C11 UNL     1      59.678  36.413  30.626  1.00  0.00    -0.009 A
HETATM   12  C12 UNL     1      59.227  36.048  29.375  1.00  0.00     0.014 A
HETATM   13  C13 UNL     1      60.017  36.296  28.272  1.00  0.00     0.013 A
HETATM   14  C14 UNL     1      61.271  36.913  28.403  1.00  0.00    -0.026 A
HETATM   15  C21 UNL     1      61.715  37.275  29.654  1.00  0.00     0.013 A
HETATM   16  C22 UNL     1      60.935  37.029  30.736  1.00  0.00     0.014 A
BRANCH  14  17
HETATM   17  C15 UNL     1      62.102  37.174  27.240  1.00  0.00    -0.026 A
HETATM   18  C16 UNL     1      61.718  37.971  26.188  1.00  0.00     0.012 A
HETATM   19  C17 UNL     1      62.566  38.182  25.097  1.00  0.00     0.001 A
HETATM   20  C18 UNL     1      63.806  37.597  25.053  1.00  0.00     0.000 A
HETATM   21  C19 UNL     1      64.197  36.801  26.095  1.00  0.00     0.001 A
HETATM   22  C20 UNL     1      63.350  36.595  27.177  1.00  0.00     0.012 A
ENDBRANCH  14  17
ENDBRANCH   2  11
BRANCH   1  23
HETATM   23  C8  UNL     1      57.884  34.005  30.992  1.00  0.00     0.011 A
HETATM   24  C3  UNL     1      56.821  34.051  30.074  1.00  0.00     0.080 A
HETATM   25  C4  UNL     1      56.673  33.032  29.150  1.00  0.00     0.037 A
HETATM   26  C5  UNL     1      57.553  31.950  29.101  1.00  0.00     0.003 A
HETATM   27  C6  UNL     1      58.582  31.913  29.997  1.00  0.00     0.001 A
HETATM   28  C7  UNL     1      58.719  32.922  30.903  1.00  0.00     0.015 A
BRANCH  24  29
HETATM   29  O1  UNL     1      55.977  35.125  30.146  1.00  0.00    -0.351 OA
BRANCH  29  30
HETATM   30  C2  UNL     1      55.540  35.856  29.039  1.00  0.00     0.171 C
HETATM   31  C1  UNL     1      54.229  35.397  28.467  1.00  0.00     0.034 C
ENDBRANCH  29  30
ENDBRANCH  24  29
ENDBRANCH   1  23
TORSDOF 5
ENDMDL