MODEL 5
REMARK VINA RESULT: -10.658842777      1.946      7.910
REMARK  4 active torsions:
REMARK  status: ('A' for Active; 'I' for Inactive)
REMARK    1  A    between atoms: C3_3  and  C4_4
REMARK    2  A    between atoms: C10_12  and  C11_13
REMARK    3  A    between atoms: C17_19  and  C18_20
REMARK    4  A    between atoms: C22_24  and  C23_25
ROOT
HETATM    1  C1  UNL     1      56.721  34.848  34.148  1.00  0.00     0.052 C
HETATM    2  C2  UNL     1      57.720  35.801  33.568  1.00  0.00    -0.021 A
HETATM    3  C3  UNL     1      58.197  36.994  34.049  1.00  0.00     0.050 A
HETATM    4  N1  UNL     1      59.086  37.481  33.125  1.00  0.00    -0.354 N
ATOM      5  H1  UNL     1      59.598  38.359  33.219  1.00  0.00     0.166 HD
HETATM    6  C10 UNL     1      59.192  36.650  32.086  1.00  0.00     0.054 A
HETATM    7  C17 UNL     1      58.353  35.591  32.328  1.00  0.00     0.010 A
ENDROOT
BRANCH   7   8
HETATM    8  C18 UNL     1      58.133  34.421  31.466  1.00  0.00    -0.022 A
HETATM    9  C19 UNL     1      58.705  33.191  31.794  1.00  0.00     0.012 A
HETATM   10  C20 UNL     1      58.537  32.067  31.014  1.00  0.00     0.002 A
HETATM   11  C21 UNL     1      57.776  32.164  29.867  1.00  0.00     0.012 A
HETATM   12  C22 UNL     1      57.185  33.379  29.503  1.00  0.00    -0.025 A
HETATM   13  C28 UNL     1      57.385  34.455  30.311  1.00  0.00     0.024 A
BRANCH  12  14
HETATM   14  C23 UNL     1      56.408  33.377  28.288  1.00  0.00    -0.023 A
HETATM   15  C24 UNL     1      56.707  32.503  27.271  1.00  0.00     0.029 A
HETATM   16  C25 UNL     1      55.964  32.488  26.087  1.00  0.00     0.088 A
HETATM   17  N2  UNL     1      54.938  33.352  25.952  1.00  0.00    -0.375 N
HETATM   18  C26 UNL     1      54.624  34.214  26.926  1.00  0.00     0.088 A
ATOM     19  H2  UNL     1      54.391  33.348  25.091  1.00  0.00     0.164 HD
HETATM   20  C27 UNL     1      55.353  34.240  28.108  1.00  0.00     0.029 A
ENDBRANCH  12  14
ENDBRANCH   7   8
BRANCH   6  21
HETATM   21  C11 UNL     1      60.025  36.782  30.884  1.00  0.00    -0.009 A
HETATM   22  C12 UNL     1      59.625  36.347  29.645  1.00  0.00     0.014 A
HETATM   23  C13 UNL     1      60.461  36.502  28.552  1.00  0.00     0.001 A
HETATM   24  C14 UNL     1      61.695  37.104  28.760  1.00  0.00     0.000 A
HETATM   25  C15 UNL     1      62.098  37.541  30.001  1.00  0.00     0.001 A
HETATM   26  C16 UNL     1      61.251  37.376  31.064  1.00  0.00     0.014 A
ENDBRANCH   6  21
BRANCH   3  27
HETATM   27  C4  UNL     1      57.850  37.689  35.266  1.00  0.00    -0.009 A
HETATM   28  C5  UNL     1      57.042  37.242  36.264  1.00  0.00     0.014 A
HETATM   29  C6  UNL     1      56.738  38.018  37.391  1.00  0.00     0.001 A
HETATM   30  C7  UNL     1      57.259  39.284  37.525  1.00  0.00     0.000 A
HETATM   31  C8  UNL     1      58.077  39.761  36.534  1.00  0.00     0.001 A
HETATM   32  C9  UNL     1      58.367  38.984  35.429  1.00  0.00     0.014 A
ENDBRANCH   3  27
TORSDOF 4
ENDMDL