MODEL 5
REMARK VINA RESULT: -10.178549131      4.404      9.459
REMARK  6 active torsions:
REMARK  status: ('A' for Active; 'I' for Inactive)
REMARK    1  A    between atoms: C7_7  and  C8_8
REMARK    2  A    between atoms: C8_8  and  C9_10
REMARK    3  A    between atoms: C10_11  and  C11_12
REMARK    4  A    between atoms: C17_18  and  O2_19
REMARK    5  A    between atoms: C20_23  and  C21_24
REMARK    6  A    between atoms: C22_25  and  C23_26
ROOT
HETATM    1  C11 UNL     1      57.537  33.220  24.999  1.00  0.00    -0.025 A
HETATM    2  C12 UNL     1      57.783  33.506  23.676  1.00  0.00     0.024 A
HETATM    3  C13 UNL     1      56.853  33.414  22.681  1.00  0.00    -0.022 A
HETATM    4  C14 UNL     1      57.190  33.719  21.376  1.00  0.00     0.012 A
HETATM    5  C15 UNL     1      56.213  33.609  20.417  1.00  0.00     0.004 A
HETATM    6  C16 UNL     1      54.932  33.206  20.738  1.00  0.00     0.037 A
HETATM    7  C17 UNL     1      54.610  32.901  22.059  1.00  0.00     0.076 A
HETATM    8  C18 UNL     1      55.586  33.010  23.031  1.00  0.00     0.008 A
HETATM    9  C19 UNL     1      55.275  32.710  24.347  1.00  0.00     0.027 A
HETATM   10  C20 UNL     1      56.212  32.805  25.320  1.00  0.00    -0.025 A
ENDROOT
BRANCH   1  11
HETATM   11  C10 UNL     1      58.523  33.218  26.056  1.00  0.00     0.016 C
HETATM   12  C9  UNL     1      59.045  34.117  26.766  1.00  0.00     0.056 C
BRANCH  12  13
HETATM   13  C8  UNL     1      58.971  35.519  26.903  1.00  0.00     0.182 C
HETATM   14  O1  UNL     1      58.315  36.072  27.856  1.00  0.00    -0.288 OA
BRANCH  13  15
HETATM   15  C7  UNL     1      59.583  36.528  26.037  1.00  0.00     0.020 A
HETATM   16  C2  UNL     1      60.761  37.121  26.296  1.00  0.00    -0.048 A
HETATM   17  C1  UNL     1      61.515  36.908  27.557  1.00  0.00     0.049 C
HETATM   18  C3  UNL     1      61.324  38.046  25.375  1.00  0.00     0.007 A
HETATM   19  C4  UNL     1      60.697  38.366  24.204  1.00  0.00     0.001 A
HETATM   20  C5  UNL     1      59.496  37.764  23.939  1.00  0.00     0.001 A
HETATM   21  C6  UNL     1      58.945  36.868  24.822  1.00  0.00     0.016 A
ENDBRANCH  13  15
ENDBRANCH  12  13
ENDBRANCH   1  11
BRANCH  10  22
HETATM   22  C21 UNL     1      55.949  32.448  26.719  1.00  0.00     0.013 C
HETATM   23  C22 UNL     1      55.585  33.398  27.585  1.00  0.00     0.012 C
BRANCH  23  24
HETATM   24  C23 UNL     1      55.305  33.129  28.990  1.00  0.00    -0.036 A
HETATM   25  C24 UNL     1      55.890  32.037  29.626  1.00  0.00     0.011 A
HETATM   26  C25 UNL     1      55.650  31.750  30.951  1.00  0.00     0.001 A
HETATM   27  C26 UNL     1      54.818  32.526  31.724  1.00  0.00     0.000 A
HETATM   28  C27 UNL     1      54.234  33.606  31.109  1.00  0.00     0.001 A
HETATM   29  C28 UNL     1      54.475  33.906  29.756  1.00  0.00     0.011 A
ENDBRANCH  23  24
ENDBRANCH  10  22
BRANCH   7  30
HETATM   30  O2  UNL     1      53.338  32.494  22.423  1.00  0.00    -0.360 OA
ATOM     31  H2  UNL     1      53.181  31.994  23.216  1.00  0.00     0.217 HD
ENDBRANCH   7  30
TORSDOF 6
ENDMDL