MODEL 5
REMARK VINA RESULT: -11.775890350      1.213      7.796
REMARK  4 active torsions:
REMARK  status: ('A' for Active; 'I' for Inactive)
REMARK    1  A    between atoms: C7_7  and  C8_8
REMARK    2  A    between atoms: C10_10  and  C11_11
REMARK    3  A    between atoms: C12_12  and  C13_13
REMARK    4  A    between atoms: C20_20  and  C21_21
ROOT
HETATM    1  C8  UNL     1      59.056  35.887  26.740  1.00  0.00     0.044 A
HETATM    2  C9  UNL     1      58.391  35.188  25.736  1.00  0.00     0.042 A
HETATM    3  C10 UNL     1      57.274  34.408  25.984  1.00  0.00    -0.032 A
HETATM    4  C19 UNL     1      56.836  34.351  27.312  1.00  0.00     0.043 A
HETATM    5  C20 UNL     1      57.484  35.036  28.312  1.00  0.00     0.060 A
HETATM    6  N2  UNL     1      58.547  35.756  27.964  1.00  0.00    -0.354 N
ATOM      7  H2  UNL     1      59.021  36.262  28.713  1.00  0.00     0.166 HD
ENDROOT
BRANCH   5   8
HETATM    8  C21 UNL     1      56.983  34.943  29.693  1.00  0.00     0.060 A
HETATM    9  C22 UNL     1      55.805  34.363  30.086  1.00  0.00     0.045 A
HETATM   10  C23 UNL     1      55.745  34.506  31.474  1.00  0.00    -0.007 A
HETATM   11  C24 UNL     1      54.831  34.140  32.441  1.00  0.00     0.014 A
HETATM   12  C28 UNL     1      56.883  35.163  31.868  1.00  0.00     0.043 A
HETATM   13  C25 UNL     1      55.031  34.416  33.784  1.00  0.00     0.001 A
HETATM   14  C26 UNL     1      56.171  35.075  34.190  1.00  0.00     0.002 A
HETATM   15  C27 UNL     1      57.081  35.439  33.219  1.00  0.00     0.030 A
HETATM   16  N1  UNL     1      57.613  35.415  30.770  1.00  0.00    -0.354 N
ATOM     17  H1  UNL     1      58.513  35.894  30.760  1.00  0.00     0.166 HD
ENDBRANCH   5   8
BRANCH   3  18
HETATM   18  C11 UNL     1      56.562  33.672  24.968  1.00  0.00     0.012 C
HETATM   19  C12 UNL     1      56.546  34.058  23.720  1.00  0.00     0.012 C
BRANCH  19  20
HETATM   20  C13 UNL     1      55.834  33.334  22.666  1.00  0.00    -0.036 A
HETATM   21  C14 UNL     1      54.623  32.747  22.975  1.00  0.00     0.011 A
HETATM   22  C15 UNL     1      53.908  32.049  22.012  1.00  0.00     0.001 A
HETATM   23  C16 UNL     1      54.382  31.922  20.724  1.00  0.00     0.000 A
HETATM   24  C17 UNL     1      55.591  32.503  20.403  1.00  0.00     0.001 A
HETATM   25  C18 UNL     1      56.297  33.201  21.381  1.00  0.00     0.011 A
ENDBRANCH  19  20
ENDBRANCH   3  18
BRANCH   1  26
HETATM   26  C7  UNL     1      60.238  36.714  26.482  1.00  0.00    -0.004 A
HETATM   27  C2  UNL     1      60.301  37.616  25.444  1.00  0.00    -0.050 A
HETATM   28  C1  UNL     1      59.166  37.810  24.513  1.00  0.00     0.049 C
HETATM   29  C3  UNL     1      61.454  38.384  25.239  1.00  0.00     0.007 A
HETATM   30  C4  UNL     1      62.555  38.276  26.046  1.00  0.00     0.001 A
HETATM   31  C5  UNL     1      62.510  37.388  27.078  1.00  0.00     0.001 A
HETATM   32  C6  UNL     1      61.363  36.616  27.291  1.00  0.00     0.014 A
ENDBRANCH   1  26
TORSDOF 4
ENDMDL