MODEL 5
REMARK VINA RESULT: -11.339580485      3.978     10.518
REMARK  5 active torsions:
REMARK  status: ('A' for Active; 'I' for Inactive)
REMARK    1  A    between atoms: C4_4  and  C5_5
REMARK    2  A    between atoms: C9_9  and  N1_10
REMARK    3  A    between atoms: N1_10  and  C10_12
REMARK    4  A    between atoms: C10_12  and  C11_13
REMARK    5  A    between atoms: C10_12  and  C17_19
ROOT
HETATM    1  C10 UNL     1      57.811  35.540  33.363  1.00  0.00     0.054 C
ENDROOT
BRANCH   1   2
HETATM    2  N1  UNL     1      59.144  35.404  32.872  1.00  0.00    -0.355 N
ATOM      3  H1  UNL     1      59.781  34.830  33.426  1.00  0.00     0.166 HD
BRANCH   2   4
HETATM    4  C9  UNL     1      59.674  35.987  31.689  1.00  0.00     0.033 A
HETATM    5  C8  UNL     1      60.671  36.925  31.754  1.00  0.00     0.029 A
HETATM    6  C7  UNL     1      61.141  37.464  30.570  1.00  0.00     0.003 A
HETATM    7  C6  UNL     1      60.638  37.083  29.332  1.00  0.00     0.012 A
HETATM    8  C5  UNL     1      59.635  36.140  29.253  1.00  0.00    -0.024 A
HETATM    9  C27 UNL     1      59.172  35.610  30.434  1.00  0.00     0.041 A
BRANCH   8  10
HETATM   10  C4  UNL     1      59.073  35.709  27.962  1.00  0.00    -0.026 A
HETATM   11  C3  UNL     1      58.179  34.669  27.897  1.00  0.00     0.012 A
HETATM   12  C2  UNL     1      57.650  34.261  26.692  1.00  0.00     0.001 A
HETATM   13  C1  UNL     1      58.001  34.886  25.499  1.00  0.00     0.000 A
HETATM   14  C29 UNL     1      58.895  35.928  25.545  1.00  0.00     0.001 A
HETATM   15  C28 UNL     1      59.413  36.320  26.766  1.00  0.00     0.012 A
ENDBRANCH   8  10
ENDBRANCH   2   4
ENDBRANCH   1   2
BRANCH   1  16
HETATM   16  C11 UNL     1      56.811  34.576  32.860  1.00  0.00    -0.009 A
HETATM   17  C12 UNL     1      55.478  34.724  32.745  1.00  0.00     0.014 A
HETATM   18  C13 UNL     1      54.639  33.771  32.249  1.00  0.00     0.001 A
HETATM   19  C14 UNL     1      55.156  32.569  31.829  1.00  0.00     0.000 A
HETATM   20  C15 UNL     1      56.511  32.345  31.916  1.00  0.00     0.001 A
HETATM   21  C16 UNL     1      57.320  33.341  32.426  1.00  0.00     0.014 A
ENDBRANCH   1  16
BRANCH   1  22
HETATM   22  C17 UNL     1      57.633  36.030  34.721  1.00  0.00     0.003 A
HETATM   23  C18 UNL     1      57.284  35.182  35.789  1.00  0.00     0.014 A
HETATM   24  C19 UNL     1      57.130  35.622  37.080  1.00  0.00     0.002 A
HETATM   25  C20 UNL     1      57.315  36.935  37.384  1.00  0.00     0.012 A
HETATM   26  C21 UNL     1      57.655  37.794  36.378  1.00  0.00    -0.025 A
HETATM   27  C22 UNL     1      57.834  39.132  36.710  1.00  0.00     0.012 A
HETATM   28  C26 UNL     1      57.811  37.350  35.066  1.00  0.00    -0.013 A
HETATM   29  C23 UNL     1      58.169  40.055  35.761  1.00  0.00     0.001 A
HETATM   30  C24 UNL     1      58.322  39.633  34.484  1.00  0.00     0.001 A
HETATM   31  C25 UNL     1      58.146  38.297  34.136  1.00  0.00     0.013 A
ENDBRANCH   1  22
TORSDOF 5
ENDMDL