MODEL 1
REMARK VINA RESULT: -8.841708861      0.000      0.000
REMARK  6 active torsions:
REMARK  status: ('A' for Active; 'I' for Inactive)
REMARK       I    between atoms: C1_2  and  N1_3
REMARK    1  A    between atoms: C1_2  and  C25_32
REMARK    2  A    between atoms: N1_3  and  C2_5
REMARK    3  A    between atoms: C5_8  and  O2_9
REMARK    4  A    between atoms: C6_11  and  C7_12
REMARK    5  A    between atoms: C8_13  and  C9_14
REMARK    6  A    between atoms: C16_22  and  C17_23
ROOT
HETATM    1  C7  UNL     1      23.324   4.816  21.300  1.00  0.00    -0.064 C
HETATM    2  C8  UNL     1      24.034   3.989  20.785  1.00  0.00    -0.094 C
ENDROOT
BRANCH   1   3
HETATM    3  C6  UNL     1      22.464   5.828  21.900  1.00  0.00     0.051 C
HETATM    4  C5  UNL     1      22.150   6.894  21.094  1.00  0.00     0.084 C
HETATM    5  C4  UNL     1      21.582   8.094  21.440  1.00  0.00     0.040 C
HETATM    6  C3  UNL     1      21.033   8.451  22.680  1.00  0.00     0.032 C
HETATM    7  C2  UNL     1      21.242   7.871  23.910  1.00  0.00     0.035 C
HETATM    8  C24 UNL     1      21.621   6.545  24.098  1.00  0.00     0.031 C
HETATM    9  C23 UNL     1      22.059   5.620  23.189  1.00  0.00     0.026 C
BRANCH   4  10
HETATM   10  O2  UNL     1      22.450   6.721  19.761  1.00  0.00    -0.359 OA
ATOM     11  H2  UNL     1      22.427   5.829  19.435  1.00  0.00     0.217 HD
ENDBRANCH   4  10
BRANCH   7  12
HETATM   12  N1  UNL     1      21.080   8.595  24.950  1.00  0.00    -0.320 N
HETATM   13  C1  UNL     1      20.045   8.302  25.865  1.00  0.00     0.330 C
HETATM   14  O1  UNL     1      18.818   8.381  25.557  1.00  0.00    -0.263 OA
ATOM     15  H1  UNL     1      21.699   9.386  25.120  1.00  0.00     0.169 HD
BRANCH  13  16
HETATM   16  C25 UNL     1      20.382   7.886  27.241  1.00  0.00     0.472 C
HETATM   17  F1  UNL     1      21.420   6.957  27.274  1.00  0.00    -0.162 F
HETATM   18  F2  UNL     1      19.273   7.381  27.884  1.00  0.00    -0.162 F
HETATM   19  F3  UNL     1      20.829   8.994  27.964  1.00  0.00    -0.162 F
ENDBRANCH  13  16
ENDBRANCH   7  12
ENDBRANCH   1   3
BRANCH   2  20
HETATM   20  C9  UNL     1      24.884   2.968  20.142  1.00  0.00     0.089 C
HETATM   21  C10 UNL     1      26.094   3.698  19.610  1.00  0.00     0.113 C
HETATM   22  N2  UNL     1      26.138   3.179  18.212  1.00  0.00    -0.284 NA
HETATM   23  C11 UNL     1      24.738   3.294  17.855  1.00  0.00     0.106 C
HETATM   24  C16 UNL     1      26.686   1.878  18.309  1.00  0.00    -0.002 C
HETATM   25  C12 UNL     1      24.137   2.499  18.921  1.00  0.00    -0.009 A
HETATM   26  C13 UNL     1      23.221   1.455  19.042  1.00  0.00     0.018 A
HETATM   27  C14 UNL     1      24.423   1.050  18.379  1.00  0.00     0.002 A
HETATM   28  C15 UNL     1      25.770   0.795  18.855  1.00  0.00     0.057 C
BRANCH  24  29
HETATM   29  C17 UNL     1      27.482   1.401  17.175  1.00  0.00    -0.017 A
HETATM   30  C18 UNL     1      27.725   0.053  17.035  1.00  0.00     0.013 A
HETATM   31  C19 UNL     1      28.467  -0.494  15.996  1.00  0.00     0.003 A
HETATM   32  C20 UNL     1      28.994   0.355  15.045  1.00  0.00     0.024 A
HETATM   33  C21 UNL     1      28.769   1.709  15.159  1.00  0.00     0.034 A
HETATM   34 CL1  UNL     1      29.451   2.761  13.939  1.00  0.00    -0.084 Cl
HETATM   35  C22 UNL     1      28.015   2.226  16.222  1.00  0.00     0.036 A
ENDBRANCH  24  29
ENDBRANCH   2  20
TORSDOF 6
ENDMDL