MODEL 2
REMARK VINA RESULT: -8.058643260      1.923      2.570
REMARK  5 active torsions:
REMARK  status: ('A' for Active; 'I' for Inactive)
REMARK    1  A    between atoms: N1_7  and  C6_8
REMARK    2  A    between atoms: C6_8  and  O1_9
REMARK    3  A    between atoms: C6_8  and  N2_11
REMARK       I    between atoms: N3_17  and  C12_18
REMARK       I    between atoms: C12_18  and  N4_20
REMARK    4  A    between atoms: N4_20  and  C13_22
REMARK    5  A    between atoms: C16_25  and  C17_26
ROOT
HETATM    1  N2  UNL     1      26.308   1.559  18.205  1.00  0.00    -0.347 N
HETATM    2  C7  UNL     1      24.902   1.391  17.968  1.00  0.00     0.127 C
HETATM    3  C8  UNL     1      24.176   2.691  17.904  1.00  0.00     0.029 C
HETATM    4  C9  UNL     1      24.520   3.565  19.116  1.00  0.00    -0.035 C
HETATM    5  C10 UNL     1      24.060   2.966  20.397  1.00  0.00     0.029 C
HETATM    6  C11 UNL     1      22.591   3.392  20.584  1.00  0.00     0.128 C
HETATM    7  N3  UNL     1      22.702   4.772  21.017  1.00  0.00    -0.334 N
HETATM    8  C12 UNL     1      22.034   5.191  22.200  1.00  0.00     0.322 C
HETATM    9  O2  UNL     1      21.378   4.355  22.824  1.00  0.00    -0.247 OA
HETATM   10  N4  UNL     1      22.163   6.530  22.586  1.00  0.00    -0.309 N
ATOM     11  H4  UNL     1      22.730   7.139  21.996  1.00  0.00     0.170 HD
HETATM   12  C20 UNL     1      23.516   5.631  20.195  1.00  0.00     0.128 C
HETATM   13  C21 UNL     1      23.889   4.937  18.915  1.00  0.00     0.029 C
HETATM   14  C22 UNL     1      26.024   3.745  19.118  1.00  0.00     0.029 C
HETATM   15  C23 UNL     1      26.637   2.380  19.438  1.00  0.00     0.127 C
ENDROOT
BRANCH   1  16
HETATM   16  C6  UNL     1      27.397   1.167  17.474  1.00  0.00     0.217 C
BRANCH  16  17
HETATM   17  N1  UNL     1      27.692  -0.126  17.002  1.00  0.00    -0.340 N
HETATM   18  C2  UNL     1      28.626  -0.411  15.892  1.00  0.00     0.086 C
HETATM   19  C1  UNL     1      28.376   0.430  14.690  1.00  0.00     0.032 C
HETATM   20  C3  UNL     1      28.421  -1.850  15.592  1.00  0.00     0.064 C
HETATM   21  C4  UNL     1      27.100  -2.239  16.193  1.00  0.00     0.190 C
HETATM   22  F1  UNL     1      26.051  -1.758  15.402  1.00  0.00    -0.248 F
HETATM   23  C5  UNL     1      27.093  -1.356  17.440  1.00  0.00     0.164 C
ENDBRANCH  16  17
BRANCH  16  24
HETATM   24  O1  UNL     1      28.283   2.077  17.164  1.00  0.00    -0.332 OA
ATOM     25  H1  UNL     1      27.963   2.971  17.199  1.00  0.00     0.220 HD
ENDBRANCH  16  24
ENDBRANCH   1  16
BRANCH  10  26
HETATM   26  C13 UNL     1      21.575   7.094  23.716  1.00  0.00     0.036 A
HETATM   27  C14 UNL     1      21.288   6.482  24.905  1.00  0.00     0.030 A
HETATM   28  C15 UNL     1      20.707   7.186  25.968  1.00  0.00     0.018 A
HETATM   29  C16 UNL     1      20.397   8.517  25.872  1.00  0.00     0.048 A
HETATM   30  C18 UNL     1      20.682   9.138  24.680  1.00  0.00     0.018 A
HETATM   31  C19 UNL     1      21.251   8.460  23.633  1.00  0.00     0.030 A
BRANCH  29  32
HETATM   32  C17 UNL     1      19.778   9.278  27.000  1.00  0.00     0.417 C
HETATM   33  F2  UNL     1      18.588   9.856  26.578  1.00  0.00    -0.166 F
HETATM   34  F3  UNL     1      20.687  10.270  27.353  1.00  0.00    -0.166 F
HETATM   35  F4  UNL     1      19.516   8.461  28.066  1.00  0.00    -0.166 F
ENDBRANCH  29  32
ENDBRANCH  10  26
TORSDOF 5
ENDMDL