MODEL 3
REMARK VINA RESULT: -8.308023254      3.998      6.869
REMARK  5 active torsions:
REMARK  status: ('A' for Active; 'I' for Inactive)
REMARK    1  A    between atoms: C6_7  and  N1_8
REMARK       I    between atoms: N1_8  and  C7_10
REMARK       I    between atoms: C7_10  and  N2_12
REMARK    2  A    between atoms: N3_15  and  C10_16
REMARK    3  A    between atoms: C10_16  and  O2_17
REMARK    4  A    between atoms: C10_16  and  N4_19
REMARK    5  A    between atoms: C13_22  and  C14_23
ROOT
HETATM    1  N1  UNL     1      26.455  -0.311  17.226  1.00  0.00    -0.338 N
ATOM      2  H1  UNL     1      26.646   0.689  17.183  1.00  0.00     0.164 HD
HETATM    3  C7  UNL     1      25.503  -0.795  18.162  1.00  0.00     0.319 C
HETATM    4  O1  UNL     1      25.289  -2.039  18.191  1.00  0.00    -0.247 OA
HETATM    5  N2  UNL     1      24.833   0.089  19.017  1.00  0.00    -0.326 N
HETATM    6  C8  UNL     1      23.866  -0.445  19.957  1.00  0.00     0.148 C
HETATM    7  C9  UNL     1      22.824   0.619  20.290  1.00  0.00     0.147 C
HETATM    8  N3  UNL     1      23.428   1.872  20.729  1.00  0.00    -0.339 N
HETATM    9  C17 UNL     1      24.817   2.095  20.366  1.00  0.00     0.110 C
HETATM   10  C18 UNL     1      25.347   3.465  20.329  1.00  0.00     0.027 C
HETATM   11  C19 UNL     1      24.863   4.316  19.191  1.00  0.00     0.002 C
HETATM   12  C20 UNL     1      25.022   3.617  17.850  1.00  0.00     0.002 C
HETATM   13  C21 UNL     1      24.266   2.283  18.005  1.00  0.00     0.027 C
HETATM   14  C22 UNL     1      25.068   1.485  18.994  1.00  0.00     0.112 C
ENDROOT
BRANCH   8  15
HETATM   15  C10 UNL     1      22.681   2.776  21.458  1.00  0.00     0.217 C
BRANCH  15  16
HETATM   16  O2  UNL     1      21.784   2.240  22.243  1.00  0.00    -0.332 OA
ATOM     17  H2  UNL     1      21.894   1.308  22.395  1.00  0.00     0.220 HD
ENDBRANCH  15  16
BRANCH  15  18
HETATM   18  N4  UNL     1      22.690   4.153  21.527  1.00  0.00    -0.344 N
HETATM   19  C11 UNL     1      23.333   4.798  22.757  1.00  0.00     0.154 C
HETATM   20  C12 UNL     1      22.481   5.936  23.191  1.00  0.00     0.005 C
HETATM   21  C13 UNL     1      22.132   6.824  22.234  1.00  0.00     0.025 C
HETATM   22  C15 UNL     1      22.668   6.511  20.880  1.00  0.00     0.063 C
HETATM   23  C16 UNL     1      22.171   5.069  20.562  1.00  0.00     0.131 C
BRANCH  21  24
HETATM   24  C14 UNL     1      21.288   8.007  22.510  1.00  0.00     0.413 C
HETATM   25  F2  UNL     1      21.814   8.801  23.510  1.00  0.00    -0.166 F
HETATM   26  F3  UNL     1      20.021   7.645  22.913  1.00  0.00    -0.166 F
HETATM   27  F4  UNL     1      21.144   8.714  21.321  1.00  0.00    -0.166 F
ENDBRANCH  21  24
ENDBRANCH  15  18
ENDBRANCH   8  15
BRANCH   1  28
HETATM   28  C6  UNL     1      27.170  -1.215  16.322  1.00  0.00     0.089 C
HETATM   29  C5  UNL     1      28.533  -0.603  16.076  1.00  0.00     0.025 C
HETATM   30  C4  UNL     1      28.434   0.378  14.911  1.00  0.00     0.005 C
HETATM   31  C3  UNL     1      28.126  -0.345  13.628  1.00  0.00     0.043 C
HETATM   32  C2  UNL     1      27.209  -1.521  13.838  1.00  0.00     0.102 C
HETATM   33  C1  UNL     1      27.953  -2.827  13.973  1.00  0.00     0.051 C
HETATM   34  F1  UNL     1      26.372  -1.628  12.745  1.00  0.00    -0.243 F
HETATM   35  C23 UNL     1      26.340  -1.241  15.037  1.00  0.00     0.068 C
ENDBRANCH   1  28
TORSDOF 5
ENDMDL