MODEL 3
REMARK VINA RESULT: -6.317768289      3.786      5.370
REMARK  2 active torsions:
REMARK  status: ('A' for Active; 'I' for Inactive)
REMARK       I    between atoms: N1_6  and  C5_7
REMARK    1  A    between atoms: C5_7  and  C6_9
REMARK    2  A    between atoms: C16_22  and  O2_23
ROOT
HETATM    1  C6  UNL     1      23.326   1.135  21.552  1.00  0.00     0.069 C
HETATM    2  C7  UNL     1      22.483  -0.100  21.938  1.00  0.00     0.034 C
HETATM    3  C8  UNL     1      22.178  -0.063  23.404  1.00  0.00    -0.005 C
HETATM    4  C9  UNL     1      21.382  -1.303  23.743  1.00  0.00     0.018 C
HETATM    5  C10 UNL     1      23.429  -0.030  24.268  1.00  0.00     0.019 C
HETATM    6  C11 UNL     1      24.261   1.160  23.830  1.00  0.00     0.018 C
HETATM    7  C12 UNL     1      23.516   2.419  24.119  1.00  0.00     0.031 C
HETATM    8  C13 UNL     1      22.194   2.369  23.432  1.00  0.00     0.056 C
HETATM    9 BR1  UNL     1      21.222   4.014  23.757  1.00  0.00    -0.082 Br
HETATM   10  C14 UNL     1      22.455   2.292  21.933  1.00  0.00     0.046 C
HETATM   11  C15 UNL     1      21.369   1.167  23.794  1.00  0.00     0.138 C
HETATM   12 CL2  UNL     1      20.977   1.110  25.508  1.00  0.00    -0.099 Cl
HETATM   13 CL3  UNL     1      19.895   1.169  22.824  1.00  0.00    -0.099 Cl
HETATM   14  C16 UNL     1      24.573   0.963  22.371  1.00  0.00     0.140 C
ENDROOT
BRANCH   1  15
HETATM   15  C5  UNL     1      23.552   1.174  20.107  1.00  0.00     0.231 C
HETATM   16  N1  UNL     1      24.074   2.225  19.357  1.00  0.00    -0.351 N
HETATM   17  C4  UNL     1      24.517   3.515  19.779  1.00  0.00     0.127 C
HETATM   18  C17 UNL     1      24.223   2.050  17.894  1.00  0.00     0.127 C
HETATM   19  C3  UNL     1      25.851   3.755  19.053  1.00  0.00     0.045 C
HETATM   20  C2  UNL     1      25.503   4.194  17.661  1.00  0.00     0.036 C
HETATM   21  C1  UNL     1      25.140   5.673  17.729  1.00  0.00     0.033 C
HETATM   22 CL1  UNL     1      26.853   3.995  16.544  1.00  0.00    -0.119 Cl
HETATM   23  C18 UNL     1      24.293   3.405  17.218  1.00  0.00     0.045 C
HETATM   24  O1  UNL     1      23.222   0.106  19.477  1.00  0.00    -0.272 OA
ENDBRANCH   1  15
BRANCH  14  25
HETATM   25  O2  UNL     1      24.922  -0.410  22.248  1.00  0.00    -0.394 OA
ATOM     26  H2  UNL     1      24.402  -0.863  22.901  1.00  0.00     0.210 HD
ENDBRANCH  14  25
TORSDOF 2
ENDMDL