MODEL 2
REMARK VINA RESULT: -8.486319747      3.123      4.735
REMARK  4 active torsions:
REMARK  status: ('A' for Active; 'I' for Inactive)
REMARK    1  A    between atoms: N1_6  and  C6_7
REMARK    2  A    between atoms: C6_7  and  O1_8
REMARK    3  A    between atoms: C6_7  and  C7_10
REMARK       I    between atoms: N2_17  and  C12_18
REMARK       I    between atoms: C12_18  and  N3_20
REMARK    4  A    between atoms: N3_20  and  C13_22
ROOT
HETATM    1  C7  UNL     1      23.871   3.990  21.564  1.00  0.00     0.163 C
HETATM    2  C8  UNL     1      24.790   4.237  20.381  1.00  0.00     0.040 C
HETATM    3  C9  UNL     1      25.258   2.982  19.714  1.00  0.00     0.083 C
HETATM    4  C10 UNL     1      24.244   1.911  19.545  1.00  0.00     0.259 C
HETATM    5  F1  UNL     1      24.116   1.519  18.204  1.00  0.00    -0.205 F
HETATM    6  F2  UNL     1      24.638   0.793  20.252  1.00  0.00    -0.205 F
HETATM    7  C11 UNL     1      22.891   2.406  19.956  1.00  0.00     0.207 C
HETATM    8  N2  UNL     1      23.045   2.861  21.354  1.00  0.00    -0.316 N
HETATM    9  C12 UNL     1      22.397   2.131  22.349  1.00  0.00     0.319 C
HETATM   10  O2  UNL     1      21.679   1.147  22.026  1.00  0.00    -0.247 OA
HETATM   11  N3  UNL     1      22.473   2.403  23.740  1.00  0.00    -0.338 N
ATOM     12  H3  UNL     1      23.046   3.194  24.035  1.00  0.00     0.164 HD
ENDROOT
BRANCH   1  13
HETATM   13  C6  UNL     1      23.301   5.268  21.935  1.00  0.00     0.137 C
BRANCH  13  14
HETATM   14  N1  UNL     1      22.674   6.282  21.229  1.00  0.00    -0.363 N
HETATM   15  C5  UNL     1      22.661   7.620  21.879  1.00  0.00     0.124 C
HETATM   16  C4  UNL     1      21.335   8.288  21.525  1.00  0.00     0.020 C
HETATM   17  C3  UNL     1      21.364   8.650  20.047  1.00  0.00     0.007 C
HETATM   18  C2  UNL     1      22.044   7.613  19.228  1.00  0.00    -0.001 C
HETATM   19  C1  UNL     1      23.389   7.984  18.696  1.00  0.00     0.011 C
HETATM   20  C22 UNL     1      22.032   6.278  19.962  1.00  0.00     0.128 C
ENDBRANCH  13  14
BRANCH  13  21
HETATM   21  O1  UNL     1      23.418   5.490  23.226  1.00  0.00    -0.348 OA
ATOM     22  H1  UNL     1      23.348   6.403  23.478  1.00  0.00     0.219 HD
ENDBRANCH  13  21
ENDBRANCH   1  13
BRANCH  11  23
HETATM   23  C13 UNL     1      21.811   1.655  24.759  1.00  0.00     0.097 C
HETATM   24  C14 UNL     1      21.465   2.475  25.975  1.00  0.00     0.015 C
HETATM   25  C15 UNL     1      19.968   2.685  26.063  1.00  0.00     0.013 C
HETATM   26  C16 UNL     1      22.005   1.781  27.189  1.00  0.00    -0.007 C
HETATM   27  C17 UNL     1      21.025   0.791  27.792  1.00  0.00     0.018 C
HETATM   28  C18 UNL     1      22.433   2.740  28.270  1.00  0.00     0.018 C
HETATM   29  C19 UNL     1      23.196   1.014  26.622  1.00  0.00     0.125 C
HETATM   30 CL1  UNL     1      24.614   2.048  26.394  1.00  0.00    -0.100 Cl
HETATM   31 CL2  UNL     1      23.662  -0.335  27.682  1.00  0.00    -0.100 Cl
HETATM   32  C20 UNL     1      22.646   0.513  25.297  1.00  0.00     0.044 C
HETATM   33  C21 UNL     1      23.715   0.036  24.385  1.00  0.00     0.015 C
ENDBRANCH  11  23
TORSDOF 4
ENDMDL