MODEL 2
REMARK VINA RESULT: -7.276821115      2.272      3.369
REMARK  3 active torsions:
REMARK  status: ('A' for Active; 'I' for Inactive)
REMARK       I    between atoms: N1_10  and  C9_11
REMARK    1  A    between atoms: C9_11  and  C10_13
REMARK    2  A    between atoms: C18_22  and  O3_23
REMARK    3  A    between atoms: C18_22  and  C19_25
ROOT
HETATM    1  C1  UNL     1      24.490   2.094  27.539  1.00  0.00     0.015 C
HETATM    2  C2  UNL     1      23.909   1.201  26.400  1.00  0.00    -0.039 A
HETATM    3  C3  UNL     1      23.246   0.005  26.920  1.00  0.00     0.010 C
HETATM    4  C4  UNL     1      21.751  -0.004  26.717  1.00  0.00     0.001 C
HETATM    5  C5  UNL     1      21.391   1.341  26.248  1.00  0.00     0.001 C
HETATM    6  C6  UNL     1      21.396   1.631  24.781  1.00  0.00     0.023 C
HETATM    7  C7  UNL     1      22.743   1.612  24.096  1.00  0.00     0.086 C
HETATM    8  C8  UNL     1      22.702   2.951  23.393  1.00  0.00     0.239 C
HETATM    9  O1  UNL     1      22.320   3.860  24.192  1.00  0.00    -0.272 OA
HETATM   10  N1  UNL     1      22.953   3.494  22.147  1.00  0.00    -0.287 N
HETATM   11  C9  UNL     1      22.356   4.749  21.796  1.00  0.00     0.230 C
HETATM   12  O2  UNL     1      21.604   5.249  22.702  1.00  0.00    -0.273 OA
HETATM   13  C15 UNL     1      23.785   2.896  21.129  1.00  0.00     0.136 C
HETATM   14  C16 UNL     1      24.678   1.933  21.826  1.00  0.00     0.039 C
HETATM   15  C17 UNL     1      23.983   0.662  22.079  1.00  0.00     0.104 C
HETATM   16 BR1  UNL     1      23.503   0.225  20.208  1.00  0.00    -0.088 Br
HETATM   17  C18 UNL     1      22.918   0.509  23.068  1.00  0.00     0.185 C
HETATM   18  C20 UNL     1      23.880   1.702  25.083  1.00  0.00     0.015 A
HETATM   19  C21 UNL     1      25.002   0.860  25.356  1.00  0.00     0.016 A
ENDROOT
BRANCH  17  20
HETATM   20  O3  UNL     1      23.310  -0.610  23.879  1.00  0.00    -0.379 OA
ATOM     21  H3  UNL     1      22.583  -0.689  24.485  1.00  0.00     0.211 HD
ENDBRANCH  17  20
BRANCH  17  22
HETATM   22  C19 UNL     1      21.757  -0.148  22.445  1.00  0.00     0.420 C
HETATM   23  F1  UNL     1      20.925  -0.947  23.208  1.00  0.00    -0.168 F
HETATM   24  F2  UNL     1      22.295  -1.264  21.736  1.00  0.00    -0.168 F
HETATM   25  F3  UNL     1      21.068   0.607  21.535  1.00  0.00    -0.168 F
ENDBRANCH  17  22
BRANCH  11  26
HETATM   26  C10 UNL     1      22.522   5.475  20.556  1.00  0.00     0.078 C
HETATM   27  C11 UNL     1      23.893   5.564  19.984  1.00  0.00     0.014 C
HETATM   28  C12 UNL     1      23.844   6.854  19.150  1.00  0.00     0.001 C
HETATM   29  C13 UNL     1      22.597   7.577  19.536  1.00  0.00     0.001 C
HETATM   30  C14 UNL     1      22.207   6.955  20.838  1.00  0.00     0.014 C
ENDBRANCH  11  26
TORSDOF 3
ENDMDL