MODEL 2
REMARK VINA RESULT: -8.650520853      0.083      1.472
REMARK  6 active torsions:
REMARK  status: ('A' for Active; 'I' for Inactive)
REMARK    1  A    between atoms: O1_1  and  C1_3
REMARK    2  A    between atoms: C1_3  and  N1_4
REMARK    3  A    between atoms: C1_3  and  C13_24
REMARK    4  A    between atoms: N2_7  and  C4_8
REMARK    5  A    between atoms: C4_8  and  N3_10
REMARK    6  A    between atoms: N3_10  and  C5_12
ROOT
HETATM    1  N1  UNL     1      24.550   2.699  21.079  1.00  0.00    -0.327 N
HETATM    2  C2  UNL     1      24.825   4.098  21.284  1.00  0.00     0.148 C
HETATM    3  C3  UNL     1      24.337   4.940  20.125  1.00  0.00     0.145 C
HETATM    4  N2  UNL     1      24.987   4.530  18.874  1.00  0.00    -0.352 N
HETATM    5  C11 UNL     1      25.565   3.232  18.885  1.00  0.00     0.190 C
HETATM    6  C12 UNL     1      24.623   2.288  19.666  1.00  0.00     0.206 C
HETATM    7 CL1  UNL     1      25.240   0.625  19.487  1.00  0.00    -0.076 Cl
HETATM    8 CL2  UNL     1      23.027   2.437  18.912  1.00  0.00    -0.076 Cl
ENDROOT
BRANCH   1   9
HETATM    9  C1  UNL     1      24.239   1.742  22.061  1.00  0.00     0.125 C
BRANCH   9  10
HETATM   10  O1  UNL     1      25.275   1.138  22.576  1.00  0.00    -0.349 OA
ATOM     11  H1  UNL     1      25.931   1.723  22.936  1.00  0.00     0.219 HD
ENDBRANCH   9  10
BRANCH   9  12
HETATM   12  C13 UNL     1      22.923   1.333  22.577  1.00  0.00     0.026 C
HETATM   13  C14 UNL     1      22.984   1.127  24.056  1.00  0.00     0.022 C
HETATM   14  C15 UNL     1      21.680   0.616  24.639  1.00  0.00    -0.013 C
HETATM   15  C16 UNL     1      21.304  -0.645  23.937  1.00  0.00     0.009 C
HETATM   16  C20 UNL     1      20.671   1.733  24.448  1.00  0.00     0.009 C
HETATM   17  C17 UNL     1      21.051  -0.321  22.503  1.00  0.00    -0.013 C
HETATM   18  C18 UNL     1      20.034   0.787  22.308  1.00  0.00     0.009 C
HETATM   19  C22 UNL     1      22.331   0.167  21.841  1.00  0.00     0.022 C
HETATM   20  C19 UNL     1      20.606   2.019  22.982  1.00  0.00    -0.013 C
HETATM   21  C21 UNL     1      21.904   2.474  22.376  1.00  0.00     0.022 C
ENDBRANCH   9  12
ENDBRANCH   1   9
BRANCH   4  22
HETATM   22  C4  UNL     1      24.957   5.491  17.847  1.00  0.00     0.174 C
HETATM   23  S1  UNL     1      24.996   4.886  16.250  1.00  0.00    -0.041 SA
BRANCH  22  24
HETATM   24  N3  UNL     1      24.900   6.878  17.889  1.00  0.00    -0.328 N
ATOM     25  H3  UNL     1      25.797   7.349  18.009  1.00  0.00     0.168 HD
BRANCH  24  26
HETATM   26  C5  UNL     1      23.787   7.720  17.788  1.00  0.00     0.112 A
HETATM   27  C6  UNL     1      22.953   8.037  18.843  1.00  0.00     0.146 A
HETATM   28  F1  UNL     1      23.243   7.551  20.073  1.00  0.00    -0.204 F
HETATM   29  C7  UNL     1      21.858   8.820  18.669  1.00  0.00     0.045 A
HETATM   30  C8  UNL     1      21.554   9.321  17.421  1.00  0.00     0.006 A
HETATM   31  C9  UNL     1      22.348   9.040  16.328  1.00  0.00     0.045 A
HETATM   32  C10 UNL     1      23.458   8.239  16.539  1.00  0.00     0.146 A
HETATM   33  F2  UNL     1      24.270   7.935  15.496  1.00  0.00    -0.204 F
ENDBRANCH  24  26
ENDBRANCH  22  24
ENDBRANCH   4  22
TORSDOF 6
ENDMDL