MODEL 5
REMARK VINA RESULT: -8.407172969      4.289      5.094
REMARK  5 active torsions:
REMARK  status: ('A' for Active; 'I' for Inactive)
REMARK       I    between atoms: C1_2  and  N1_3
REMARK       I    between atoms: C1_2  and  N2_15
REMARK    1  A    between atoms: N1_3  and  C2_5
REMARK    2  A    between atoms: C5_8  and  C6_9
REMARK    3  A    between atoms: N3_23  and  C15_24
REMARK    4  A    between atoms: C15_24  and  O3_25
REMARK    5  A    between atoms: C15_24  and  C16_27
ROOT
HETATM    1  O1  UNL     1      19.998   3.497  23.855  1.00  0.00    -0.247 OA
HETATM    2  C1  UNL     1      21.247   3.405  23.751  1.00  0.00     0.322 C
HETATM    3  N1  UNL     1      22.101   4.510  23.985  1.00  0.00    -0.309 N
ATOM      4  H1  UNL     1      23.104   4.359  23.875  1.00  0.00     0.170 HD
HETATM    5  N2  UNL     1      21.768   2.135  23.389  1.00  0.00    -0.334 N
HETATM    6  C9  UNL     1      20.865   0.995  23.179  1.00  0.00     0.128 C
HETATM    7  C10 UNL     1      21.205   0.308  21.893  1.00  0.00     0.031 C
HETATM    8  C11 UNL     1      22.649  -0.076  21.794  1.00  0.00    -0.020 C
HETATM    9  C12 UNL     1      22.760  -1.610  21.813  1.00  0.00     0.020 C
HETATM   10  C13 UNL     1      24.209  -1.945  22.031  1.00  0.00     0.104 C
HETATM   11  C14 UNL     1      24.993  -1.303  20.921  1.00  0.00     0.225 C
HETATM   12  O2  UNL     1      26.232  -1.369  20.804  1.00  0.00    -0.273 OA
HETATM   13  N3  UNL     1      24.223  -0.558  19.928  1.00  0.00    -0.297 N
HETATM   14  C22 UNL     1      23.163   0.287  20.395  1.00  0.00     0.144 C
HETATM   15  C23 UNL     1      23.431   0.465  22.920  1.00  0.00     0.031 C
HETATM   16  C24 UNL     1      23.160   1.919  23.200  1.00  0.00     0.128 C
ENDROOT
BRANCH  13  17
HETATM   17  C15 UNL     1      24.500  -0.801  18.587  1.00  0.00     0.155 C
BRANCH  17  18
HETATM   18  O3  UNL     1      23.530  -1.398  17.914  1.00  0.00    -0.345 OA
ATOM     19  H3  UNL     1      23.766  -2.232  17.526  1.00  0.00     0.219 HD
ENDBRANCH  17  18
BRANCH  17  20
HETATM   20  C16 UNL     1      25.677  -0.510  17.787  1.00  0.00     0.015 A
HETATM   21  C17 UNL     1      26.311   0.704  18.001  1.00  0.00     0.019 A
HETATM   22  C18 UNL     1      27.504   1.012  17.394  1.00  0.00     0.043 A
HETATM   23  C19 UNL     1      28.148   0.151  16.540  1.00  0.00     0.116 A
HETATM   24  F4  UNL     1      29.331   0.410  15.939  1.00  0.00    -0.206 F
HETATM   25  C20 UNL     1      27.530  -1.045  16.321  1.00  0.00     0.043 A
HETATM   26  C21 UNL     1      26.309  -1.380  16.935  1.00  0.00     0.019 A
ENDBRANCH  17  20
ENDBRANCH  13  17
BRANCH   3  27
HETATM   27  C2  UNL     1      21.677   5.810  24.360  1.00  0.00     0.036 A
HETATM   28  C3  UNL     1      21.800   6.856  23.440  1.00  0.00     0.030 A
HETATM   29  C4  UNL     1      21.399   8.149  23.732  1.00  0.00     0.018 A
HETATM   30  C5  UNL     1      20.854   8.465  24.973  1.00  0.00     0.048 A
HETATM   31  C7  UNL     1      20.727   7.448  25.885  1.00  0.00     0.018 A
HETATM   32  C8  UNL     1      21.135   6.153  25.574  1.00  0.00     0.030 A
BRANCH  30  33
HETATM   33  C6  UNL     1      20.396   9.853  25.259  1.00  0.00     0.417 C
HETATM   34  F1  UNL     1      19.115   9.819  25.805  1.00  0.00    -0.166 F
HETATM   35  F2  UNL     1      20.449  10.612  24.116  1.00  0.00    -0.166 F
HETATM   36  F3  UNL     1      21.176  10.467  26.210  1.00  0.00    -0.166 F
ENDBRANCH  30  33
ENDBRANCH   3  27
TORSDOF 5
ENDMDL