MODEL 2
REMARK VINA RESULT: -9.320364430      2.961      3.857
REMARK  4 active torsions:
REMARK  status: ('A' for Active; 'I' for Inactive)
REMARK    1  A    between atoms: O1_1  and  C1_3
REMARK    2  A    between atoms: C1_3  and  N1_4
REMARK    3  A    between atoms: C1_3  and  N4_27
REMARK       I    between atoms: N2_7  and  C4_8
REMARK    4  A    between atoms: C4_8  and  C5_10
ROOT
HETATM    1  N1  UNL     1      23.606   4.647  20.342  1.00  0.00    -0.344 N
HETATM    2  C2  UNL     1      24.248   5.385  21.430  1.00  0.00     0.146 C
HETATM    3  C3  UNL     1      23.558   5.395  22.734  1.00  0.00     0.147 C
HETATM    4  N2  UNL     1      22.402   4.498  22.787  1.00  0.00    -0.335 N
HETATM    5  C4  UNL     1      21.271   4.826  23.524  1.00  0.00     0.254 C
HETATM    6  O2  UNL     1      20.276   4.012  23.360  1.00  0.00    -0.267 OA
HETATM    7  C11 UNL     1      22.604   3.289  22.045  1.00  0.00     0.055 C
HETATM    8  C12 UNL     1      21.732   2.132  22.332  1.00  0.00     0.060 C
HETATM    9  C13 UNL     1      22.070   1.580  23.686  1.00  0.00     0.235 C
HETATM   10  N3  UNL     1      23.325   0.822  23.541  1.00  0.00    -0.075 N
ATOM     11  H31 UNL     1      23.144  -0.179  23.467  1.00  0.00     0.277 HD
ATOM     12  H32 UNL     1      23.861   0.828  24.409  1.00  0.00     0.277 HD
HETATM   13  C14 UNL     1      24.107   1.282  22.456  1.00  0.00     0.235 C
HETATM   14  C15 UNL     1      24.034   2.793  22.194  1.00  0.00     0.060 C
HETATM   15  C16 UNL     1      22.505   3.761  20.560  1.00  0.00     0.157 C
ENDROOT
BRANCH   1  16
HETATM   16  C1  UNL     1      24.183   4.879  19.070  1.00  0.00     0.222 C
BRANCH  16  17
HETATM   17  O1  UNL     1      24.790   3.783  18.596  1.00  0.00    -0.332 OA
ATOM     18  H1  UNL     1      24.442   2.992  18.990  1.00  0.00     0.220 HD
ENDBRANCH  16  17
BRANCH  16  19
HETATM   19  N4  UNL     1      24.270   5.952  18.215  1.00  0.00    -0.285 N
HETATM   20  C17 UNL     1      25.144   5.736  17.014  1.00  0.00     0.132 C
HETATM   21  C18 UNL     1      24.435   6.237  15.786  1.00  0.00     0.020 C
HETATM   22  C19 UNL     1      24.293   7.748  15.869  1.00  0.00     0.010 C
HETATM   23  C20 UNL     1      24.519   8.152  17.282  1.00  0.00     0.104 C
HETATM   24  C21 UNL     1      23.702   7.254  18.265  1.00  0.00     0.326 C
HETATM   25  F1  UNL     1      22.414   7.337  17.759  1.00  0.00    -0.182 F
HETATM   26  F2  UNL     1      23.866   7.915  19.462  1.00  0.00    -0.182 F
ENDBRANCH  16  19
ENDBRANCH   1  16
BRANCH   5  27
HETATM   27  C5  UNL     1      20.987   5.903  24.439  1.00  0.00     0.034 A
HETATM   28  C6  UNL     1      20.756   5.595  25.797  1.00  0.00     0.019 A
HETATM   29  C7  UNL     1      20.546   6.499  26.776  1.00  0.00     0.026 A
HETATM   30  C8  UNL     1      20.553   7.834  26.450  1.00  0.00     0.055 A
HETATM   31 CL1  UNL     1      20.283   9.035  27.699  1.00  0.00    -0.083 Cl
HETATM   32  C9  UNL     1      20.776   8.176  25.141  1.00  0.00     0.056 A
HETATM   33 CL2  UNL     1      20.773   9.901  24.793  1.00  0.00    -0.083 Cl
HETATM   34  C10 UNL     1      20.990   7.244  24.148  1.00  0.00     0.042 A
ENDBRANCH   5  27
TORSDOF 4
ENDMDL