MODEL 3
REMARK VINA RESULT: -9.420357691      3.924      7.611
REMARK  3 active torsions:
REMARK  status: ('A' for Active; 'I' for Inactive)
REMARK       I    between atoms: N2_10  and  C9_11
REMARK       I    between atoms: C9_11  and  N3_13
REMARK    1  A    between atoms: N3_13  and  C10_15
REMARK    2  A    between atoms: C17_22  and  C18_23
REMARK    3  A    between atoms: C22_27  and  C23_28
ROOT
HETATM    1  C1  UNL     1      21.742   8.300  21.069  1.00  0.00     0.309 C
HETATM    2  N1  UNL     1      21.474   6.874  20.974  1.00  0.00     0.085 N
HETATM    3  C2  UNL     1      22.206   6.236  22.036  1.00  0.00     0.272 C
HETATM    4  C3  UNL     1      23.384   5.538  21.359  1.00  0.00     0.041 C
HETATM    5  C4  UNL     1      22.791   5.097  20.077  1.00  0.00    -0.012 C
HETATM    6  C5  UNL     1      23.734   4.887  18.969  1.00  0.00     0.012 C
HETATM    7  C6  UNL     1      24.838   3.880  19.267  1.00  0.00     0.007 C
HETATM    8  C7  UNL     1      24.439   2.504  18.858  1.00  0.00     0.008 C
HETATM    9  C8  UNL     1      25.680   1.605  18.935  1.00  0.00     0.132 C
HETATM   10  N2  UNL     1      25.260   0.237  18.675  1.00  0.00    -0.334 N
HETATM   11  C9  UNL     1      25.545  -0.569  17.592  1.00  0.00     0.318 C
HETATM   12  O1  UNL     1      25.032  -1.725  17.496  1.00  0.00    -0.247 OA
HETATM   13  N3  UNL     1      26.405  -0.167  16.538  1.00  0.00    -0.335 N
ATOM     14  H3  UNL     1      26.855   0.747  16.588  1.00  0.00     0.165 HD
HETATM   15  C14 UNL     1      24.401  -0.292  19.749  1.00  0.00     0.128 C
HETATM   16  C15 UNL     1      23.103   0.453  19.486  1.00  0.00     0.025 C
HETATM   17  C16 UNL     1      23.217   1.932  19.440  1.00  0.00     0.001 C
HETATM   18  C17 UNL     1      22.534   2.687  20.568  1.00  0.00     0.027 C
HETATM   19  C25 UNL     1      21.837   3.916  20.184  1.00  0.00     0.021 C
HETATM   20  C26 UNL     1      21.921   6.312  19.716  1.00  0.00     0.281 C
ENDROOT
BRANCH  18  21
HETATM   21  C18 UNL     1      21.814   1.788  21.476  1.00  0.00    -0.014 A
HETATM   22  C19 UNL     1      20.444   1.540  21.300  1.00  0.00     0.011 A
HETATM   23  C20 UNL     1      19.718   0.669  22.060  1.00  0.00     0.002 A
HETATM   24  C21 UNL     1      20.341  -0.040  23.089  1.00  0.00     0.019 A
HETATM   25  C22 UNL     1      21.673   0.179  23.288  1.00  0.00     0.086 A
HETATM   26  C24 UNL     1      22.375   1.064  22.499  1.00  0.00     0.138 A
HETATM   27  F4  UNL     1      23.677   1.210  22.803  1.00  0.00    -0.205 F
BRANCH  25  28
HETATM   28  C23 UNL     1      22.360  -0.505  24.418  1.00  0.00     0.420 C
HETATM   29  F1  UNL     1      22.719   0.464  25.330  1.00  0.00    -0.166 F
HETATM   30  F2  UNL     1      23.431  -1.248  23.999  1.00  0.00    -0.166 F
HETATM   31  F3  UNL     1      21.410  -1.368  25.001  1.00  0.00    -0.166 F
ENDBRANCH  25  28
ENDBRANCH  18  21
BRANCH  13  32
HETATM   32  C10 UNL     1      26.661  -1.007  15.403  1.00  0.00     0.023 C
HETATM   33  C11 UNL     1      27.704  -2.047  15.764  1.00  0.00     0.037 C
HETATM   34  C12 UNL     1      25.477  -1.654  14.791  1.00  0.00     0.037 C
HETATM   35  C13 UNL     1      27.386  -0.097  14.378  1.00  0.00     0.037 C
ENDBRANCH  13  32
TORSDOF 3
ENDMDL