MODEL 4
REMARK VINA RESULT: -5.546907864      2.403      5.696
REMARK  3 active torsions:
REMARK  status: ('A' for Active; 'I' for Inactive)
REMARK       I    between atoms: C2_4  and  N2_5
REMARK       I    between atoms: C2_4  and  N3_8
REMARK    1  A    between atoms: N4_22  and  C17_23
REMARK    2  A    between atoms: C17_23  and  C20_30
REMARK    3  A    between atoms: C18_24  and  C19_26
ROOT
HETATM    1  C1  UNL     1      25.228   0.969  25.750  1.00  0.00     0.165 C
HETATM    2  N1  UNL     1      24.794   1.017  24.392  1.00  0.00    -0.231 N
ATOM      3  H1  UNL     1      25.379   1.550  23.749  1.00  0.00     0.177 HD
HETATM    4  C2  UNL     1      23.753   0.465  23.889  1.00  0.00     0.671 C
HETATM    5  N2  UNL     1      22.886  -0.296  24.712  1.00  0.00    -0.231 N
ATOM      6  H2  UNL     1      21.952   0.036  24.954  1.00  0.00     0.177 HD
HETATM    7  C3  UNL     1      23.390  -1.577  25.197  1.00  0.00     0.165 C
HETATM    8  N3  UNL     1      23.493   0.624  22.520  1.00  0.00    -0.216 N
HETATM    9  C4  UNL     1      22.687  -0.300  21.741  1.00  0.00     0.141 C
HETATM   10  C5  UNL     1      21.477   0.484  21.319  1.00  0.00     0.023 C
HETATM   11  C6  UNL     1      21.609   1.958  21.280  1.00  0.00     0.039 C
HETATM   12  C7  UNL     1      22.930   2.532  21.028  1.00  0.00     0.077 C
HETATM   13  C8  UNL     1      24.010   1.729  21.717  1.00  0.00     0.177 C
HETATM   14  C9  UNL     1      23.307   2.567  19.564  1.00  0.00    -0.022 A
HETATM   15  C10 UNL     1      22.546   2.022  18.576  1.00  0.00     0.010 A
HETATM   16  C11 UNL     1      22.981   2.087  17.268  1.00  0.00     0.001 A
HETATM   17  C12 UNL     1      24.175   2.699  16.961  1.00  0.00     0.001 A
HETATM   18  C13 UNL     1      24.924   3.241  17.982  1.00  0.00     0.008 A
HETATM   19  C14 UNL     1      24.499   3.181  19.280  1.00  0.00    -0.048 A
HETATM   20  C15 UNL     1      25.345   3.813  20.346  1.00  0.00     0.059 C
HETATM   21  C16 UNL     1      24.515   4.358  21.453  1.00  0.00     0.129 C
HETATM   22  N4  UNL     1      23.135   3.890  21.451  1.00  0.00    -0.363 N
ENDROOT
BRANCH  22  23
HETATM   23  C17 UNL     1      22.165   4.854  21.860  1.00  0.00     0.068 C
HETATM   24  C18 UNL     1      21.505   4.798  22.971  1.00  0.00     0.144 C
HETATM   25 CL1  UNL     1      21.781   3.464  24.137  1.00  0.00    -0.077 Cl
BRANCH  24  26
HETATM   26  C19 UNL     1      20.458   5.726  23.385  1.00  0.00     0.430 C
HETATM   27  F1  UNL     1      19.566   6.129  22.447  1.00  0.00    -0.165 F
HETATM   28  F2  UNL     1      19.712   5.056  24.383  1.00  0.00    -0.165 F
HETATM   29  F3  UNL     1      20.954   6.845  24.040  1.00  0.00    -0.165 F
ENDBRANCH  24  26
BRANCH  23  30
HETATM   30  C20 UNL     1      22.058   6.054  21.035  1.00  0.00    -0.008 A
HETATM   31  C21 UNL     1      21.907   5.889  19.660  1.00  0.00     0.014 A
HETATM   32  C22 UNL     1      21.796   6.939  18.802  1.00  0.00     0.001 A
HETATM   33  C23 UNL     1      21.834   8.242  19.286  1.00  0.00     0.000 A
HETATM   34  C24 UNL     1      21.983   8.446  20.639  1.00  0.00     0.001 A
HETATM   35  C25 UNL     1      22.093   7.339  21.487  1.00  0.00     0.014 A
ENDBRANCH  23  30
ENDBRANCH  22  23
TORSDOF 3
ENDMDL