MODEL 2
REMARK VINA RESULT: -9.284998296      5.888      8.362
REMARK  6 active torsions:
REMARK  status: ('A' for Active; 'I' for Inactive)
REMARK    1  A    between atoms: N1_2  and  C2_3
REMARK    2  A    between atoms: N1_2  and  C20_31
REMARK    3  A    between atoms: C2_3  and  O1_4
REMARK    4  A    between atoms: C2_3  and  N2_6
REMARK       I    between atoms: N3_12  and  C8_13
REMARK       I    between atoms: C8_13  and  N4_15
REMARK    5  A    between atoms: N4_15  and  C9_17
REMARK    6  A    between atoms: C13_21  and  C14_22
ROOT
HETATM    1  N2  UNL     1      22.277   0.040  24.091  1.00  0.00    -0.347 N
HETATM    2  C3  UNL     1      23.565   0.489  23.740  1.00  0.00     0.127 C
HETATM    3  C4  UNL     1      23.335   1.921  23.200  1.00  0.00     0.029 C
HETATM    4  C5  UNL     1      22.469   1.831  22.007  1.00  0.00    -0.035 C
HETATM    5  C6  UNL     1      23.304   2.263  20.807  1.00  0.00     0.029 C
HETATM    6  C7  UNL     1      22.668   3.317  19.970  1.00  0.00     0.128 C
HETATM    7  N3  UNL     1      22.275   4.500  20.695  1.00  0.00    -0.334 N
HETATM    8  C8  UNL     1      22.202   5.812  20.139  1.00  0.00     0.322 C
HETATM    9  O2  UNL     1      21.843   6.732  20.913  1.00  0.00    -0.247 OA
HETATM   10  N4  UNL     1      22.518   6.046  18.796  1.00  0.00    -0.309 N
ATOM     11  H4  UNL     1      22.808   5.239  18.244  1.00  0.00     0.170 HD
HETATM   12  C16 UNL     1      21.932   4.277  22.111  1.00  0.00     0.128 C
HETATM   13  C17 UNL     1      21.371   2.897  22.193  1.00  0.00     0.029 C
HETATM   14  C18 UNL     1      21.757   0.559  21.748  1.00  0.00     0.029 C
HETATM   15  C19 UNL     1      21.481  -0.346  22.878  1.00  0.00     0.127 C
ENDROOT
BRANCH   1  16
HETATM   16  C2  UNL     1      21.680  -0.069  25.347  1.00  0.00     0.218 C
BRANCH  16  17
HETATM   17  N1  UNL     1      21.504   0.706  26.468  1.00  0.00    -0.330 N
HETATM   18  C1  UNL     1      21.154  -0.076  27.723  1.00  0.00     0.155 C
BRANCH  17  19
HETATM   19  C20 UNL     1      21.627   2.118  26.723  1.00  0.00     0.105 C
HETATM   20  C21 UNL     1      23.058   2.582  26.867  1.00  0.00     0.056 C
HETATM   21  C22 UNL     1      20.823   2.990  25.801  1.00  0.00     0.056 C
HETATM   22 CL1  UNL     1      20.905   2.483  28.372  1.00  0.00    -0.096 Cl
ENDBRANCH  17  19
ENDBRANCH  16  17
BRANCH  16  23
HETATM   23  O1  UNL     1      21.095  -1.287  25.528  1.00  0.00    -0.332 OA
ATOM     24  H1  UNL     1      20.919  -1.691  24.685  1.00  0.00     0.220 HD
ENDBRANCH  16  23
ENDBRANCH   1  16
BRANCH  10  25
HETATM   25  C9  UNL     1      22.474   7.304  18.123  1.00  0.00     0.037 A
HETATM   26  C10 UNL     1      23.471   7.785  17.319  1.00  0.00     0.029 A
HETATM   27  C11 UNL     1      23.364   8.980  16.669  1.00  0.00     0.003 A
HETATM   28  C12 UNL     1      22.235   9.753  16.799  1.00  0.00     0.016 A
HETATM   29  C13 UNL     1      21.208   9.297  17.605  1.00  0.00     0.050 A
HETATM   30  C15 UNL     1      21.323   8.099  18.254  1.00  0.00     0.045 A
BRANCH  29  31
HETATM   31  C14 UNL     1      19.993  10.153  17.718  1.00  0.00     0.417 C
HETATM   32  F1  UNL     1      20.232  11.290  16.932  1.00  0.00    -0.166 F
HETATM   33  F2  UNL     1      19.765  10.494  19.030  1.00  0.00    -0.166 F
HETATM   34  F3  UNL     1      18.908   9.503  17.170  1.00  0.00    -0.166 F
ENDBRANCH  29  31
ENDBRANCH  10  25
TORSDOF 6
ENDMDL