MODEL 5
REMARK VINA RESULT: -5.982323604      3.396      4.631
REMARK  3 active torsions:
REMARK  status: ('A' for Active; 'I' for Inactive)
REMARK    1  A    between atoms: C8_8  and  O1_9
REMARK    2  A    between atoms: C11_13  and  C12_14
REMARK    3  A    between atoms: C13_18  and  N1_19
ROOT
HETATM    1  C1  UNL     1      24.505   0.837  21.788  1.00  0.00     0.016 C
HETATM    2  C2  UNL     1      23.185   0.247  21.557  1.00  0.00    -0.033 C
HETATM    3  C3  UNL     1      23.414  -0.830  20.472  1.00  0.00     0.010 C
HETATM    4  C4  UNL     1      23.857  -0.215  19.200  1.00  0.00     0.001 C
HETATM    5  C5  UNL     1      23.475   1.136  18.841  1.00  0.00     0.001 C
HETATM    6  C6  UNL     1      22.931   2.028  19.960  1.00  0.00     0.008 C
HETATM    7  C7  UNL     1      22.188   1.153  20.834  1.00  0.00     0.030 C
HETATM    8  C8  UNL     1      21.257   1.598  21.871  1.00  0.00     0.075 C
HETATM    9  C9  UNL     1      20.962   0.185  22.402  1.00  0.00     0.045 C
HETATM   10  C10 UNL     1      22.391  -0.246  22.702  1.00  0.00     0.007 C
HETATM   11  C11 UNL     1      22.853   0.069  24.075  1.00  0.00     0.078 C
HETATM   12  C13 UNL     1      21.937   0.905  24.923  1.00  0.00     0.232 C
HETATM   13  C19 UNL     1      21.136   1.958  24.267  1.00  0.00     0.055 C
HETATM   14  C20 UNL     1      21.653   2.468  22.940  1.00  0.00     0.094 C
HETATM   15 BR1  UNL     1      20.798   4.212  22.651  1.00  0.00    -0.088 Br
ENDROOT
BRANCH  12  16
HETATM   16  N1  UNL     1      22.571   1.456  26.073  1.00  0.00     0.093 N
HETATM   17  C14 UNL     1      23.700   2.274  25.923  1.00  0.00     0.273 C
HETATM   18  C15 UNL     1      24.238   2.626  27.323  1.00  0.00     0.030 C
HETATM   19  C16 UNL     1      23.290   3.589  27.953  1.00  0.00     0.003 C
HETATM   20  C17 UNL     1      21.889   3.385  27.474  1.00  0.00     0.030 C
HETATM   21  C18 UNL     1      21.595   2.022  26.952  1.00  0.00     0.273 C
ENDBRANCH  12  16
BRANCH  11  22
HETATM   22  C12 UNL     1      23.015  -1.260  24.832  1.00  0.00     0.194 C
HETATM   23 CL1  UNL     1      24.544  -1.365  25.720  1.00  0.00    -0.083 Cl
HETATM   24 CL2  UNL     1      22.980  -2.669  23.767  1.00  0.00    -0.083 Cl
HETATM   25 CL3  UNL     1      21.646  -1.478  25.971  1.00  0.00    -0.083 Cl
ENDBRANCH  11  22
BRANCH   8  26
HETATM   26  O1  UNL     1      20.085   2.076  21.241  1.00  0.00    -0.388 OA
ATOM     27  H1  UNL     1      19.755   2.812  21.742  1.00  0.00     0.210 HD
ENDBRANCH   8  26
TORSDOF 3
ENDMDL