MODEL 3
REMARK VINA RESULT: -9.863822856      1.104      1.152
REMARK  5 active torsions:
REMARK  status: ('A' for Active; 'I' for Inactive)
REMARK    1  A    between atoms: C2_2  and  C3_3
REMARK    2  A    between atoms: C11_11  and  N1_12
REMARK    3  A    between atoms: N1_12  and  C12_14
REMARK    4  A    between atoms: C12_14  and  N2_16
REMARK       I    between atoms: N3_19  and  C15_20
REMARK    5  A    between atoms: C15_20  and  C16_22
ROOT
HETATM    1  N1  UNL     1      25.576   3.768  17.433  1.00  0.00    -0.362 N
ATOM      2  H1  UNL     1      26.452   4.262  17.604  1.00  0.00     0.162 HD
ENDROOT
BRANCH   1   3
HETATM    3  C11 UNL     1      24.423   4.595  17.232  1.00  0.00     0.083 C
HETATM    4  C10 UNL     1      24.669   5.626  16.160  1.00  0.00     0.026 C
HETATM    5  C9  UNL     1      23.516   6.608  16.106  1.00  0.00     0.011 C
HETATM    6  C2  UNL     1      23.469   7.426  17.390  1.00  0.00    -0.040 C
HETATM    7  C1  UNL     1      24.600   8.458  17.284  1.00  0.00     0.015 C
HETATM    8  C20 UNL     1      23.656   6.605  18.605  1.00  0.00     0.011 C
HETATM    9  C19 UNL     1      23.848   5.153  18.479  1.00  0.00     0.026 C
BRANCH   6  10
HETATM   10  C3  UNL     1      22.123   8.146  17.334  1.00  0.00    -0.006 C
HETATM   11  C4  UNL     1      22.215   9.443  16.556  1.00  0.00     0.005 C
HETATM   12  C5  UNL     1      20.834  10.067  16.546  1.00  0.00     0.000 C
HETATM   13  C6  UNL     1      20.277  10.292  17.920  1.00  0.00     0.000 C
HETATM   14  C7  UNL     1      20.289   9.029  18.756  1.00  0.00     0.000 C
HETATM   15  C8  UNL     1      21.669   8.398  18.755  1.00  0.00     0.005 C
ENDBRANCH   6  10
ENDBRANCH   1   3
BRANCH   1  16
HETATM   16  C12 UNL     1      25.660   2.378  17.425  1.00  0.00     0.170 C
HETATM   17  S1  UNL     1      26.620   1.609  16.368  1.00  0.00    -0.041 SA
BRANCH  16  18
HETATM   18  N2  UNL     1      24.929   1.582  18.342  1.00  0.00    -0.355 N
HETATM   19  C13 UNL     1      24.286   0.340  17.976  1.00  0.00     0.145 C
HETATM   20  C14 UNL     1      24.622  -0.670  19.050  1.00  0.00     0.145 C
HETATM   21  N3  UNL     1      23.995  -0.221  20.276  1.00  0.00    -0.345 N
HETATM   22  C15 UNL     1      23.602  -1.164  21.233  1.00  0.00     0.274 C
HETATM   23  C17 UNL     1      23.787   1.179  20.456  1.00  0.00     0.145 C
HETATM   24  O1  UNL     1      23.795  -2.407  20.983  1.00  0.00    -0.268 OA
HETATM   25  C18 UNL     1      24.809   2.022  19.719  1.00  0.00     0.145 C
BRANCH  22  26
HETATM   26  C16 UNL     1      22.979  -0.835  22.522  1.00  0.00     0.269 C
HETATM   27 CL1  UNL     1      22.734  -2.320  23.492  1.00  0.00    -0.073 Cl
HETATM   28 CL2  UNL     1      21.394  -0.105  22.231  1.00  0.00    -0.073 Cl
HETATM   29 CL3  UNL     1      24.004   0.261  23.510  1.00  0.00    -0.073 Cl
ENDBRANCH  22  26
ENDBRANCH  16  18
ENDBRANCH   1  16
TORSDOF 5
ENDMDL