MODEL 1
REMARK VINA RESULT: -6.606897555      0.000      0.000
REMARK  2 active torsions:
REMARK  status: ('A' for Active; 'I' for Inactive)
REMARK    1  A    between atoms: C3_3  and  C4_4
REMARK    2  A    between atoms: C7_9  and  O2_10
ROOT
HETATM    1  C1  UNL     1      22.981   5.811  22.393  1.00  0.00     0.017 C
HETATM    2  C2  UNL     1      22.520   4.921  21.541  1.00  0.00    -0.056 C
HETATM    3  C3  UNL     1      23.132   4.761  20.206  1.00  0.00     0.121 C
HETATM    4  C6  UNL     1      22.581   3.473  19.629  1.00  0.00     0.220 C
HETATM    5  F1  UNL     1      23.241   3.131  18.467  1.00  0.00    -0.245 F
HETATM    6  C7  UNL     1      22.613   2.334  20.630  1.00  0.00     0.099 C
HETATM    7  C8  UNL     1      24.022   2.126  21.040  1.00  0.00     0.042 C
HETATM    8  C9  UNL     1      24.159   1.189  22.254  1.00  0.00     0.009 C
HETATM    9  C10 UNL     1      23.427   1.862  23.359  1.00  0.00    -0.001 C
HETATM   10  C11 UNL     1      21.967   1.872  23.018  1.00  0.00     0.003 C
HETATM   11  C12 UNL     1      21.460   0.459  22.976  1.00  0.00     0.006 C
HETATM   12  C13 UNL     1      21.995  -0.437  24.022  1.00  0.00     0.007 C
HETATM   13  C14 UNL     1      22.753   0.200  25.122  1.00  0.00     0.011 C
HETATM   14  C15 UNL     1      23.676  -0.852  25.722  1.00  0.00     0.096 C
HETATM   15 BR1  UNL     1      22.810  -1.844  27.121  1.00  0.00    -0.088 Br
HETATM   16  C16 UNL     1      24.833  -0.042  26.213  1.00  0.00     0.185 C
HETATM   17  F2  UNL     1      25.973  -0.828  26.281  1.00  0.00    -0.248 F
HETATM   18  C17 UNL     1      25.044   0.924  25.040  1.00  0.00     0.048 C
HETATM   19  C18 UNL     1      23.642   1.329  24.726  1.00  0.00    -0.033 C
HETATM   20  C19 UNL     1      23.330   2.488  25.693  1.00  0.00     0.016 C
HETATM   21  C20 UNL     1      21.636   2.583  21.735  1.00  0.00     0.014 C
HETATM   22  C21 UNL     1      20.300   1.992  21.243  1.00  0.00     0.020 C
HETATM   23  C22 UNL     1      21.373   4.064  21.908  1.00  0.00     0.122 C
HETATM   24 CL1  UNL     1      20.732   4.456  23.516  1.00  0.00    -0.119 Cl
ENDROOT
BRANCH   3  25
HETATM   25  C4  UNL     1      22.764   5.866  19.278  1.00  0.00     0.134 C
HETATM   26  C5  UNL     1      23.664   6.243  18.154  1.00  0.00     0.091 C
HETATM   27  O1  UNL     1      21.727   6.495  19.403  1.00  0.00    -0.298 OA
ENDBRANCH   3  25
BRANCH   6  28
HETATM   28  O2  UNL     1      22.230   1.192  19.883  1.00  0.00    -0.386 OA
ATOM     29  H2  UNL     1      21.311   1.068  20.092  1.00  0.00     0.210 HD
ENDBRANCH   6  28
TORSDOF 2
ENDMDL