MODEL 1
REMARK VINA RESULT: -8.187213868      0.000      0.000
REMARK  2 active torsions:
REMARK  status: ('A' for Active; 'I' for Inactive)
REMARK    1  A    between atoms: C2_2  and  C3_3
REMARK    2  A    between atoms: C19_23  and  C20_24
ROOT
HETATM    1  C1  UNL     1      23.854   6.017  15.512  1.00  0.00     0.025 C
HETATM    2  C2  UNL     1      24.135   6.314  17.006  1.00  0.00     0.039 C
HETATM    3  C4  UNL     1      25.593   5.973  17.193  1.00  0.00     0.020 C
HETATM    4  C5  UNL     1      25.540   4.462  17.230  1.00  0.00     0.011 C
HETATM    5  C6  UNL     1      24.262   4.081  17.952  1.00  0.00    -0.035 C
HETATM    6  C7  UNL     1      23.602   3.018  17.126  1.00  0.00     0.016 C
HETATM    7  C8  UNL     1      23.447   5.334  17.876  1.00  0.00     0.011 C
HETATM    8  C9  UNL     1      23.121   5.906  19.213  1.00  0.00     0.007 C
HETATM    9  C10 UNL     1      22.481   4.740  19.962  1.00  0.00     0.012 C
HETATM   10  C11 UNL     1      23.566   3.743  20.391  1.00  0.00    -0.017 C
HETATM   11  C12 UNL     1      24.187   4.481  21.602  1.00  0.00     0.018 C
HETATM   12  C13 UNL     1      24.591   3.638  19.358  1.00  0.00     0.004 C
HETATM   13  C14 UNL     1      25.312   2.311  19.276  1.00  0.00     0.007 C
HETATM   14  C15 UNL     1      24.473   1.122  19.476  1.00  0.00     0.015 C
HETATM   15  C16 UNL     1      23.390   1.200  20.473  1.00  0.00     0.089 C
HETATM   16  C17 UNL     1      23.853   0.501  21.714  1.00  0.00     0.201 C
HETATM   17  O2  UNL     1      24.226  -0.702  21.703  1.00  0.00    -0.289 OA
HETATM   18  C18 UNL     1      23.769   1.441  22.781  1.00  0.00     0.205 C
HETATM   19  O3  UNL     1      24.462   1.400  23.837  1.00  0.00    -0.289 OA
HETATM   20  C19 UNL     1      22.727   2.423  22.368  1.00  0.00     0.142 C
HETATM   21  C21 UNL     1      22.860   2.527  20.872  1.00  0.00     0.070 C
HETATM   22 CL4  UNL     1      21.135   2.516  20.301  1.00  0.00    -0.117 Cl
ENDROOT
BRANCH   2  23
HETATM   23  C3  UNL     1      23.820   7.726  17.208  1.00  0.00     0.239 C
HETATM   24  N1  UNL     1      22.527   8.267  17.064  1.00  0.00    -0.061 NA
HETATM   25  O1  UNL     1      24.727   8.532  17.529  1.00  0.00    -0.276 OA
ENDBRANCH   2  23
BRANCH  20  26
HETATM   26  C20 UNL     1      21.393   1.929  22.869  1.00  0.00     0.201 C
HETATM   27 CL1  UNL     1      21.628   1.752  24.657  1.00  0.00    -0.083 Cl
HETATM   28 CL2  UNL     1      20.865   0.390  22.276  1.00  0.00    -0.083 Cl
HETATM   29 CL3  UNL     1      20.137   3.217  22.769  1.00  0.00    -0.083 Cl
ENDBRANCH  20  26
TORSDOF 2
ENDMDL