MODEL 3
REMARK VINA RESULT: -7.671016528      3.226      8.651
REMARK  5 active torsions:
REMARK  status: ('A' for Active; 'I' for Inactive)
REMARK    1  A    between atoms: C7_8  and  C8_9
REMARK    2  A    between atoms: C8_9  and  O1_10
REMARK    3  A    between atoms: C8_9  and  N1_12
REMARK       I    between atoms: N2_17  and  C13_18
REMARK       I    between atoms: C13_18  and  N3_20
REMARK    4  A    between atoms: N3_20  and  C14_22
REMARK    5  A    between atoms: C19_27  and  C20_28
ROOT
HETATM    1  N1  UNL     1      23.416   1.103  23.688  1.00  0.00    -0.352 N
HETATM    2  C9  UNL     1      23.730   1.771  22.397  1.00  0.00     0.136 C
HETATM    3  C10 UNL     1      23.168   0.944  21.272  1.00  0.00    -0.009 C
HETATM    4  C11 UNL     1      23.913  -0.401  21.335  1.00  0.00     0.032 C
HETATM    5  C12 UNL     1      23.855  -1.107  19.985  1.00  0.00     0.128 C
HETATM    6  N2  UNL     1      24.671  -0.320  19.082  1.00  0.00    -0.334 N
HETATM    7  C13 UNL     1      25.288  -0.949  17.977  1.00  0.00     0.318 C
HETATM    8  O2  UNL     1      25.096  -2.193  17.820  1.00  0.00    -0.247 OA
HETATM    9  N3  UNL     1      26.109  -0.227  17.048  1.00  0.00    -0.335 N
ATOM     10  H3  UNL     1      26.254   0.773  17.190  1.00  0.00     0.165 HD
HETATM   11  C18 UNL     1      24.783   1.087  19.406  1.00  0.00     0.142 C
HETATM   12  C19 UNL     1      23.405   1.512  19.935  1.00  0.00     0.121 C
HETATM   13  C21 UNL     1      21.711   0.596  21.462  1.00  0.00     0.014 C
HETATM   14  C22 UNL     1      21.399   0.043  22.815  1.00  0.00     0.031 C
HETATM   15  C23 UNL     1      22.039   0.901  23.922  1.00  0.00     0.027 C
HETATM   16  C24 UNL     1      21.557   0.343  25.204  1.00  0.00     0.038 C
HETATM   17  C25 UNL     1      21.380   2.298  23.811  1.00  0.00     0.038 C
ENDROOT
BRANCH  12  18
HETATM   18  C20 UNL     1      23.319   2.979  19.760  1.00  0.00     0.393 C
HETATM   19  F2  UNL     1      22.201   3.569  20.299  1.00  0.00    -0.171 F
HETATM   20  F3  UNL     1      24.497   3.630  20.105  1.00  0.00    -0.171 F
HETATM   21  F4  UNL     1      23.205   3.201  18.374  1.00  0.00    -0.171 F
ENDBRANCH  12  18
BRANCH   1  22
HETATM   22  C8  UNL     1      24.489   0.772  24.482  1.00  0.00     0.152 C
BRANCH  22  23
HETATM   23  C7  UNL     1      24.581   0.353  25.878  1.00  0.00     0.059 A
HETATM   24  C2  UNL     1      24.593  -0.974  26.217  1.00  0.00    -0.044 A
HETATM   25  C1  UNL     1      24.541  -2.056  25.180  1.00  0.00     0.049 C
HETATM   26  C3  UNL     1      24.645  -1.351  27.531  1.00  0.00     0.008 A
HETATM   27  C4  UNL     1      24.689  -0.447  28.566  1.00  0.00     0.004 A
HETATM   28  C5  UNL     1      24.676   0.886  28.186  1.00  0.00     0.043 A
HETATM   29  C6  UNL     1      24.625   1.290  26.884  1.00  0.00     0.131 A
HETATM   30  F1  UNL     1      24.613   2.605  26.536  1.00  0.00    -0.205 F
ENDBRANCH  22  23
BRANCH  22  31
HETATM   31  O1  UNL     1      25.696   0.818  23.948  1.00  0.00    -0.345 OA
ATOM     32  H1  UNL     1      25.939   1.721  23.781  1.00  0.00     0.219 HD
ENDBRANCH  22  31
ENDBRANCH   1  22
BRANCH   9  33
HETATM   33  C14 UNL     1      26.735  -0.867  15.925  1.00  0.00     0.023 C
HETATM   34  C15 UNL     1      27.461   0.159  15.095  1.00  0.00     0.037 C
HETATM   35  C16 UNL     1      27.732  -1.928  16.323  1.00  0.00     0.037 C
HETATM   36  C17 UNL     1      25.708  -1.543  15.023  1.00  0.00     0.037 C
ENDBRANCH   9  33
TORSDOF 5
ENDMDL