MODEL 4
REMARK VINA RESULT: -9.883214303      1.192      1.889
REMARK  5 active torsions:
REMARK  status: ('A' for Active; 'I' for Inactive)
REMARK    1  A    between atoms: N1_5  and  C5_6
REMARK    2  A    between atoms: N3_18  and  C16_19
REMARK    3  A    between atoms: C16_19  and  N4_21
REMARK    4  A    between atoms: N4_21  and  C17_23
REMARK    5  A    between atoms: C21_28  and  C22_29
ROOT
HETATM    1  C1  UNL     1      21.595   3.919  20.109  1.00  0.00     0.040 C
HETATM    2  C2  UNL     1      23.011   3.794  20.674  1.00  0.00     0.054 C
HETATM    3  C3  UNL     1      23.462   5.240  20.969  1.00  0.00     0.040 C
HETATM    4  C4  UNL     1      23.028   3.102  21.972  1.00  0.00     0.303 C
HETATM    5  N1  UNL     1      23.325   1.700  21.990  1.00  0.00     0.098 N
HETATM    6  C14 UNL     1      24.514   1.372  21.252  1.00  0.00     0.293 C
HETATM    7  C15 UNL     1      24.653   2.066  19.959  1.00  0.00     0.156 C
HETATM    8  N3  UNL     1      23.917   3.252  19.729  1.00  0.00    -0.346 N
ENDROOT
BRANCH   8   9
HETATM    9  C16 UNL     1      24.108   3.905  18.453  1.00  0.00     0.175 C
HETATM   10  S1  UNL     1      24.095   2.973  17.127  1.00  0.00    -0.041 SA
BRANCH   9  11
HETATM   11  N4  UNL     1      24.337   5.281  18.420  1.00  0.00    -0.333 N
ATOM     12  H4  UNL     1      24.973   5.642  19.130  1.00  0.00     0.168 HD
BRANCH  11  13
HETATM   13  C17 UNL     1      23.801   6.243  17.528  1.00  0.00     0.035 A
HETATM   14  C18 UNL     1      24.196   6.214  16.176  1.00  0.00     0.032 A
HETATM   15  C19 UNL     1      23.734   7.136  15.278  1.00  0.00     0.045 A
HETATM   16  C20 UNL     1      22.860   8.134  15.666  1.00  0.00     0.131 A
HETATM   17  F1  UNL     1      22.411   9.042  14.757  1.00  0.00    -0.205 F
HETATM   18  C21 UNL     1      22.456   8.193  16.978  1.00  0.00     0.088 A
HETATM   19  C23 UNL     1      22.940   7.246  17.865  1.00  0.00     0.048 A
BRANCH  18  20
HETATM   20  C22 UNL     1      21.509   9.266  17.419  1.00  0.00     0.420 C
HETATM   21  F2  UNL     1      21.529   9.268  18.812  1.00  0.00    -0.166 F
HETATM   22  F3  UNL     1      21.972  10.494  16.986  1.00  0.00    -0.166 F
HETATM   23  F4  UNL     1      20.255   9.041  16.919  1.00  0.00    -0.166 F
ENDBRANCH  18  20
ENDBRANCH  11  13
ENDBRANCH   9  11
ENDBRANCH   8   9
BRANCH   5  24
HETATM   24  C5  UNL     1      23.628   1.413  23.409  1.00  0.00     0.251 C
HETATM   25  C6  UNL     1      22.299   1.300  24.083  1.00  0.00     0.045 C
HETATM   26  C7  UNL     1      22.258   0.410  25.271  1.00  0.00     0.027 C
HETATM   27  C8  UNL     1      21.885  -0.990  24.768  1.00  0.00     0.037 C
HETATM   28  C11 UNL     1      23.642   0.142  25.796  1.00  0.00     0.156 C
HETATM   29  C9  UNL     1      23.220  -1.571  24.380  1.00  0.00     0.274 C
HETATM   30  N2  UNL     1      24.236  -0.587  24.709  1.00  0.00     0.100 N
HETATM   31  C10 UNL     1      24.488   0.197  23.547  1.00  0.00     0.309 C
HETATM   32  C12 UNL     1      23.498  -0.769  26.996  1.00  0.00     0.049 C
HETATM   33  C13 UNL     1      24.394   1.355  26.223  1.00  0.00     0.049 C
ENDBRANCH   5  24
TORSDOF 5
ENDMDL