MODEL 4
REMARK VINA RESULT: -5.448651943      6.806      8.180
REMARK  0 active torsions:
REMARK  status: ('A' for Active; 'I' for Inactive)
ROOT
HETATM    1  O1  UNL     1      27.064   0.335  24.748  1.00  0.00    -0.295 OA
HETATM    2  C1  UNL     1      26.043   0.387  24.111  1.00  0.00     0.159 C
HETATM    3  C2  UNL     1      24.712   0.637  24.697  1.00  0.00     0.081 C
HETATM    4  C3  UNL     1      23.816  -0.118  23.738  1.00  0.00     0.016 C
HETATM    5  C4  UNL     1      24.404  -0.029  22.387  1.00  0.00     0.038 C
HETATM    6  C5  UNL     1      25.858   0.226  22.656  1.00  0.00     0.234 C
HETATM    7  O2  UNL     1      26.369   1.318  21.952  1.00  0.00    -0.227 OA
HETATM    8  O3  UNL     1      26.009   1.062  20.689  1.00  0.00    -0.224 OA
HETATM    9  C6  UNL     1      24.736   1.690  20.582  1.00  0.00     0.150 C
HETATM   10  C7  UNL     1      24.401   1.442  19.113  1.00  0.00     0.210 C
HETATM   11  F1  UNL     1      25.551   1.515  18.335  1.00  0.00    -0.246 F
HETATM   12  C8  UNL     1      23.949  -0.002  19.189  1.00  0.00     0.041 C
HETATM   13  C9  UNL     1      22.986   0.126  20.377  1.00  0.00     0.017 C
HETATM   14  C10 UNL     1      23.768   0.945  21.426  1.00  0.00     0.018 C
HETATM   15  C11 UNL     1      22.693   1.797  22.060  1.00  0.00     0.071 C
HETATM   16 BR1  UNL     1      20.934   0.948  21.924  1.00  0.00    -0.090 Br
HETATM   17  C12 UNL     1      22.617   3.198  21.434  1.00  0.00     0.034 C
HETATM   18  C13 UNL     1      23.956   3.804  21.714  1.00  0.00     0.076 C
HETATM   19 BR2  UNL     1      23.997   5.709  21.467  1.00  0.00    -0.090 Br
HETATM   20  C14 UNL     1      24.962   3.116  20.874  1.00  0.00     0.114 C
HETATM   21 BR3  UNL     1      25.019   4.062  19.160  1.00  0.00    -0.087 Br
ENDROOT
TORSDOF 0
ENDMDL