MODEL 4
REMARK VINA RESULT: -7.657723032      0.965      1.210
REMARK  4 active torsions:
REMARK  status: ('A' for Active; 'I' for Inactive)
REMARK    1  A    between atoms: N1_11  and  C8_12
REMARK    2  A    between atoms: C8_12  and  O3_13
REMARK    3  A    between atoms: C8_12  and  N2_15
REMARK    4  A    between atoms: C21_29  and  C22_31
ROOT
HETATM    1  C1  UNL     1      29.109   0.280  16.575  1.00  0.00     0.044 C
HETATM    2  C2  UNL     1      27.781   0.203  17.298  1.00  0.00     0.176 C
HETATM    3  O1  UNL     1      27.162   1.473  17.303  1.00  0.00    -0.312 OA
HETATM    4  C3  UNL     1      26.944   2.269  18.408  1.00  0.00     0.268 C
HETATM    5  O2  UNL     1      25.967   3.059  18.356  1.00  0.00    -0.264 OA
HETATM    6  C4  UNL     1      27.755   2.278  19.645  1.00  0.00     0.185 C
HETATM    7  S1  UNL     1      26.827   1.841  21.135  1.00  0.00    -0.152 SA
HETATM    8  C5  UNL     1      25.105   1.481  20.837  1.00  0.00     0.082 C
HETATM    9  C6  UNL     1      24.322   2.724  21.312  1.00  0.00     0.037 C
HETATM   10  C7  UNL     1      22.878   2.513  20.839  1.00  0.00     0.127 C
HETATM   11  N1  UNL     1      22.416   1.347  21.501  1.00  0.00    -0.345 N
HETATM   12  C13 UNL     1      23.132   0.093  21.118  1.00  0.00     0.161 C
HETATM   13  C14 UNL     1      24.554   0.340  21.646  1.00  0.00     0.221 C
HETATM   14  N3  UNL     1      25.343  -0.834  21.726  1.00  0.00    -0.068 N
HETATM   15  C15 UNL     1      24.458  -1.962  22.062  1.00  0.00     0.272 C
HETATM   16  C16 UNL     1      26.197  -0.698  22.925  1.00  0.00     0.272 C
HETATM   17  C17 UNL     1      26.199  -1.098  20.636  1.00  0.00     0.237 C
HETATM   18  C18 UNL     1      26.136  -2.444  20.014  1.00  0.00     0.028 C
HETATM   19  C19 UNL     1      25.757  -2.388  18.521  1.00  0.00     0.005 C
HETATM   20  C20 UNL     1      26.954  -2.134  17.668  1.00  0.00     0.056 C
HETATM   21  C21 UNL     1      26.872  -0.876  16.831  1.00  0.00     0.226 C
HETATM   22  F1  UNL     1      25.568  -0.357  16.907  1.00  0.00    -0.231 F
ENDROOT
BRANCH  11  23
HETATM   23  C8  UNL     1      21.403   1.264  22.448  1.00  0.00     0.217 C
BRANCH  23  24
HETATM   24  O3  UNL     1      20.230   0.802  22.023  1.00  0.00    -0.333 OA
ATOM     25  H3  UNL     1      19.510   0.841  22.642  1.00  0.00     0.220 HD
ENDBRANCH  23  24
BRANCH  23  26
HETATM   26  N2  UNL     1      21.375   1.581  23.804  1.00  0.00    -0.348 N
HETATM   27  C9  UNL     1      22.351   1.031  24.784  1.00  0.00     0.126 C
HETATM   28  C10 UNL     1      21.581   1.064  26.102  1.00  0.00     0.021 C
HETATM   29  C11 UNL     1      20.921   2.413  25.991  1.00  0.00     0.021 C
HETATM   30  C12 UNL     1      20.491   2.439  24.529  1.00  0.00     0.126 C
ENDBRANCH  23  26
ENDBRANCH  11  23
BRANCH  21  31
HETATM   31  C22 UNL     1      27.042  -1.293  15.393  1.00  0.00     0.425 C
HETATM   32  F2  UNL     1      28.112  -2.138  15.179  1.00  0.00    -0.167 F
HETATM   33  F3  UNL     1      27.080  -0.204  14.541  1.00  0.00    -0.167 F
HETATM   34  F4  UNL     1      25.909  -2.022  15.003  1.00  0.00    -0.167 F
ENDBRANCH  21  31
TORSDOF 4
ENDMDL