MODEL 5
REMARK VINA RESULT: -6.735462806      4.379      6.523
REMARK  1 active torsions:
REMARK  status: ('A' for Active; 'I' for Inactive)
REMARK    1  A    between atoms: C26_32  and  O2_33
ROOT
HETATM    1  C1  UNL     1      21.488  -0.893  27.961  1.00  0.00     0.314 C
HETATM    2  N1  UNL     1      22.324   0.077  27.312  1.00  0.00     0.120 N
HETATM    3  C2  UNL     1      21.723   1.369  27.191  1.00  0.00     0.277 C
HETATM    4  C3  UNL     1      22.561   2.002  26.098  1.00  0.00     0.044 C
HETATM    5  C4  UNL     1      22.808   0.855  25.127  1.00  0.00     0.083 C
HETATM    6  C5  UNL     1      24.100   1.096  24.322  1.00  0.00    -0.063 C
HETATM    7  C6  UNL     1      23.981   2.208  23.628  1.00  0.00    -0.022 C
HETATM    8  C7  UNL     1      24.877   2.944  22.682  1.00  0.00     0.034 C
HETATM    9  C8  UNL     1      25.059   2.293  21.404  1.00  0.00     0.025 C
HETATM   10  C9  UNL     1      26.433   1.788  21.304  1.00  0.00     0.023 C
HETATM   11  C10 UNL     1      27.497   2.324  20.439  1.00  0.00     0.009 C
HETATM   12  C11 UNL     1      27.642   1.354  19.227  1.00  0.00     0.020 C
HETATM   13  C12 UNL     1      26.225   0.976  19.266  1.00  0.00     0.043 C
HETATM   14  C13 UNL     1      25.538   2.336  19.054  1.00  0.00     0.052 C
HETATM   15  C14 UNL     1      24.501   2.668  20.096  1.00  0.00     0.112 C
HETATM   16 CL1  UNL     1      24.358   4.455  20.077  1.00  0.00    -0.112 Cl
HETATM   17  C15 UNL     1      23.231   1.978  19.670  1.00  0.00     0.283 C
HETATM   18  F1  UNL     1      22.529   1.495  20.796  1.00  0.00    -0.200 F
HETATM   19  F2  UNL     1      22.370   3.041  19.290  1.00  0.00    -0.200 F
HETATM   20  C16 UNL     1      23.190   1.063  18.548  1.00  0.00     0.055 C
HETATM   21  C17 UNL     1      24.254   0.150  18.164  1.00  0.00     0.040 C
HETATM   22  C18 UNL     1      25.563   0.033  18.417  1.00  0.00     0.105 C
HETATM   23  F3  UNL     1      26.227  -0.999  17.841  1.00  0.00    -0.210 F
HETATM   24  C19 UNL     1      26.157   0.450  20.639  1.00  0.00     0.147 C
HETATM   25  O1  UNL     1      26.882  -0.381  21.301  1.00  0.00    -0.356 OA
HETATM   26  C20 UNL     1      26.096  -0.892  22.377  1.00  0.00     0.132 C
HETATM   27  C21 UNL     1      26.240  -0.315  23.699  1.00  0.00     0.011 C
HETATM   28  C22 UNL     1      25.090   0.078  24.531  1.00  0.00    -0.001 C
HETATM   29  C23 UNL     1      25.791   0.252  25.920  1.00  0.00     0.024 C
HETATM   30  C24 UNL     1      24.314  -1.266  24.620  1.00  0.00     0.023 C
HETATM   31  C25 UNL     1      23.734  -1.320  25.991  1.00  0.00     0.073 C
HETATM   32  C26 UNL     1      22.633  -0.305  25.929  1.00  0.00     0.265 C
ENDROOT
BRANCH  32  33
HETATM   33  O2  UNL     1      21.483  -1.065  25.566  1.00  0.00    -0.362 OA
ATOM     34  H2  UNL     1      21.815  -1.954  25.597  1.00  0.00     0.212 HD
ENDBRANCH  32  33
TORSDOF 1
ENDMDL