MODEL 1
REMARK VINA RESULT: -7.999181132      0.000      0.000
REMARK  0 active torsions:
REMARK  status: ('A' for Active; 'I' for Inactive)
ROOT
HETATM    1  C1  UNL     1      27.344   0.212  19.062  1.00  0.00     0.154 C
HETATM    2  N1  UNL     1      26.221   0.589  19.890  1.00  0.00    -0.371 N
HETATM    3  C2  UNL     1      25.044  -0.180  19.447  1.00  0.00     0.086 C
HETATM    4  C3  UNL     1      23.729  -0.029  19.675  1.00  0.00     0.000 C
HETATM    5  C4  UNL     1      23.172   1.073  20.509  1.00  0.00    -0.017 C
HETATM    6  C5  UNL     1      23.140   2.174  19.588  1.00  0.00     0.057 C
HETATM    7  C6  UNL     1      23.596   3.544  19.702  1.00  0.00     0.246 C
HETATM    8  F1  UNL     1      24.650   3.908  18.813  1.00  0.00    -0.243 F
HETATM    9  C7  UNL     1      23.986   4.111  20.993  1.00  0.00     0.311 C
HETATM   10  F2  UNL     1      23.144   5.241  21.251  1.00  0.00    -0.199 F
HETATM   11  F3  UNL     1      25.209   4.784  21.016  1.00  0.00    -0.199 F
HETATM   12  C8  UNL     1      23.702   3.274  22.166  1.00  0.00     0.196 C
HETATM   13  F4  UNL     1      24.040   4.156  23.220  1.00  0.00    -0.234 F
HETATM   14  C9  UNL     1      22.200   3.147  22.207  1.00  0.00     0.113 C
HETATM   15 BR1  UNL     1      21.388   4.461  23.408  1.00  0.00    -0.087 Br
HETATM   16  C10 UNL     1      21.768   1.740  22.457  1.00  0.00    -0.022 C
HETATM   17  C11 UNL     1      20.259   1.816  22.757  1.00  0.00     0.017 C
HETATM   18  C12 UNL     1      21.804   0.904  21.154  1.00  0.00     0.024 C
HETATM   19  C13 UNL     1      22.454   1.246  23.651  1.00  0.00     0.008 C
HETATM   20  C14 UNL     1      21.804   1.632  24.985  1.00  0.00     0.084 C
HETATM   21  C15 UNL     1      22.571   0.796  26.007  1.00  0.00     0.128 C
HETATM   22  O1  UNL     1      21.964   0.072  26.777  1.00  0.00    -0.298 OA
HETATM   23  C16 UNL     1      24.036   0.857  26.068  1.00  0.00     0.098 C
HETATM   24  C17 UNL     1      24.700   0.780  24.675  1.00  0.00     0.105 C
HETATM   25  C18 UNL     1      24.926  -0.582  24.376  1.00  0.00     0.064 C
HETATM   26  N2  UNL     1      25.110  -1.691  24.155  1.00  0.00    -0.197 NA
HETATM   27  C19 UNL     1      23.939   1.647  23.805  1.00  0.00     0.025 C
HETATM   28  C20 UNL     1      24.418   1.965  22.395  1.00  0.00     0.028 C
HETATM   29  C21 UNL     1      25.871   1.967  22.094  1.00  0.00     0.004 C
HETATM   30  C22 UNL     1      26.509   1.554  20.891  1.00  0.00     0.087 C
HETATM   31  C23 UNL     1      23.932   0.802  21.726  1.00  0.00     0.031 C
ENDROOT
TORSDOF 0
ENDMDL