MODEL 3
REMARK VINA RESULT: -6.295625903      5.297      6.649
REMARK  0 active torsions:
REMARK  status: ('A' for Active; 'I' for Inactive)
ROOT
HETATM    1  N1  UNL     1      24.246   1.077  24.627  1.00  0.00    -0.194 NA
HETATM    2  C1  UNL     1      24.115   1.920  23.850  1.00  0.00     0.093 C
HETATM    3  C2  UNL     1      23.935   3.004  22.851  1.00  0.00     0.254 C
HETATM    4  O1  UNL     1      22.592   3.148  22.493  1.00  0.00    -0.300 OA
HETATM    5  C3  UNL     1      21.602   3.701  23.250  1.00  0.00     0.260 C
HETATM    6  O2  UNL     1      20.450   3.161  23.285  1.00  0.00    -0.265 OA
HETATM    7  C4  UNL     1      21.748   4.931  24.076  1.00  0.00     0.111 C
HETATM    8  C5  UNL     1      20.964   6.086  23.491  1.00  0.00     0.010 C
HETATM    9  C6  UNL     1      21.843   7.023  22.688  1.00  0.00     0.003 C
HETATM   10  C7  UNL     1      21.812   6.608  21.218  1.00  0.00     0.039 C
HETATM   11  C8  UNL     1      23.113   6.913  20.526  1.00  0.00     0.188 C
HETATM   12  F1  UNL     1      24.094   7.194  21.482  1.00  0.00    -0.248 F
HETATM   13  C9  UNL     1      23.633   5.687  19.761  1.00  0.00     0.118 C
HETATM   14 CL1  UNL     1      24.604   6.352  18.405  1.00  0.00    -0.122 Cl
HETATM   15  C10 UNL     1      24.498   4.856  20.655  1.00  0.00     0.057 C
HETATM   16  C11 UNL     1      24.406   3.389  20.413  1.00  0.00     0.093 C
HETATM   17 BR1  UNL     1      25.759   2.939  19.073  1.00  0.00    -0.071 Br
HETATM   18 BR2  UNL     1      22.696   2.869  19.646  1.00  0.00    -0.071 Br
HETATM   19  C12 UNL     1      24.680   2.538  21.610  1.00  0.00     0.131 C
HETATM   20 BR3  UNL     1      24.032   0.742  21.196  1.00  0.00    -0.085 Br
ENDROOT
TORSDOF 0
ENDMDL