MODEL 2
REMARK VINA RESULT: -7.724395682      0.156      1.152
REMARK  1 active torsions:
REMARK  status: ('A' for Active; 'I' for Inactive)
REMARK    1  A    between atoms: C13_17  and  C14_18
ROOT
HETATM    1  O1  UNL     1      22.819   5.316  21.904  1.00  0.00    -0.294 OA
HETATM    2  C1  UNL     1      22.705   4.882  20.779  1.00  0.00     0.177 C
HETATM    3  C2  UNL     1      22.769   5.979  19.733  1.00  0.00     0.099 C
HETATM    4  C3  UNL     1      22.270   7.176  20.434  1.00  0.00     0.181 C
HETATM    5  F1  UNL     1      23.387   7.845  20.961  1.00  0.00    -0.249 F
HETATM    6  C4  UNL     1      21.525   8.238  19.579  1.00  0.00     0.038 C
HETATM    7  C5  UNL     1      22.303   8.231  18.375  1.00  0.00     0.003 C
HETATM    8  C6  UNL     1      22.408   8.991  17.160  1.00  0.00     0.000 C
HETATM    9  C7  UNL     1      23.474   8.176  16.379  1.00  0.00     0.000 C
HETATM   10  C8  UNL     1      24.554   7.544  17.208  1.00  0.00     0.000 C
HETATM   11  C9  UNL     1      24.363   6.175  17.721  1.00  0.00     0.007 C
HETATM   12  C10 UNL     1      24.168   5.941  19.207  1.00  0.00     0.024 C
HETATM   13  C11 UNL     1      25.017   4.780  19.705  1.00  0.00     0.176 C
HETATM   14  O2  UNL     1      24.531   3.555  19.861  1.00  0.00    -0.357 OA
HETATM   15  C12 UNL     1      23.347   3.168  19.387  1.00  0.00     0.307 A
HETATM   16  O3  UNL     1      22.206   2.637  19.702  1.00  0.00    -0.330 OA
HETATM   17  C13 UNL     1      22.534   3.429  20.692  1.00  0.00     0.211 A
ENDROOT
BRANCH  17  18
HETATM   18  C14 UNL     1      22.813   2.649  21.925  1.00  0.00     0.175 C
HETATM   19 BR1  UNL     1      21.560   2.730  23.330  1.00  0.00    -0.056 Br
HETATM   20 BR2  UNL     1      22.916   0.779  21.332  1.00  0.00    -0.056 Br
HETATM   21 BR3  UNL     1      24.578   3.012  22.676  1.00  0.00    -0.056 Br
ENDBRANCH  17  18
TORSDOF 1
ENDMDL