MODEL 3
REMARK VINA RESULT: -3.870531374      3.471      6.794
REMARK  2 active torsions:
REMARK  status: ('A' for Active; 'I' for Inactive)
REMARK    1  A    between atoms: C19_22  and  C20_24
REMARK    2  A    between atoms: C22_27  and  C23_28
ROOT
HETATM    1  C1  UNL     1      22.647  -1.576  23.980  1.00  0.00     0.011 C
HETATM    2  C2  UNL     1      24.052  -1.244  23.721  1.00  0.00     0.001 C
HETATM    3  C3  UNL     1      24.680  -1.045  25.069  1.00  0.00     0.015 C
HETATM    4  C4  UNL     1      25.499   0.043  24.337  1.00  0.00    -0.030 C
HETATM    5  C5  UNL     1      26.865  -0.534  24.226  1.00  0.00     0.016 C
HETATM    6  C6  UNL     1      25.623   1.185  25.360  1.00  0.00     0.016 C
HETATM    7  C7  UNL     1      24.519   0.128  23.271  1.00  0.00     0.055 C
HETATM    8  C8  UNL     1      23.377   1.074  23.567  1.00  0.00     0.153 C
HETATM    9  O1  UNL     1      23.167   1.274  24.781  1.00  0.00    -0.296 OA
HETATM   10  C9  UNL     1      22.430   1.838  22.780  1.00  0.00     0.167 C
HETATM   11  C10 UNL     1      21.457   0.959  22.014  1.00  0.00     0.149 C
HETATM   12  O2  UNL     1      20.364   0.466  22.211  1.00  0.00    -0.296 OA
HETATM   13  C11 UNL     1      22.524   1.033  20.950  1.00  0.00     0.105 C
HETATM   14  C12 UNL     1      23.532  -0.004  20.929  1.00  0.00     0.043 C
HETATM   15  C13 UNL     1      24.138  -0.090  19.594  1.00  0.00     0.029 C
HETATM   16  C14 UNL     1      23.358   0.584  18.492  1.00  0.00     0.024 C
HETATM   17  C15 UNL     1      24.531  -1.285  18.884  1.00  0.00     0.136 C
HETATM   18  O3  UNL     1      24.162  -2.413  18.955  1.00  0.00    -0.297 OA
HETATM   19  C16 UNL     1      25.592  -0.782  17.945  1.00  0.00     0.079 C
HETATM   20  C17 UNL     1      25.886   0.672  18.449  1.00  0.00     0.015 C
HETATM   21  C18 UNL     1      25.550   0.423  19.787  1.00  0.00     0.029 C
HETATM   22  C19 UNL     1      25.491   1.144  21.054  1.00  0.00     0.086 C
HETATM   23 CL1  UNL     1      27.240   1.353  21.517  1.00  0.00    -0.115 Cl
HETATM   24  C23 UNL     1      22.720   2.396  21.449  1.00  0.00     0.137 C
HETATM   25  F1  UNL     1      21.540   3.123  21.081  1.00  0.00    -0.240 F
HETATM   26  C24 UNL     1      24.752   0.172  21.835  1.00  0.00     0.082 C
HETATM   27 CL3  UNL     1      25.435  -1.502  21.492  1.00  0.00    -0.115 Cl
ENDROOT
BRANCH  22  28
HETATM   28  C20 UNL     1      25.152   2.529  20.826  1.00  0.00     0.068 A
HETATM   29 CL2  UNL     1      24.624   2.743  19.097  1.00  0.00    -0.117 Cl
HETATM   30  C21 UNL     1      26.074   3.699  21.204  1.00  0.00     0.038 A
HETATM   31  C22 UNL     1      24.765   3.493  21.810  1.00  0.00     0.055 A
ENDBRANCH  22  28
TORSDOF 2
ENDMDL