MODEL 5
REMARK VINA RESULT: -7.733537545      3.386      7.599
REMARK  1 active torsions:
REMARK  status: ('A' for Active; 'I' for Inactive)
REMARK    1  A    between atoms: C2_2  and  C3_4
ROOT
HETATM    1  C3  UNL     1      23.208   2.863  21.950  1.00  0.00     0.009 A
HETATM    2  C4  UNL     1      23.628   4.001  21.292  1.00  0.00     0.047 A
HETATM    3 CL2  UNL     1      24.840   4.066  20.008  1.00  0.00    -0.083 Cl
HETATM    4  C5  UNL     1      23.074   5.196  21.680  1.00  0.00     0.036 A
HETATM    5  C6  UNL     1      22.111   5.366  22.692  1.00  0.00    -0.038 A
HETATM    6  C7  UNL     1      21.710   4.224  23.332  1.00  0.00     0.019 A
HETATM    7  C8  UNL     1      22.231   3.003  22.992  1.00  0.00    -0.044 A
HETATM    8  C9  UNL     1      22.011   1.680  23.639  1.00  0.00     0.041 C
HETATM    9  C10 UNL     1      21.312   1.571  24.971  1.00  0.00     0.031 C
HETATM   10  C11 UNL     1      22.073   2.389  26.000  1.00  0.00     0.169 C
HETATM   11  O1  UNL     1      21.216   3.140  26.762  1.00  0.00    -0.380 OA
HETATM   12  C12 UNL     1      21.569   3.253  28.101  1.00  0.00     0.066 C
HETATM   13  C13 UNL     1      23.019   3.608  28.283  1.00  0.00     0.046 C
HETATM   14  C14 UNL     1      21.238   1.910  28.732  1.00  0.00     0.046 C
HETATM   15  C15 UNL     1      20.662   4.268  28.736  1.00  0.00     0.177 C
HETATM   16  S1  UNL     1      21.109   5.944  28.369  1.00  0.00     0.148 S
HETATM   17  O2  UNL     1      19.997   6.809  28.949  1.00  0.00    -0.228 OA
HETATM   18  O3  UNL     1      22.404   6.316  29.018  1.00  0.00    -0.228 OA
HETATM   19  C16 UNL     1      21.171   6.211  26.618  1.00  0.00     0.162 C
HETATM   20  C17 UNL     1      20.878   7.625  26.213  1.00  0.00     0.114 C
HETATM   21 CL3  UNL     1      21.493   8.777  27.423  1.00  0.00    -0.122 Cl
HETATM   22  C18 UNL     1      21.579   7.977  24.895  1.00  0.00     0.105 C
HETATM   23 CL4  UNL     1      21.551   9.743  24.748  1.00  0.00    -0.123 Cl
HETATM   24  C19 UNL     1      20.877   7.399  23.696  1.00  0.00     0.049 C
HETATM   25  C20 UNL     1      21.800   6.646  22.822  1.00  0.00    -0.014 C
ENDROOT
BRANCH   1  26
HETATM   26  C2  UNL     1      23.686   1.699  21.544  1.00  0.00     0.020 C
HETATM   27  C1  UNL     1      25.026   1.222  22.003  1.00  0.00     0.062 C
HETATM   28 CL1  UNL     1      22.955   0.555  20.403  1.00  0.00    -0.088 Cl
ENDBRANCH   1  26
TORSDOF 1
ENDMDL