MODEL 4
REMARK VINA RESULT: -3.595817926      6.220      8.884
REMARK  4 active torsions:
REMARK  status: ('A' for Active; 'I' for Inactive)
REMARK    1  A    between atoms: C2_2  and  C3_3
REMARK    2  A    between atoms: C3_3  and  N1_4
REMARK       I    between atoms: N1_4  and  C4_6
REMARK       I    between atoms: C4_6  and  N4_11
REMARK    3  A    between atoms: C7_16  and  O1_17
REMARK    4  A    between atoms: C9_20  and  C10_21
ROOT
HETATM    1  N1  UNL     1      24.137   8.711  23.374  1.00  0.00    -0.225 N
ATOM      2  H1  UNL     1      24.663   8.844  22.509  1.00  0.00     0.177 HD
HETATM    3  C4  UNL     1      23.186   7.667  23.450  1.00  0.00     0.688 C
HETATM    4  N2  UNL     1      22.221   7.505  22.619  1.00  0.00    -0.126 N
ATOM      5  H2  UNL     1      21.564   6.732  22.722  1.00  0.00     0.197 HD
HETATM    6  C5  UNL     1      22.098   8.418  21.568  1.00  0.00     0.196 C
HETATM    7  N3  UNL     1      21.975   9.180  20.685  1.00  0.00    -0.171 NA
HETATM    8  N4  UNL     1      23.297   6.729  24.508  1.00  0.00    -0.178 N
ATOM      9  H4  UNL     1      22.537   6.614  25.180  1.00  0.00     0.185 HD
HETATM   10  C6  UNL     1      24.368   6.026  24.608  1.00  0.00     0.123 C
HETATM   11  N5  UNL     1      25.499   6.086  23.742  1.00  0.00    -0.331 N
ATOM     12  H5  UNL     1      25.537   6.625  22.877  1.00  0.00     0.165 HD
HETATM   13  C7  UNL     1      26.587   5.278  24.254  1.00  0.00     0.229 C
HETATM   14  C8  UNL     1      26.212   5.209  25.741  1.00  0.00     0.118 C
HETATM   15  C9  UNL     1      24.720   4.988  25.612  1.00  0.00     0.115 C
HETATM   16  N6  UNL     1      24.483   3.699  25.033  1.00  0.00    -0.111 NA
HETATM   17  N7  UNL     1      25.028   3.693  23.756  1.00  0.00    -0.034 NA
HETATM   18  N8  UNL     1      26.400   3.938  23.738  1.00  0.00    -0.070 NA
ENDROOT
BRANCH   1  19
HETATM   19  C3  UNL     1      24.382   9.595  24.490  1.00  0.00     0.137 C
BRANCH  19  20
HETATM   20  C2  UNL     1      24.635  11.004  23.974  1.00  0.00     0.016 C
HETATM   21  C1  UNL     1      23.517  11.454  23.064  1.00  0.00     0.006 C
ENDBRANCH  19  20
ENDBRANCH   1  19
BRANCH  15  22
HETATM   22  C10 UNL     1      23.988   5.114  26.902  1.00  0.00     0.011 C
HETATM   23  C11 UNL     1      22.903   4.090  26.957  1.00  0.00     0.012 C
HETATM   24  C12 UNL     1      24.838   4.989  28.122  1.00  0.00     0.012 C
ENDBRANCH  15  22
BRANCH  13  25
HETATM   25  O1  UNL     1      27.822   5.812  24.035  1.00  0.00    -0.356 OA
ATOM     26  H1  UNL     1      28.152   6.326  24.762  1.00  0.00     0.214 HD
ENDBRANCH  13  25
TORSDOF 4
ENDMDL