MODEL 1
REMARK VINA RESULT: -7.525553898      0.000      0.000
REMARK  7 active torsions:
REMARK  status: ('A' for Active; 'I' for Inactive)
REMARK    1  A    between atoms: C2_2  and  C11_22
REMARK    2  A    between atoms: N1_3  and  N2_5
REMARK       I    between atoms: N2_5  and  C3_7
REMARK       I    between atoms: C3_7  and  N3_9
REMARK    3  A    between atoms: N3_9  and  N4_11
REMARK    4  A    between atoms: N4_11  and  C4_13
REMARK    5  A    between atoms: C4_13  and  C5_15
REMARK    6  A    between atoms: C11_22  and  O2_23
REMARK    7  A    between atoms: N6_25  and  O3_27
ROOT
HETATM    1  N2  UNL     1      24.247   9.989  24.220  1.00  0.00    -0.250 N
ATOM      2  H2  UNL     1      24.560  10.130  25.180  1.00  0.00     0.192 HD
HETATM    3  C3  UNL     1      24.103   8.689  23.664  1.00  0.00     0.353 C
HETATM    4  O1  UNL     1      23.715   8.536  22.469  1.00  0.00    -0.244 OA
HETATM    5  N3  UNL     1      24.398   7.566  24.464  1.00  0.00    -0.249 N
ATOM      6  H3  UNL     1      24.714   7.665  25.428  1.00  0.00     0.192 HD
ENDROOT
BRANCH   1   7
HETATM    7  N1  UNL     1      23.941  11.050  23.394  1.00  0.00    -0.297 N
HETATM    8  C2  UNL     1      24.188  12.261  23.736  1.00  0.00     0.074 C
HETATM    9  C1  UNL     1      24.814  12.620  25.027  1.00  0.00     0.074 C
ATOM     10  H1  UNL     1      23.506  10.867  22.489  1.00  0.00     0.187 HD
BRANCH   8  11
HETATM   11  C11 UNL     1      23.836  13.353  22.789  1.00  0.00     0.184 C
HETATM   12  N6  UNL     1      24.393  13.570  21.699  1.00  0.00    -0.246 N
ATOM     13  H6  UNL     1      24.046  14.357  21.150  1.00  0.00     0.196 HD
BRANCH  11  14
HETATM   14  O2  UNL     1      22.776  14.223  23.160  1.00  0.00    -0.343 OA
ATOM     15  H2  UNL     1      22.791  14.578  24.041  1.00  0.00     0.219 HD
ENDBRANCH  11  14
BRANCH  12  16
HETATM   16  O3  UNL     1      25.413  12.862  21.174  1.00  0.00    -0.288 OA
ATOM     17  H3  UNL     1      26.267  13.204  20.936  1.00  0.00     0.244 HD
ENDBRANCH  12  16
ENDBRANCH   8  11
ENDBRANCH   1   7
BRANCH   5  18
HETATM   18  N4  UNL     1      24.233   6.300  23.868  1.00  0.00    -0.286 N
ATOM     19  H4  UNL     1      23.870   6.209  22.920  1.00  0.00     0.188 HD
BRANCH  18  20
HETATM   20  C4  UNL     1      24.585   5.162  24.620  1.00  0.00     0.125 C
HETATM   21  S1  UNL     1      26.019   4.428  24.405  1.00  0.00    -0.058 SA
BRANCH  20  22
HETATM   22  C5  UNL     1      23.638   4.646  25.598  1.00  0.00     0.003 A
HETATM   23  C6  UNL     1      22.500   3.985  25.191  1.00  0.00     0.016 A
HETATM   24  C7  UNL     1      21.600   3.515  26.116  1.00  0.00     0.027 A
HETATM   25  C8  UNL     1      21.795   3.682  27.476  1.00  0.00     0.046 A
HETATM   26  N5  UNL     1      20.829   3.179  28.387  1.00  0.00    -0.102 NA
HETATM   27  C9  UNL     1      22.938   4.345  27.850  1.00  0.00     0.027 A
HETATM   28  C10 UNL     1      23.859   4.828  26.951  1.00  0.00     0.016 A
ENDBRANCH  20  22
ENDBRANCH  18  20
ENDBRANCH   5  18
TORSDOF 7
ENDMDL