MODEL 4
REMARK VINA RESULT: -3.998168630      2.185      4.299
REMARK  4 active torsions:
REMARK  status: ('A' for Active; 'I' for Inactive)
REMARK    1  A    between atoms: N1_2  and  C3_4
REMARK    2  A    between atoms: C6_8  and  C7_9
REMARK    3  A    between atoms: C9_14  and  C10_15
REMARK    4  A    between atoms: C11_22  and  N7_23
ROOT
HETATM    1  C3  UNL     1      28.251  14.551  22.636  1.00  0.00     0.069 A
HETATM    2  C4  UNL     1      27.063  14.245  21.943  1.00  0.00     0.074 A
HETATM    3  N2  UNL     1      27.090  14.026  20.542  1.00  0.00    -0.100 NA
HETATM    4  C5  UNL     1      25.852  14.148  22.574  1.00  0.00     0.047 A
HETATM    5  C6  UNL     1      25.828  14.364  23.949  1.00  0.00     0.049 A
HETATM    6  C8  UNL     1      26.991  14.662  24.623  1.00  0.00     0.038 A
HETATM    7  S1  UNL     1      27.016  14.937  26.306  1.00  0.00    -0.067 SA
HETATM    8  C9  UNL     1      28.563  15.289  26.917  1.00  0.00     0.117 A
HETATM    9  N6  UNL     1      29.498  15.295  25.996  1.00  0.00    -0.334 N
ATOM     10  H6  UNL     1      30.439  15.503  26.331  1.00  0.00     0.168 HD
HETATM   11  C11 UNL     1      29.397  15.068  24.682  1.00  0.00     0.113 A
HETATM   12  C12 UNL     1      28.241  14.766  23.991  1.00  0.00     0.054 A
ENDROOT
BRANCH   8  13
HETATM   13  C10 UNL     1      28.815  15.557  28.327  1.00  0.00     0.144 C
HETATM   14  N4  UNL     1      27.823  15.553  29.141  1.00  0.00    -0.385 N
ATOM     15  H42 UNL     1      26.890  15.361  28.776  1.00  0.00     0.157 HD
ATOM     16  H41 UNL     1      27.999  15.740  30.128  1.00  0.00     0.157 HD
HETATM   17  N5  UNL     1      30.105  15.823  28.832  1.00  0.00    -0.080 NA
ENDBRANCH   8  13
BRANCH  11  18
HETATM   18  N7  UNL     1      30.497  15.147  24.033  1.00  0.00    -0.385 N
ATOM     19  H72 UNL     1      31.205  14.429  24.183  1.00  0.00     0.157 HD
ATOM     20  H71 UNL     1      30.569  15.946  23.403  1.00  0.00     0.157 HD
ENDBRANCH  11  18
BRANCH   5  21
HETATM   21  C7  UNL     1      24.589  14.279  24.687  1.00  0.00     0.266 C
HETATM   22  N3  UNL     1      23.792  15.414  24.933  1.00  0.00    -0.057 NA
HETATM   23  O1  UNL     1      24.196  13.171  25.130  1.00  0.00    -0.271 OA
ENDBRANCH   5  21
BRANCH   1  24
HETATM   24  N1  UNL     1      29.387  14.606  21.816  1.00  0.00    -0.387 N
HETATM   25  C1  UNL     1      30.296  13.514  21.524  1.00  0.00     0.149 C
HETATM   26  C2  UNL     1      29.668  15.879  21.134  1.00  0.00     0.149 C
ENDBRANCH   1  24
TORSDOF 4
ENDMDL