MODEL 1
REMARK VINA RESULT: -9.735577313      0.000      0.000
REMARK  7 active torsions:
REMARK  status: ('A' for Active; 'I' for Inactive)
REMARK    1  A    between atoms: N1_1  and  C1_4
REMARK    2  A    between atoms: C1_4  and  C2_5
REMARK    3  A    between atoms: C1_4  and  N9_25
REMARK    4  A    between atoms: C2_5  and  N2_6
REMARK    5  A    between atoms: C4_12  and  N5_13
REMARK    6  A    between atoms: C5_18  and  N7_19
REMARK    7  A    between atoms: N9_25  and  N10_27
ROOT
HETATM    1  N2  UNL     1      24.827   4.225  25.997  1.00  0.00    -0.252 N
HETATM    2  N3  UNL     1      25.149   4.750  27.162  1.00  0.00    -0.238 N
ATOM      3  H3  UNL     1      26.077   5.105  27.395  1.00  0.00     0.208 HD
HETATM    4  N4  UNL     1      24.123   4.760  27.989  1.00  0.00    -0.279 N
ATOM      5  H4  UNL     1      24.133   5.118  28.944  1.00  0.00     0.189 HD
HETATM    6  C3  UNL     1      23.060   4.221  27.365  1.00  0.00     0.140 A
HETATM    7  C4  UNL     1      21.756   3.985  27.744  1.00  0.00     0.147 A
HETATM    8  N6  UNL     1      20.950   3.413  26.830  1.00  0.00    -0.175 N
ATOM      9  H6  UNL     1      19.977   3.220  27.066  1.00  0.00     0.186 HD
HETATM   10  C5  UNL     1      21.420   3.092  25.598  1.00  0.00     0.679 A
HETATM   11  N8  UNL     1      22.690   3.320  25.223  1.00  0.00    -0.173 N
ATOM     12  H8  UNL     1      23.008   3.065  24.288  1.00  0.00     0.186 HD
HETATM   13  C6  UNL     1      23.528   3.884  26.091  1.00  0.00     0.171 A
ENDROOT
BRANCH   1  14
HETATM   14  C2  UNL     1      25.682   4.035  24.817  1.00  0.00     0.229 C
BRANCH  14  15
HETATM   15  C1  UNL     1      26.276   5.336  24.443  1.00  0.00     0.109 C
BRANCH  15  16
HETATM   16  N1  UNL     1      27.461   5.622  24.852  1.00  0.00    -0.386 N
ATOM     17  H12 UNL     1      27.583   6.323  25.582  1.00  0.00     0.157 HD
ATOM     18  H11 UNL     1      28.258   5.140  24.436  1.00  0.00     0.157 HD
ENDBRANCH  15  16
BRANCH  15  19
HETATM   19  N9  UNL     1      25.577   6.262  23.655  1.00  0.00    -0.288 N
ATOM     20  H9  UNL     1      25.010   5.894  22.891  1.00  0.00     0.188 HD
BRANCH  19  21
HETATM   21  N10 UNL     1      25.596   7.631  23.830  1.00  0.00    -0.307 N
HETATM   22  C7  UNL     1      24.548   8.382  23.804  1.00  0.00     0.004 C
HETATM   23  C8  UNL     1      23.227   7.766  23.576  1.00  0.00     0.054 C
HETATM   24  C12 UNL     1      24.740   9.836  24.009  1.00  0.00     0.054 C
HETATM   25  C9  UNL     1      22.178   8.755  23.135  1.00  0.00     0.006 C
HETATM   26  C10 UNL     1      22.883   9.852  22.358  1.00  0.00     0.001 C
HETATM   27  C11 UNL     1      23.669  10.662  23.372  1.00  0.00     0.006 C
ATOM     28  H10 UNL     1      26.498   8.079  23.990  1.00  0.00     0.186 HD
ENDBRANCH  19  21
ENDBRANCH  15  19
ENDBRANCH  14  15
ENDBRANCH   1  14
BRANCH   7  29
HETATM   29  N5  UNL     1      21.322   4.295  28.918  1.00  0.00    -0.383 N
ATOM     30  H52 UNL     1      21.768   3.931  29.760  1.00  0.00     0.157 HD
ATOM     31  H51 UNL     1      20.521   4.912  29.050  1.00  0.00     0.157 HD
ENDBRANCH   7  29
BRANCH  10  32
HETATM   32  N7  UNL     1      20.598   2.547  24.768  1.00  0.00    -0.234 N
ATOM     33  H72 UNL     1      20.396   1.549  24.839  1.00  0.00     0.174 HD
ATOM     34  H71 UNL     1      20.174   3.145  24.059  1.00  0.00     0.174 HD
ENDBRANCH  10  32
TORSDOF 7
ENDMDL