MODEL 5
REMARK VINA RESULT: -4.328529794      7.821      9.906
REMARK  6 active torsions:
REMARK  status: ('A' for Active; 'I' for Inactive)
REMARK       I    between atoms: C2_2  and  N1_4
REMARK       I    between atoms: N1_4  and  C3_6
REMARK    1  A    between atoms: C3_6  and  C4_8
REMARK    2  A    between atoms: C6_10  and  O3_11
REMARK    3  A    between atoms: C7_13  and  O4_14
REMARK    4  A    between atoms: C8_16  and  O5_17
REMARK    5  A    between atoms: C9_19  and  N2_20
REMARK       I    between atoms: N2_20  and  C10_22
REMARK    6  A    between atoms: C10_22  and  C11_24
ROOT
HETATM    1  C4  UNL     1      27.527  14.641  22.900  1.00  0.00     0.064 A
HETATM    2  C5  UNL     1      28.149  14.420  21.671  1.00  0.00     0.059 A
HETATM    3  C6  UNL     1      29.489  14.601  21.506  1.00  0.00     0.102 A
HETATM    4  C7  UNL     1      30.253  15.016  22.593  1.00  0.00     0.134 A
HETATM    5  C8  UNL     1      29.638  15.233  23.801  1.00  0.00     0.130 A
HETATM    6  C9  UNL     1      28.288  15.051  23.968  1.00  0.00     0.087 A
ENDROOT
BRANCH   1   7
HETATM    7  C3  UNL     1      26.087  14.462  23.045  1.00  0.00     0.260 C
HETATM    8  N1  UNL     1      25.420  13.262  22.765  1.00  0.00    -0.294 N
HETATM    9  C2  UNL     1      24.034  13.035  22.886  1.00  0.00     0.220 C
ATOM     10  H1  UNL     1      25.990  12.479  22.444  1.00  0.00     0.172 HD
HETATM   11  C1  UNL     1      23.114  14.097  23.344  1.00  0.00     0.117 C
HETATM   12  O1  UNL     1      23.546  11.887  22.597  1.00  0.00    -0.274 OA
HETATM   13  O2  UNL     1      25.385  15.429  23.445  1.00  0.00    -0.267 OA
ENDBRANCH   1   7
BRANCH   6  14
HETATM   14  N2  UNL     1      27.722  15.267  25.232  1.00  0.00    -0.314 N
HETATM   15  C10 UNL     1      27.961  14.411  26.368  1.00  0.00     0.322 C
HETATM   16  O6  UNL     1      28.711  13.412  26.247  1.00  0.00    -0.261 OA
ATOM     17  H2  UNL     1      27.108  16.073  25.355  1.00  0.00     0.169 HD
BRANCH  15  18
HETATM   18  C11 UNL     1      27.356  14.681  27.637  1.00  0.00     0.270 C
HETATM   19  O7  UNL     1      27.051  15.857  28.031  1.00  0.00    -0.640 OA
HETATM   20  O8  UNL     1      27.058  13.666  28.532  1.00  0.00    -0.640 OA
ENDBRANCH  15  18
ENDBRANCH   6  14
BRANCH   3  21
HETATM   21  O3  UNL     1      30.121  14.382  20.281  1.00  0.00    -0.358 OA
ATOM     22  H3  UNL     1      29.631  14.211  19.485  1.00  0.00     0.217 HD
ENDBRANCH   3  21
BRANCH   5  23
HETATM   23  O5  UNL     1      30.378  15.644  24.886  1.00  0.00    -0.356 OA
ATOM     24  H5  UNL     1      30.446  16.569  25.092  1.00  0.00     0.218 HD
ENDBRANCH   5  23
BRANCH   4  25
HETATM   25  O4  UNL     1      31.596  15.186  22.382  1.00  0.00    -0.356 OA
ATOM     26  H4  UNL     1      32.051  15.787  22.961  1.00  0.00     0.218 HD
ENDBRANCH   4  25
TORSDOF 6
ENDMDL