MODEL 4
REMARK VINA RESULT: -8.028290164      2.685      4.837
REMARK  6 active torsions:
REMARK  status: ('A' for Active; 'I' for Inactive)
REMARK    1  A    between atoms: C3_5  and  N2_6
REMARK    2  A    between atoms: C4_11  and  N4_12
REMARK    3  A    between atoms: C5_15  and  C6_16
REMARK    4  A    between atoms: C6_16  and  N6_20
REMARK    5  A    between atoms: N6_20  and  N7_22
REMARK       I    between atoms: N7_22  and  C7_24
REMARK    6  A    between atoms: C7_24  and  C8_26
ROOT
HETATM    1  N1  UNL     1      23.990   3.351  26.104  1.00  0.00    -0.189 NA
HETATM    2  C1  UNL     1      24.847   3.901  25.543  1.00  0.00     0.126 C
HETATM    3  C2  UNL     1      25.965   4.545  24.871  1.00  0.00     0.176 A
HETATM    4  O1  UNL     1      27.022   3.828  24.638  1.00  0.00    -0.267 OA
HETATM    5  C3  UNL     1      28.115   4.274  24.049  1.00  0.00     0.224 A
HETATM    6  N3  UNL     1      28.163   5.545  23.653  1.00  0.00    -0.308 N
ATOM      7  H3  UNL     1      28.996   5.913  23.196  1.00  0.00     0.171 HD
HETATM    8  C4  UNL     1      27.070   6.354  23.870  1.00  0.00     0.119 A
HETATM    9  C5  UNL     1      25.905   5.869  24.501  1.00  0.00     0.097 A
ENDROOT
BRANCH   9  10
HETATM   10  C6  UNL     1      24.733   6.694  24.644  1.00  0.00     0.131 C
HETATM   11  N5  UNL     1      24.068   6.676  25.756  1.00  0.00    -0.384 N
ATOM     12  H52 UNL     1      24.390   6.019  26.467  1.00  0.00     0.157 HD
ATOM     13  H51 UNL     1      23.238   7.261  25.857  1.00  0.00     0.157 HD
BRANCH  10  14
HETATM   14  N6  UNL     1      24.285   7.609  23.654  1.00  0.00    -0.282 N
ATOM     15  H6  UNL     1      23.924   7.227  22.780  1.00  0.00     0.188 HD
BRANCH  14  16
HETATM   16  N7  UNL     1      24.307   8.992  23.800  1.00  0.00    -0.264 N
HETATM   17  C7  UNL     1      23.472   9.923  23.185  1.00  0.00     0.270 C
HETATM   18  O2  UNL     1      22.569   9.601  22.401  1.00  0.00    -0.266 OA
ATOM     19  H7  UNL     1      25.016   9.368  24.430  1.00  0.00     0.190 HD
BRANCH  17  20
HETATM   20  C8  UNL     1      23.663  11.370  23.484  1.00  0.00     0.033 A
HETATM   21  C9  UNL     1      23.062  12.337  22.709  1.00  0.00     0.017 A
HETATM   22  C10 UNL     1      23.255  13.676  22.986  1.00  0.00     0.001 A
HETATM   23  C11 UNL     1      24.038  14.091  24.019  1.00  0.00     0.000 A
HETATM   24  C12 UNL     1      24.658  13.149  24.818  1.00  0.00     0.001 A
HETATM   25  C13 UNL     1      24.453  11.804  24.530  1.00  0.00     0.017 A
ENDBRANCH  17  20
ENDBRANCH  14  16
ENDBRANCH  10  14
ENDBRANCH   9  10
BRANCH   5  26
HETATM   26  N2  UNL     1      29.063   3.434  23.896  1.00  0.00    -0.365 N
ATOM     27  H22 UNL     1      29.129   2.772  23.123  1.00  0.00     0.159 HD
ATOM     28  H21 UNL     1      29.795   3.439  24.607  1.00  0.00     0.159 HD
ENDBRANCH   5  26
BRANCH   8  29
HETATM   29  N4  UNL     1      27.170   7.534  23.480  1.00  0.00    -0.385 N
ATOM     30  H42 UNL     1      27.477   7.769  22.536  1.00  0.00     0.157 HD
ATOM     31  H41 UNL     1      26.926   8.255  24.158  1.00  0.00     0.157 HD
ENDBRANCH   8  29
TORSDOF 6
ENDMDL