MODEL 2
REMARK VINA RESULT: -6.990165612      1.930      2.591
REMARK  9 active torsions:
REMARK  status: ('A' for Active; 'I' for Inactive)
REMARK       I    between atoms: C1_2  and  N1_3
REMARK    1  A    between atoms: C1_2  and  C5_11
REMARK    2  A    between atoms: N1_3  and  C2_5
REMARK    3  A    between atoms: C5_11  and  N4_16
REMARK    4  A    between atoms: N3_12  and  O2_14
REMARK    5  A    between atoms: N4_16  and  C6_18
REMARK    6  A    between atoms: C6_18  and  C7_19
REMARK    7  A    between atoms: C6_18  and  C8_22
REMARK    8  A    between atoms: C8_22  and  O5_23
REMARK    9  A    between atoms: N5_25  and  O6_27
ROOT
HETATM    1  C5  UNL     1      24.973   5.024  24.356  1.00  0.00     0.191 C
HETATM    2  N3  UNL     1      25.197   4.620  23.150  1.00  0.00    -0.248 N
ATOM      3  H3  UNL     1      24.940   3.667  22.890  1.00  0.00     0.196 HD
ENDROOT
BRANCH   1   4
HETATM    4  C1  UNL     1      25.337   6.378  24.730  1.00  0.00     0.293 C
HETATM    5  O1  UNL     1      26.541   6.715  24.715  1.00  0.00    -0.264 OA
HETATM    6  N1  UNL     1      24.352   7.303  25.103  1.00  0.00    -0.300 N
ATOM      7  H1  UNL     1      23.987   7.276  26.055  1.00  0.00     0.171 HD
BRANCH   6   8
HETATM    8  C2  UNL     1      23.883   8.204  24.270  1.00  0.00     0.151 A
HETATM    9  N2  UNL     1      22.886   8.043  23.398  1.00  0.00    -0.346 N
HETATM   10  C3  UNL     1      22.547   9.046  22.644  1.00  0.00     0.097 A
ATOM     11  H2  UNL     1      22.398   7.150  23.325  1.00  0.00     0.167 HD
HETATM   12  C4  UNL     1      23.243  10.222  22.792  1.00  0.00     0.070 A
HETATM   13  S1  UNL     1      24.358   9.819  24.019  1.00  0.00    -0.064 SA
ENDBRANCH   6   8
ENDBRANCH   1   4
BRANCH   1  14
HETATM   14  N4  UNL     1      24.375   4.134  25.297  1.00  0.00    -0.349 N
ATOM     15  H4  UNL     1      24.703   3.170  25.340  1.00  0.00     0.162 HD
BRANCH  14  16
HETATM   16  C6  UNL     1      23.319   4.553  26.194  1.00  0.00     0.262 C
BRANCH  16  17
HETATM   17  C7  UNL     1      23.796   4.588  27.599  1.00  0.00     0.205 C
HETATM   18  O3  UNL     1      22.992   4.464  28.575  1.00  0.00    -0.646 OA
HETATM   19  O4  UNL     1      25.167   4.763  27.801  1.00  0.00    -0.646 OA
ENDBRANCH  16  17
BRANCH  16  20
HETATM   20  C8  UNL     1      22.178   3.597  26.151  1.00  0.00     0.169 C
HETATM   21  N5  UNL     1      21.416   3.554  25.123  1.00  0.00    -0.249 N
ATOM     22  H5  UNL     1      21.594   4.177  24.335  1.00  0.00     0.196 HD
BRANCH  20  23
HETATM   23  O5  UNL     1      21.992   2.775  27.260  1.00  0.00    -0.346 OA
ATOM     24  H5  UNL     1      22.633   2.834  27.958  1.00  0.00     0.219 HD
ENDBRANCH  20  23
BRANCH  21  25
HETATM   25  O6  UNL     1      20.360   2.674  25.075  1.00  0.00    -0.288 OA
ATOM     26  H6  UNL     1      19.487   2.981  24.862  1.00  0.00     0.244 HD
ENDBRANCH  21  25
ENDBRANCH  16  20
ENDBRANCH  14  16
ENDBRANCH   1  14
BRANCH   2  27
HETATM   27  O2  UNL     1      25.769   5.434  22.213  1.00  0.00    -0.288 OA
ATOM     28  H2  UNL     1      25.956   5.129  21.333  1.00  0.00     0.244 HD
ENDBRANCH   2  27
TORSDOF 9
ENDMDL