MODEL 4
REMARK VINA RESULT: -6.004896482      1.256      1.728
REMARK  6 active torsions:
REMARK  status: ('A' for Active; 'I' for Inactive)
REMARK    1  A    between atoms: N1_1  and  N2_4
REMARK    2  A    between atoms: N2_4  and  C1_6
REMARK    3  A    between atoms: C6_12  and  N4_13
REMARK    4  A    between atoms: N4_13  and  C7_15
REMARK    5  A    between atoms: C10_18  and  S1_19
REMARK    6  A    between atoms: S1_19  and  N5_20
ROOT
HETATM    1  C7  UNL     1      24.024   8.865  23.777  1.00  0.00     0.106 A
HETATM    2  C8  UNL     1      25.162   9.537  24.190  1.00  0.00     0.050 A
HETATM    3  C9  UNL     1      25.252  10.886  23.884  1.00  0.00     0.032 A
HETATM    4  C10 UNL     1      24.262  11.560  23.198  1.00  0.00     0.120 A
HETATM    5  C11 UNL     1      23.151  10.822  22.816  1.00  0.00     0.141 A
HETATM    6  N6  UNL     1      22.080  11.445  22.100  1.00  0.00    -0.081 NA
HETATM    7  N7  UNL     1      23.040   9.509  23.100  1.00  0.00    -0.330 N
ATOM      8  H7  UNL     1      22.210   8.995  22.805  1.00  0.00     0.168 HD
ENDROOT
BRANCH   1   9
HETATM    9  N4  UNL     1      23.866   7.620  24.019  1.00  0.00    -0.341 N
ATOM     10  H4  UNL     1      22.917   7.297  24.202  1.00  0.00     0.167 HD
BRANCH   9  11
HETATM   11  C6  UNL     1      24.886   6.663  24.055  1.00  0.00     0.062 A
HETATM   12  C1  UNL     1      24.983   5.803  25.143  1.00  0.00     0.076 A
HETATM   13  C2  UNL     1      26.008   4.865  25.142  1.00  0.00     0.059 A
HETATM   14  C3  UNL     1      26.920   4.760  24.115  1.00  0.00     0.048 A
HETATM   15  N3  UNL     1      27.964   3.800  24.124  1.00  0.00    -0.102 NA
HETATM   16  C4  UNL     1      26.788   5.643  23.043  1.00  0.00     0.029 A
HETATM   17  C5  UNL     1      25.783   6.587  23.008  1.00  0.00     0.034 A
BRANCH  12  18
HETATM   18  N2  UNL     1      24.058   5.883  26.220  1.00  0.00    -0.305 N
ATOM     19  H2  UNL     1      23.251   6.502  26.139  1.00  0.00     0.186 HD
BRANCH  18  20
HETATM   20  N1  UNL     1      24.225   5.140  27.374  1.00  0.00    -0.345 N
ATOM     21  H12 UNL     1      23.785   4.221  27.423  1.00  0.00     0.176 HD
ATOM     22  H11 UNL     1      24.770   5.493  28.161  1.00  0.00     0.176 HD
ENDBRANCH  18  20
ENDBRANCH  12  18
ENDBRANCH   9  11
ENDBRANCH   1   9
BRANCH   4  23
HETATM   23  S1  UNL     1      24.365  13.253  22.809  1.00  0.00     0.260 S
HETATM   24  O1  UNL     1      25.513  13.868  23.566  1.00  0.00    -0.201 OA
HETATM   25  O2  UNL     1      24.585  13.463  21.326  1.00  0.00    -0.201 OA
BRANCH  23  26
HETATM   26  N5  UNL     1      22.912  14.050  23.246  1.00  0.00    -0.324 N
ATOM     27  H52 UNL     1      22.821  14.676  24.045  1.00  0.00     0.169 HD
ATOM     28  H51 UNL     1      22.166  13.805  22.595  1.00  0.00     0.169 HD
ENDBRANCH  23  26
ENDBRANCH   4  23
TORSDOF 6
ENDMDL