MODEL 1
REMARK VINA RESULT: -7.685833278      0.000      0.000
REMARK  7 active torsions:
REMARK  status: ('A' for Active; 'I' for Inactive)
REMARK    1  A    between atoms: N1_1  and  C1_4
REMARK    2  A    between atoms: C2_7  and  C3_8
REMARK       I    between atoms: C3_8  and  N3_10
REMARK    3  A    between atoms: N3_10  and  C4_12
REMARK    4  A    between atoms: C4_12  and  C5_13
REMARK       I    between atoms: C5_13  and  N4_15
REMARK    5  A    between atoms: C10_20  and  O3_21
REMARK    6  A    between atoms: C11_23  and  O4_24
REMARK    7  A    between atoms: C12_26  and  O5_27
ROOT
HETATM    1  C1  UNL     1      21.200   3.009  25.726  1.00  0.00     0.136 A
HETATM    2  N2  UNL     1      22.345   3.410  25.184  1.00  0.00    -0.334 N
ATOM      3  H2  UNL     1      22.508   3.219  24.195  1.00  0.00     0.168 HD
HETATM    4  C2  UNL     1      23.323   4.073  25.897  1.00  0.00     0.138 A
HETATM    5  C10 UNL     1      23.002   4.280  27.221  1.00  0.00     0.134 A
HETATM    6  C11 UNL     1      21.810   3.870  27.814  1.00  0.00     0.138 A
HETATM    7  C12 UNL     1      20.892   3.220  27.044  1.00  0.00     0.146 A
ENDROOT
BRANCH   4   8
HETATM    8  C3  UNL     1      24.533   4.472  25.229  1.00  0.00     0.271 C
HETATM    9  O1  UNL     1      25.570   4.651  25.971  1.00  0.00    -0.266 OA
HETATM   10  N3  UNL     1      24.739   4.695  23.873  1.00  0.00    -0.347 N
ATOM     11  H3  UNL     1      23.947   4.564  23.244  1.00  0.00     0.163 HD
BRANCH  10  12
HETATM   12  C4  UNL     1      26.000   5.101  23.293  1.00  0.00     0.225 C
BRANCH  12  13
HETATM   13  C5  UNL     1      26.437   6.459  23.621  1.00  0.00     0.237 C
HETATM   14  O2  UNL     1      27.600   6.759  24.000  1.00  0.00    -0.272 OA
HETATM   15  N4  UNL     1      25.495   7.506  23.506  1.00  0.00    -0.351 N
HETATM   16  C6  UNL     1      25.744   8.901  23.786  1.00  0.00     0.126 C
HETATM   17  C9  UNL     1      24.123   7.377  23.093  1.00  0.00     0.126 C
HETATM   18  C7  UNL     1      24.394   9.567  23.889  1.00  0.00     0.021 C
HETATM   19  C8  UNL     1      23.432   8.397  23.980  1.00  0.00     0.021 C
ENDBRANCH  12  13
ENDBRANCH  10  12
ENDBRANCH   4   8
BRANCH   5  20
HETATM   20  O3  UNL     1      23.933   4.944  28.020  1.00  0.00    -0.356 OA
ATOM     21  H3  UNL     1      24.055   5.876  27.879  1.00  0.00     0.218 HD
ENDBRANCH   5  20
BRANCH   1  22
HETATM   22  N1  UNL     1      20.324   2.386  24.984  1.00  0.00    -0.383 N
ATOM     23  H12 UNL     1      19.369   2.743  24.967  1.00  0.00     0.157 HD
ATOM     24  H11 UNL     1      20.615   1.568  24.448  1.00  0.00     0.157 HD
ENDBRANCH   1  22
BRANCH   6  25
HETATM   25  O4  UNL     1      21.553   4.111  29.152  1.00  0.00    -0.355 OA
ATOM     26  H4  UNL     1      20.983   4.821  29.425  1.00  0.00     0.218 HD
ENDBRANCH   6  25
BRANCH   7  27
HETATM   27  O5  UNL     1      19.668   2.783  27.592  1.00  0.00    -0.355 OA
ATOM     28  H5  UNL     1      19.623   2.398  28.459  1.00  0.00     0.218 HD
ENDBRANCH   7  27
TORSDOF 7
ENDMDL