MODEL 5
REMARK VINA RESULT: -7.040279000      2.132      2.948
REMARK  6 active torsions:
REMARK  status: ('A' for Active; 'I' for Inactive)
REMARK    1  A    between atoms: S1_2  and  C2_3
REMARK    2  A    between atoms: C2_3  and  N2_7
REMARK    3  A    between atoms: N3_9  and  N4_11
REMARK    4  A    between atoms: N4_11  and  N5_13
REMARK       I    between atoms: N5_13  and  C3_15
REMARK       I    between atoms: C3_15  and  N6_17
REMARK    5  A    between atoms: N6_17  and  N7_19
REMARK       I    between atoms: N7_19  and  C4_21
REMARK    6  A    between atoms: C4_21  and  C5_23
ROOT
HETATM    1  N5  UNL     1      24.226   7.498  22.798  1.00  0.00    -0.234 N
ATOM      2  H5  UNL     1      23.997   7.475  21.804  1.00  0.00     0.193 HD
HETATM    3  C3  UNL     1      24.144   8.723  23.507  1.00  0.00     0.354 C
HETATM    4  O1  UNL     1      24.443   8.701  24.741  1.00  0.00    -0.244 OA
HETATM    5  N6  UNL     1      23.747   9.932  22.874  1.00  0.00    -0.247 N
ATOM      6  H6  UNL     1      23.515   9.916  21.881  1.00  0.00     0.192 HD
ENDROOT
BRANCH   1   7
HETATM    7  N4  UNL     1      24.614   6.326  23.440  1.00  0.00    -0.224 N
ATOM      8  H4  UNL     1      24.481   6.198  24.443  1.00  0.00     0.210 HD
BRANCH   7   9
HETATM    9  N3  UNL     1      25.192   5.336  22.649  1.00  0.00    -0.226 N
HETATM   10  N2  UNL     1      25.844   4.411  23.192  1.00  0.00    -0.265 N
ATOM     11  H2  UNL     1      26.253   3.702  22.583  1.00  0.00     0.190 HD
ATOM     12  H3  UNL     1      25.086   5.363  21.635  1.00  0.00     0.210 HD
BRANCH  10  13
HETATM   13  C2  UNL     1      26.055   4.276  24.576  1.00  0.00     0.153 C
HETATM   14  N1  UNL     1      27.232   4.503  25.042  1.00  0.00    -0.379 N
ATOM     15  H12 UNL     1      27.385   4.405  26.046  1.00  0.00     0.158 HD
ATOM     16  H11 UNL     1      28.012   4.775  24.443  1.00  0.00     0.158 HD
BRANCH  13  17
HETATM   17  S1  UNL     1      24.696   3.802  25.619  1.00  0.00    -0.098 SA
HETATM   18  C1  UNL     1      24.738   4.854  27.097  1.00  0.00     0.099 C
ENDBRANCH  13  17
ENDBRANCH  10  13
ENDBRANCH   7   9
ENDBRANCH   1   7
BRANCH   5  19
HETATM   19  N7  UNL     1      23.664  11.139  23.565  1.00  0.00    -0.262 N
HETATM   20  C4  UNL     1      23.773  12.389  22.910  1.00  0.00     0.270 C
HETATM   21  O2  UNL     1      23.950  12.399  21.672  1.00  0.00    -0.266 OA
ATOM     22  H7  UNL     1      23.521  11.122  24.575  1.00  0.00     0.190 HD
BRANCH  20  23
HETATM   23  C5  UNL     1      23.680  13.615  23.670  1.00  0.00     0.036 A
HETATM   24  C6  UNL     1      24.422  13.716  24.822  1.00  0.00     0.034 A
HETATM   25  C7  UNL     1      24.353  14.871  25.564  1.00  0.00     0.088 A
HETATM   26  N8  UNL     1      23.565  15.879  25.156  1.00  0.00    -0.375 N
HETATM   27  C8  UNL     1      22.827  15.818  24.041  1.00  0.00     0.088 A
ATOM     28  H8  UNL     1      23.527  16.727  25.721  1.00  0.00     0.164 HD
HETATM   29  C9  UNL     1      22.887  14.659  23.284  1.00  0.00     0.034 A
ENDBRANCH  20  23
ENDBRANCH   5  19
TORSDOF 6
ENDMDL