MODEL 3
REMARK VINA RESULT: -7.238412419      3.965      6.917
REMARK  16 active torsions:
REMARK  status: ('A' for Active; 'I' for Inactive)
REMARK    1  A    between atoms: C2_2  and  C3_3
REMARK    2  A    between atoms: C3_3  and  C4_4
REMARK    3  A    between atoms: C4_4  and  C5_5
REMARK    4  A    between atoms: C4_4  and  C27_38
REMARK    5  A    between atoms: C5_5  and  C6_6
REMARK    6  A    between atoms: C6_6  and  C7_7
REMARK    7  A    between atoms: C7_7  and  C8_8
REMARK    8  A    between atoms: C8_8  and  N1_9
REMARK       I    between atoms: N1_9  and  C9_11
REMARK    9  A    between atoms: C9_11  and  C10_13
REMARK       I    between atoms: N2_14  and  C11_15
REMARK   10  A    between atoms: C11_15  and  O3_17
REMARK   11  A    between atoms: O3_17  and  C12_18
REMARK   12  A    between atoms: C21_29  and  C22_30
REMARK   13  A    between atoms: C22_30  and  O5_32
REMARK       I    between atoms: C27_38  and  N4_40
REMARK   14  A    between atoms: N4_40  and  S2_42
REMARK   15  A    between atoms: S2_42  and  C28_45
REMARK   16  A    between atoms: C28_45  and  C30_47
ROOT
HETATM    1  C10 UNL     1     -15.502  10.685  34.799  1.00  0.00     0.103 C
HETATM    2  N2  UNL     1     -14.072  10.454  35.111  1.00  0.00    -0.278 N
HETATM    3  C11 UNL     1     -13.311   9.801  34.158  1.00  0.00     0.369 C
HETATM    4  O2  UNL     1     -12.074   9.510  34.201  1.00  0.00    -0.238 OA
HETATM    5  C16 UNL     1     -13.564  10.849  36.416  1.00  0.00     0.073 C
HETATM    6  C17 UNL     1     -12.057  10.806  36.371  1.00  0.00     0.078 C
HETATM    7  C18 UNL     1     -11.430  11.467  37.591  1.00  0.00     0.062 C
HETATM    8  N3  UNL     1     -11.787  12.821  37.726  1.00  0.00    -0.382 N
ATOM      9  H3  UNL     1     -11.131  13.501  38.113  1.00  0.00     0.163 HD
HETATM   10  C19 UNL     1     -13.065  13.207  37.315  1.00  0.00     0.062 C
HETATM   11  C20 UNL     1     -14.023  12.252  36.745  1.00  0.00     0.078 C
HETATM   12  C21 UNL     1     -14.052   9.765  37.314  1.00  0.00     0.177 C
HETATM   13  S1  UNL     1     -15.323   8.672  36.600  1.00  0.00    -0.136 SA
HETATM   14  C24 UNL     1     -16.292   9.522  35.274  1.00  0.00     0.050 C
HETATM   15  C25 UNL     1     -17.573   9.949  35.989  1.00  0.00     0.034 C
HETATM   16  C26 UNL     1     -16.636   8.465  34.296  1.00  0.00     0.034 C
ENDROOT
BRANCH   1  17
HETATM   17  C9  UNL     1     -15.724  11.285  33.512  1.00  0.00     0.266 C
HETATM   18  N1  UNL     1     -14.839  12.158  32.842  1.00  0.00    -0.356 N
ATOM     19  H1  UNL     1     -13.961  12.415  33.294  1.00  0.00     0.162 HD
HETATM   20  O1  UNL     1     -16.811  11.052  32.841  1.00  0.00    -0.266 OA
BRANCH  18  21
HETATM   21  C8  UNL     1     -15.142  12.694  31.538  1.00  0.00     0.123 C
BRANCH  21  22
HETATM   22  C7  UNL     1     -14.081  13.674  31.145  1.00  0.00     0.020 C
BRANCH  22  23
HETATM   23  C6  UNL     1     -12.975  13.719  32.216  1.00  0.00     0.002 C
BRANCH  23  24
HETATM   24  C5  UNL     1     -12.628  15.153  32.429  1.00  0.00     0.014 C
BRANCH  24  25
HETATM   25  C4  UNL     1     -11.155  15.463  32.420  1.00  0.00     0.079 C
BRANCH  25  26
HETATM   26  C3  UNL     1     -10.694  16.212  33.625  1.00  0.00     0.013 C
BRANCH  26  27
HETATM   27  C2  UNL     1     -11.082  15.514  34.910  1.00  0.00    -0.004 C
HETATM   28  C1  UNL     1     -10.177  14.310  35.073  1.00  0.00     0.005 C
ENDBRANCH  26  27
ENDBRANCH  25  26
BRANCH  25  29
HETATM   29  C27 UNL     1     -10.666  16.001  31.156  1.00  0.00     0.235 C
HETATM   30  O6  UNL     1      -9.591  16.668  31.098  1.00  0.00    -0.272 OA
HETATM   31  N4  UNL     1     -11.380  15.795  29.943  1.00  0.00    -0.254 N
ATOM     32  H4  UNL     1     -12.248  15.261  29.998  1.00  0.00     0.181 HD
BRANCH  31  33
HETATM   33  S2  UNL     1     -10.916  16.359  28.407  1.00  0.00     0.236 S
HETATM   34  O7  UNL     1     -11.238  17.848  28.327  1.00  0.00    -0.205 OA
HETATM   35  O8  UNL     1      -9.456  16.196  28.205  1.00  0.00    -0.205 OA
BRANCH  33  36
HETATM   36  C28 UNL     1     -11.818  15.615  27.069  1.00  0.00     0.125 C
HETATM   37  C29 UNL     1     -13.254  15.395  27.546  1.00  0.00     0.028 C
BRANCH  36  38
HETATM   38  C30 UNL     1     -11.286  14.243  26.708  1.00  0.00     0.017 C
HETATM   39  C31 UNL     1     -11.882  13.132  27.520  1.00  0.00     0.006 C
ENDBRANCH  36  38
ENDBRANCH  33  36
ENDBRANCH  31  33
ENDBRANCH  25  29
ENDBRANCH  24  25
ENDBRANCH  23  24
ENDBRANCH  22  23
ENDBRANCH  21  22
ENDBRANCH  18  21
ENDBRANCH   1  17
BRANCH   3  40
HETATM   40  O3  UNL     1     -13.867   9.351  32.946  1.00  0.00    -0.294 OA
BRANCH  40  41
HETATM   41  C12 UNL     1     -13.593   8.167  32.308  1.00  0.00     0.061 C
HETATM   42  C13 UNL     1     -13.588   7.008  33.284  1.00  0.00     0.046 C
HETATM   43  C14 UNL     1     -12.337   8.108  31.510  1.00  0.00     0.046 C
HETATM   44  C15 UNL     1     -14.741   7.908  31.323  1.00  0.00     0.046 C
ENDBRANCH  40  41
ENDBRANCH   3  40
BRANCH  12  45
HETATM   45  C22 UNL     1     -14.463  10.053  38.660  1.00  0.00     0.275 C
HETATM   46  O4  UNL     1     -15.577  10.425  39.017  1.00  0.00    -0.264 OA
BRANCH  45  47
HETATM   47  O5  UNL     1     -13.533   9.913  39.718  1.00  0.00    -0.326 OA
HETATM   48  C23 UNL     1     -12.727   8.762  39.824  1.00  0.00     0.213 C
ENDBRANCH  45  47
ENDBRANCH  12  45
TORSDOF 16
ENDMDL