MODEL 3
REMARK VINA RESULT: -7.917127220      3.267     11.114
REMARK  21 active torsions:
REMARK  status: ('A' for Active; 'I' for Inactive)
REMARK    1  A    between atoms: C2_2  and  C3_3
REMARK    2  A    between atoms: C3_3  and  C4_4
REMARK    3  A    between atoms: C4_4  and  N1_5
REMARK    4  A    between atoms: N1_5  and  C5_6
REMARK    5  A    between atoms: C5_6  and  O1_7
REMARK    6  A    between atoms: C5_6  and  O2_9
REMARK    7  A    between atoms: O2_9  and  C6_10
REMARK    8  A    between atoms: C6_10  and  C7_11
REMARK    9  A    between atoms: C8_13  and  O4_14
REMARK   10  A    between atoms: O4_14  and  C9_15
REMARK   11  A    between atoms: C9_15  and  C10_16
REMARK   12  A    between atoms: C10_16  and  C11_17
REMARK   13  A    between atoms: C11_17  and  S1_18
REMARK   14  A    between atoms: S1_18  and  C12_20
REMARK   15  A    between atoms: C12_20  and  N2_21
REMARK   16  A    between atoms: N2_21  and  C13_24
REMARK   17  A    between atoms: C13_24  and  O6_25
REMARK   18  A    between atoms: C13_24  and  O7_27
REMARK   19  A    between atoms: O7_27  and  C14_28
REMARK   20  A    between atoms: C29_44  and  O9_45
REMARK   21  A    between atoms: O9_45  and  C30_46
REMARK       I    between atoms: C30_46  and  N3_48
ROOT
HETATM    1  C9  UNL     1      -9.319  16.548  23.236  1.00  0.00     0.174 C
ENDROOT
BRANCH   1   2
HETATM    2  O4  UNL     1      -8.173  17.326  23.409  1.00  0.00    -0.339 OA
BRANCH   2   3
HETATM    3  C8  UNL     1      -7.811  17.886  22.174  1.00  0.00     0.413 C
HETATM    4  O3  UNL     1      -6.607  17.069  21.814  1.00  0.00    -0.329 OA
HETATM    5  C7  UNL     1      -5.776  18.090  21.205  1.00  0.00     0.183 C
HETATM    6  C29 UNL     1      -6.478  18.090  19.813  1.00  0.00     0.193 C
HETATM    7  C27 UNL     1      -7.895  17.586  19.900  1.00  0.00     0.155 C
HETATM    8  O8  UNL     1      -8.566  17.722  21.106  1.00  0.00    -0.331 OA
HETATM    9  C28 UNL     1      -8.019  16.206  19.281  1.00  0.00     0.042 C
BRANCH   5  10
HETATM   10  C6  UNL     1      -4.412  17.540  21.180  1.00  0.00     0.215 C
BRANCH  10  11
HETATM   11  O2  UNL     1      -3.532  17.931  22.202  1.00  0.00    -0.303 OA
BRANCH  11  12
HETATM   12  C5  UNL     1      -3.930  17.699  23.557  1.00  0.00     0.340 C
BRANCH  12  13
HETATM   13  N1  UNL     1      -4.721  18.342  24.431  1.00  0.00    -0.376 NA
BRANCH  13  14
HETATM   14  C4  UNL     1      -5.486  18.957  25.294  1.00  0.00     0.160 C
BRANCH  14  15
HETATM   15  C3  UNL     1      -6.414  18.207  26.243  1.00  0.00     0.059 C
BRANCH  15  16
HETATM   16  C2  UNL     1      -5.675  17.037  26.864  1.00  0.00     0.002 C
HETATM   17  C1  UNL     1      -6.280  16.724  28.212  1.00  0.00     0.005 C
ENDBRANCH  15  16
ENDBRANCH  14  15
ENDBRANCH  13  14
ENDBRANCH  12  13
BRANCH  12  18
HETATM   18  O1  UNL     1      -3.282  16.543  23.898  1.00  0.00    -0.316 OA
ATOM     19  H1  UNL     1      -2.492  16.556  24.425  1.00  0.00     0.222 HD
ENDBRANCH  12  18
ENDBRANCH  11  12
ENDBRANCH  10  11
ENDBRANCH   5  10
BRANCH   6  20
HETATM   20  O9  UNL     1      -5.760  17.037  19.139  1.00  0.00    -0.293 OA
BRANCH  20  21
HETATM   21  C30 UNL     1      -5.130  17.186  17.905  1.00  0.00     0.360 C
HETATM   22  O10 UNL     1      -4.455  16.269  17.444  1.00  0.00    -0.239 OA
HETATM   23  N3  UNL     1      -5.362  18.453  17.252  1.00  0.00    -0.341 N
HETATM   24  C31 UNL     1      -4.964  18.689  15.850  1.00  0.00     0.151 C
ATOM     25  H3  UNL     1      -5.813  19.204  17.772  1.00  0.00     0.164 HD
ENDBRANCH  20  21
ENDBRANCH   6  20
ENDBRANCH   2   3
ENDBRANCH   1   2
BRANCH   1  26
HETATM   26  C10 UNL     1      -8.894  15.087  23.504  1.00  0.00     0.039 C
BRANCH  26  27
HETATM   27  C11 UNL     1      -8.185  15.061  24.818  1.00  0.00     0.112 C
BRANCH  27  28
HETATM   28  S1  UNL     1      -8.988  14.730  26.300  1.00  0.00     0.041 S
HETATM   29  O5  UNL     1      -8.201  14.003  27.344  1.00  0.00    -0.256 OA
BRANCH  28  30
HETATM   30  C12 UNL     1     -10.343  15.699  26.832  1.00  0.00     0.346 C
BRANCH  30  31
HETATM   31  N2  UNL     1      -9.860  16.925  27.505  1.00  0.00    -0.014 N
ATOM     32  H22 UNL     1      -8.915  16.786  27.863  1.00  0.00     0.284 HD
ATOM     33  H21 UNL     1      -9.682  17.660  26.821  1.00  0.00     0.284 HD
BRANCH  31  34
HETATM   34  C13 UNL     1     -10.716  17.402  28.535  1.00  0.00     0.468 C
BRANCH  34  35
HETATM   35  O6  UNL     1     -11.568  18.328  28.203  1.00  0.00    -0.350 OA
ATOM     36  H6  UNL     1     -12.395  18.036  27.841  1.00  0.00     0.214 HD
ENDBRANCH  34  35
BRANCH  34  37
HETATM   37  O7  UNL     1     -10.754  17.010  29.852  1.00  0.00    -0.333 OA
BRANCH  37  38
HETATM   38  C14 UNL     1      -9.615  16.314  30.371  1.00  0.00     0.131 C
HETATM   39  C15 UNL     1      -9.078  16.942  31.604  1.00  0.00     0.037 C
HETATM   40  C16 UNL     1      -9.244  16.125  32.869  1.00  0.00    -0.011 C
HETATM   41  C17 UNL     1      -8.534  14.785  32.697  1.00  0.00     0.005 C
HETATM   42  C26 UNL     1     -10.633  16.022  33.376  1.00  0.00     0.014 C
HETATM   43  C18 UNL     1      -8.893  14.199  31.351  1.00  0.00     0.008 C
HETATM   44  C19 UNL     1     -10.040  14.862  30.703  1.00  0.00     0.019 C
HETATM   45  C20 UNL     1     -11.351  14.881  31.293  1.00  0.00     0.000 C
HETATM   46  C21 UNL     1     -12.381  13.863  30.949  1.00  0.00     0.006 C
HETATM   47  C24 UNL     1     -11.489  14.958  32.779  1.00  0.00    -0.040 C
HETATM   48  C22 UNL     1     -13.544  14.297  31.826  1.00  0.00     0.001 C
HETATM   49  C23 UNL     1     -12.997  15.355  32.784  1.00  0.00     0.009 C
HETATM   50  C25 UNL     1     -11.495  13.677  33.533  1.00  0.00     0.015 C
ENDBRANCH  37  38
ENDBRANCH  34  37
ENDBRANCH  31  34
ENDBRANCH  30  31
ENDBRANCH  28  30
ENDBRANCH  27  28
ENDBRANCH  26  27
ENDBRANCH   1  26
TORSDOF 21
ENDMDL