MODEL 5
REMARK VINA RESULT: -8.448699411      2.534     10.428
REMARK  16 active torsions:
REMARK  status: ('A' for Active; 'I' for Inactive)
REMARK    1  A    between atoms: C2_2  and  O1_3
REMARK    2  A    between atoms: O1_3  and  C3_4
REMARK    3  A    between atoms: C6_7  and  C7_8
REMARK    4  A    between atoms: C7_8  and  C8_9
REMARK    5  A    between atoms: C8_9  and  C9_10
REMARK       I    between atoms: C9_10  and  N1_12
REMARK    6  A    between atoms: C10_14  and  C11_15
REMARK    7  A    between atoms: C10_14  and  C16_25
REMARK    8  A    between atoms: C11_15  and  N2_16
REMARK       I    between atoms: N2_16  and  C12_18
REMARK    9  A    between atoms: C12_18  and  C13_20
REMARK   10  A    between atoms: C13_20  and  O4_21
REMARK   11  A    between atoms: O4_21  and  C14_22
REMARK   12  A    between atoms: C16_25  and  C17_26
REMARK       I    between atoms: C17_26  and  N3_28
REMARK   13  A    between atoms: N3_28  and  C18_30
REMARK   14  A    between atoms: C18_30  and  C19_31
REMARK   15  A    between atoms: C26_41  and  O9_43
REMARK   16  A    between atoms: O9_43  and  C28_44
ROOT
HETATM    1  C7  UNL     1      -8.107  15.545  30.423  1.00  0.00     0.050 C
ENDROOT
BRANCH   1   2
HETATM    2  C6  UNL     1      -9.334  15.170  31.108  1.00  0.00    -0.030 A
HETATM    3  C5  UNL     1     -10.284  14.459  30.398  1.00  0.00    -0.011 A
HETATM    4  C4  UNL     1     -11.422  14.099  31.087  1.00  0.00     0.111 A
HETATM    5  C25 UNL     1     -10.211  14.101  28.995  1.00  0.00     0.083 C
HETATM    6  C3  UNL     1     -11.653  14.409  32.419  1.00  0.00     0.114 A
HETATM    7  O11 UNL     1     -12.347  13.382  30.339  1.00  0.00    -0.334 OA
HETATM    8  C24 UNL     1     -10.696  15.137  33.143  1.00  0.00     0.024 A
HETATM    9  C20 UNL     1      -9.570  15.485  32.446  1.00  0.00     0.025 A
HETATM   10  C22 UNL     1     -10.778  15.561  34.429  1.00  0.00    -0.041 A
HETATM   11  S1  UNL     1      -8.668  16.382  33.585  1.00  0.00    -0.100 SA
HETATM   12  C21 UNL     1      -9.722  16.298  34.906  1.00  0.00     0.058 A
HETATM   13  C23 UNL     1     -11.944  15.318  35.380  1.00  0.00     0.049 C
HETATM   14  C30 UNL     1     -12.637  13.654  28.956  1.00  0.00     0.092 C
HETATM   15  C26 UNL     1     -11.558  14.428  28.269  1.00  0.00     0.102 C
HETATM   16  C31 UNL     1     -12.795  12.286  28.284  1.00  0.00     0.049 C
HETATM   17  C32 UNL     1     -13.991  14.304  28.952  1.00  0.00     0.049 C
HETATM   18  C27 UNL     1     -11.713  15.912  28.365  1.00  0.00     0.050 C
BRANCH   6  19
HETATM   19  O1  UNL     1     -12.849  13.963  32.954  1.00  0.00    -0.348 OA
BRANCH  19  20
HETATM   20  C2  UNL     1     -12.853  12.618  33.432  1.00  0.00     0.171 C
HETATM   21  C1  UNL     1     -14.026  12.304  34.302  1.00  0.00     0.034 C
ENDBRANCH  19  20
ENDBRANCH   6  19
BRANCH  15  22
HETATM   22  O9  UNL     1     -11.311  13.960  26.969  1.00  0.00    -0.307 OA
BRANCH  22  23
HETATM   23  C28 UNL     1     -10.456  14.484  26.056  1.00  0.00     0.255 C
HETATM   24  C29 UNL     1     -10.906  15.591  25.132  1.00  0.00     0.126 C
HETATM   25  O10 UNL     1      -9.289  14.051  25.976  1.00  0.00    -0.266 OA
ENDBRANCH  22  23
ENDBRANCH  15  22
ENDBRANCH   1   2
BRANCH   1  26
HETATM   26  C8  UNL     1      -8.277  16.534  29.310  1.00  0.00     0.108 C
BRANCH  26  27
HETATM   27  C9  UNL     1      -7.526  16.327  28.079  1.00  0.00     0.222 C
HETATM   28  O2  UNL     1      -6.355  15.899  28.095  1.00  0.00    -0.273 OA
HETATM   29  N1  UNL     1      -8.074  16.601  26.778  1.00  0.00    -0.332 N
HETATM   30  C10 UNL     1      -7.923  17.749  26.194  1.00  0.00     0.016 C
ATOM     31  H1  UNL     1      -8.600  15.869  26.300  1.00  0.00     0.168 HD
BRANCH  30  32
HETATM   32  C11 UNL     1      -7.159  18.809  26.891  1.00  0.00     0.175 C
BRANCH  32  33
HETATM   33  N2  UNL     1      -6.440  19.613  25.916  1.00  0.00    -0.354 N
HETATM   34  C12 UNL     1      -5.251  19.088  25.340  1.00  0.00     0.242 C
HETATM   35  O3  UNL     1      -4.862  17.942  25.694  1.00  0.00    -0.271 OA
ATOM     36  H2  UNL     1      -6.782  20.536  25.650  1.00  0.00     0.162 HD
BRANCH  34  37
HETATM   37  C13 UNL     1      -4.519  19.909  24.350  1.00  0.00     0.281 C
BRANCH  37  38
HETATM   38  O4  UNL     1      -5.384  20.308  23.332  1.00  0.00    -0.312 OA
BRANCH  38  39
HETATM   39  C14 UNL     1      -5.670  19.586  22.220  1.00  0.00     0.255 C
HETATM   40  C15 UNL     1      -4.614  18.827  21.452  1.00  0.00     0.126 C
HETATM   41  O5  UNL     1      -6.864  19.536  21.792  1.00  0.00    -0.266 OA
ENDBRANCH  38  39
ENDBRANCH  37  38
ENDBRANCH  34  37
ENDBRANCH  32  33
ENDBRANCH  30  32
BRANCH  30  42
HETATM   42  C16 UNL     1      -8.481  18.016  24.853  1.00  0.00     0.157 C
BRANCH  42  43
HETATM   43  C17 UNL     1      -8.011  17.074  23.830  1.00  0.00     0.223 C
HETATM   44  O6  UNL     1      -7.117  16.260  24.074  1.00  0.00    -0.273 OA
HETATM   45  N3  UNL     1      -8.570  17.057  22.504  1.00  0.00    -0.351 N
ATOM     46  H3  UNL     1      -9.311  17.717  22.266  1.00  0.00     0.163 HD
BRANCH  45  47
HETATM   47  C18 UNL     1      -8.103  16.127  21.503  1.00  0.00     0.235 C
BRANCH  47  48
HETATM   48  C19 UNL     1      -8.337  16.693  20.155  1.00  0.00     0.191 C
HETATM   49  O7  UNL     1      -8.921  17.791  19.967  1.00  0.00    -0.647 OA
HETATM   50  O8  UNL     1      -7.874  15.940  19.065  1.00  0.00    -0.647 OA
ENDBRANCH  47  48
ENDBRANCH  45  47
ENDBRANCH  42  43
ENDBRANCH  30  42
ENDBRANCH  26  27
ENDBRANCH   1  26
TORSDOF 16
ENDMDL