MODEL 2
REMARK VINA RESULT: -9.194965020      2.961     12.809
REMARK  14 active torsions:
REMARK  status: ('A' for Active; 'I' for Inactive)
REMARK    1  A    between atoms: C2_2  and  C3_3
REMARK    2  A    between atoms: C3_3  and  C4_4
REMARK    3  A    between atoms: C5_5  and  C6_6
REMARK    4  A    between atoms: C6_6  and  C7_7
REMARK    5  A    between atoms: C6_6  and  N1_10
REMARK    6  A    between atoms: C7_7  and  O1_8
REMARK    7  A    between atoms: N3_23  and  C16_24
REMARK    8  A    between atoms: C16_24  and  C17_25
REMARK    9  A    between atoms: C17_25  and  C18_26
REMARK   10  A    between atoms: C26_37  and  C27_38
REMARK   11  A    between atoms: C27_38  and  C28_39
REMARK       I    between atoms: C28_39  and  N4_41
REMARK   12  A    between atoms: N4_41  and  C29_43
REMARK   13  A    between atoms: C29_43  and  C30_44
REMARK   14  A    between atoms: C30_44  and  N5_45
ROOT
HETATM    1  N1  UNL     1      -5.240  18.696  24.504  1.00  0.00    -0.362 N
ATOM      2  H1  UNL     1      -5.079  18.789  25.506  1.00  0.00     0.162 HD
HETATM    3  C8  UNL     1      -6.025  17.791  24.212  1.00  0.00     0.172 C
HETATM    4  N2  UNL     1      -6.519  17.098  25.301  1.00  0.00    -0.337 N
ATOM      5  H2  UNL     1      -5.935  17.142  26.136  1.00  0.00     0.167 HD
HETATM    6  C9  UNL     1      -7.639  16.380  25.440  1.00  0.00     0.050 A
HETATM    7  C10 UNL     1      -7.818  15.887  26.734  1.00  0.00     0.041 A
HETATM    8  C11 UNL     1      -8.913  15.118  27.066  1.00  0.00    -0.019 A
HETATM    9  C12 UNL     1      -9.856  14.826  26.110  1.00  0.00    -0.039 A
HETATM   10  C13 UNL     1      -9.655  15.335  24.812  1.00  0.00     0.028 A
HETATM   11  C14 UNL     1      -8.573  16.093  24.482  1.00  0.00     0.059 A
HETATM   12  C15 UNL     1      -8.570  16.496  23.148  1.00  0.00     0.263 C
HETATM   13  O2  UNL     1      -9.634  16.213  22.542  1.00  0.00    -0.267 OA
HETATM   14  N3  UNL     1      -7.614  17.128  22.439  1.00  0.00    -0.277 N
HETATM   15  C22 UNL     1      -6.398  17.469  22.914  1.00  0.00     0.294 C
HETATM   16  O4  UNL     1      -5.499  17.492  22.055  1.00  0.00    -0.264 OA
HETATM   17  C23 UNL     1     -11.069  14.023  26.275  1.00  0.00     0.113 C
HETATM   18  S1  UNL     1     -11.542  13.775  28.008  1.00  0.00    -0.157 SA
HETATM   19  C24 UNL     1     -10.485  14.846  28.967  1.00  0.00     0.083 C
HETATM   20  C25 UNL     1     -10.215  14.335  30.385  1.00  0.00     0.050 C
HETATM   21  C26 UNL     1      -8.870  14.988  30.615  1.00  0.00     0.132 C
HETATM   22  O6  UNL     1      -8.363  15.366  29.370  1.00  0.00    -0.374 OA
HETATM   23  C35 UNL     1      -9.063  14.630  28.423  1.00  0.00     0.169 C
ENDROOT
BRANCH  21  24
HETATM   24  C27 UNL     1      -8.992  16.242  31.447  1.00  0.00     0.134 C
BRANCH  24  25
HETATM   25  C28 UNL     1      -9.248  15.973  32.880  1.00  0.00     0.220 C
HETATM   26  O5  UNL     1      -8.315  15.501  33.576  1.00  0.00    -0.274 OA
HETATM   27  N4  UNL     1     -10.503  16.231  33.482  1.00  0.00    -0.359 N
ATOM     28  H4  UNL     1     -11.240  16.613  32.888  1.00  0.00     0.162 HD
BRANCH  27  29
HETATM   29  C29 UNL     1     -10.823  15.998  34.868  1.00  0.00     0.152 C
BRANCH  29  30
HETATM   30  C30 UNL     1     -12.001  15.111  35.084  1.00  0.00     0.292 C
BRANCH  30  31
HETATM   31  N5  UNL     1     -11.877  13.930  34.259  1.00  0.00     0.090 N
HETATM   32  C31 UNL     1     -13.186  13.274  34.326  1.00  0.00     0.272 C
HETATM   33  C32 UNL     1     -13.152  12.459  35.599  1.00  0.00     0.032 C
HETATM   34  C33 UNL     1     -11.719  12.470  36.091  1.00  0.00     0.032 C
HETATM   35  C34 UNL     1     -10.973  12.993  34.893  1.00  0.00     0.272 C
ENDBRANCH  30  31
ENDBRANCH  29  30
ENDBRANCH  27  29
ENDBRANCH  24  25
ENDBRANCH  21  24
BRANCH   1  36
HETATM   36  C6  UNL     1      -4.491  19.667  23.697  1.00  0.00     0.129 C
BRANCH  36  37
HETATM   37  C5  UNL     1      -3.071  19.529  24.111  1.00  0.00    -0.004 C
HETATM   38  C4  UNL     1      -2.406  18.318  24.506  1.00  0.00    -0.029 C
BRANCH  38  39
HETATM   39  C3  UNL     1      -2.164  17.158  23.652  1.00  0.00     0.026 C
BRANCH  39  40
HETATM   40  C2  UNL     1      -1.882  17.539  22.189  1.00  0.00    -0.001 C
HETATM   41  C1  UNL     1      -2.192  16.326  21.316  1.00  0.00     0.005 C
ENDBRANCH  39  40
ENDBRANCH  38  39
ENDBRANCH  36  37
BRANCH  36  42
HETATM   42  C7  UNL     1      -5.143  20.983  23.734  1.00  0.00     0.193 C
BRANCH  42  43
HETATM   43  O1  UNL     1      -5.889  21.404  22.677  1.00  0.00    -0.399 OA
ATOM     44  H1  UNL     1      -5.618  22.165  22.177  1.00  0.00     0.209 HD
ENDBRANCH  42  43
ENDBRANCH  36  42
ENDBRANCH   1  36
BRANCH  14  45
HETATM   45  C16 UNL     1      -7.919  17.463  21.064  1.00  0.00     0.138 C
BRANCH  45  46
HETATM   46  C17 UNL     1      -7.880  16.263  20.154  1.00  0.00     0.052 C
BRANCH  46  47
HETATM   47  C18 UNL     1      -6.894  16.565  19.042  1.00  0.00     0.123 C
HETATM   48  C19 UNL     1      -5.549  15.946  19.265  1.00  0.00     0.034 C
HETATM   49  C20 UNL     1      -4.620  16.829  18.453  1.00  0.00     0.029 C
HETATM   50  C21 UNL     1      -5.495  18.027  18.185  1.00  0.00     0.168 C
HETATM   51  O3  UNL     1      -6.612  17.923  18.991  1.00  0.00    -0.386 OA
ENDBRANCH  46  47
ENDBRANCH  45  46
ENDBRANCH  14  45
TORSDOF 14
ENDMDL