MODEL 3
REMARK VINA RESULT: -5.896847866      0.941      1.663
REMARK  16 active torsions:
REMARK  status: ('A' for Active; 'I' for Inactive)
REMARK    1  A    between atoms: C2_2  and  C3_3
REMARK    2  A    between atoms: C3_3  and  C4_4
REMARK    3  A    between atoms: C4_4  and  C5_5
REMARK    4  A    between atoms: C5_5  and  O2_7
REMARK    5  A    between atoms: O2_7  and  C6_8
REMARK    6  A    between atoms: C10_13  and  C11_14
REMARK    7  A    between atoms: C14_19  and  C15_20
REMARK    8  A    between atoms: C15_20  and  C16_21
REMARK    9  A    between atoms: C16_21  and  C18_23
REMARK   10  A    between atoms: C26_35  and  C27_36
REMARK   11  A    between atoms: C27_36  and  C28_37
REMARK   12  A    between atoms: C28_37  and  C29_38
REMARK   13  A    between atoms: C29_38  and  C30_39
REMARK   14  A    between atoms: C30_39  and  N2_40
REMARK   15  A    between atoms: C32_46  and  C33_47
REMARK   16  A    between atoms: C35_49  and  O9_51
ROOT
HETATM    1  C6  UNL     1     -13.920   9.473  36.693  1.00  0.00     0.177 C
HETATM    2  C7  UNL     1     -14.279   8.994  35.345  1.00  0.00     0.085 C
HETATM    3  C8  UNL     1     -13.738   7.715  34.861  1.00  0.00     0.020 C
HETATM    4  C9  UNL     1     -15.750   8.957  35.196  1.00  0.00     0.146 C
HETATM    5  O3  UNL     1     -16.503   9.790  35.728  1.00  0.00    -0.297 OA
HETATM    6  C10 UNL     1     -16.470   7.928  34.398  1.00  0.00     0.155 C
HETATM    7  C13 UNL     1     -17.492   8.487  33.486  1.00  0.00     0.270 C
HETATM    8  O4  UNL     1     -18.576   8.878  33.979  1.00  0.00    -0.264 OA
HETATM    9  O5  UNL     1     -17.240   8.564  32.144  1.00  0.00    -0.315 OA
HETATM   10  C14 UNL     1     -16.034   8.911  31.514  1.00  0.00     0.143 C
HETATM   11  C20 UNL     1     -16.047  10.214  30.775  1.00  0.00     0.082 C
HETATM   12  C21 UNL     1     -17.471  10.492  30.254  1.00  0.00     0.020 C
HETATM   13  C22 UNL     1     -15.805  11.317  31.757  1.00  0.00     0.145 C
HETATM   14  O6  UNL     1     -16.660  11.387  32.643  1.00  0.00    -0.297 OA
HETATM   15  C23 UNL     1     -14.709  12.273  31.766  1.00  0.00     0.144 C
HETATM   16  C24 UNL     1     -14.545  12.729  30.293  1.00  0.00     0.028 C
HETATM   17  C25 UNL     1     -13.404  11.793  32.248  1.00  0.00     0.229 C
HETATM   18  O7  UNL     1     -13.074  10.650  31.758  1.00  0.00    -0.273 OA
HETATM   19  N1  UNL     1     -12.488  12.362  33.125  1.00  0.00    -0.349 N
ATOM     20  H1  UNL     1     -11.538  12.356  32.752  1.00  0.00     0.163 HD
HETATM   21  C26 UNL     1     -12.558  12.943  34.402  1.00  0.00     0.154 C
HETATM   22  C31 UNL     1     -13.551  12.487  35.376  1.00  0.00     0.156 C
HETATM   23  O8  UNL     1     -14.703  12.574  35.037  1.00  0.00    -0.295 OA
HETATM   24  C32 UNL     1     -13.279  11.948  36.702  1.00  0.00     0.094 C
HETATM   25  C35 UNL     1     -12.895  10.525  36.853  1.00  0.00     0.092 C
HETATM   26  C36 UNL     1     -11.579  10.288  36.155  1.00  0.00     0.049 C
ENDROOT
BRANCH  21  27
HETATM   27  C27 UNL     1     -12.737  14.476  34.299  1.00  0.00     0.033 C
BRANCH  27  28
HETATM   28  C28 UNL     1     -11.908  15.182  35.329  1.00  0.00     0.004 C
BRANCH  28  29
HETATM   29  C29 UNL     1     -10.488  14.718  35.417  1.00  0.00     0.027 C
BRANCH  29  30
HETATM   30  C30 UNL     1      -9.721  15.346  34.245  1.00  0.00     0.229 C
BRANCH  30  31
HETATM   31  N2  UNL     1      -9.829  16.789  34.372  1.00  0.00    -0.079 N
ATOM     32  H23 UNL     1     -10.792  17.121  34.311  1.00  0.00     0.274 HD
ATOM     33  H22 UNL     1      -9.632  17.120  35.316  1.00  0.00     0.274 HD
ATOM     34  H21 UNL     1      -9.220  17.208  33.669  1.00  0.00     0.274 HD
ENDBRANCH  30  31
ENDBRANCH  29  30
ENDBRANCH  28  29
ENDBRANCH  27  28
ENDBRANCH  21  27
BRANCH  24  35
HETATM   35  C33 UNL     1     -14.381  12.344  37.710  1.00  0.00     0.011 C
HETATM   36  C34 UNL     1     -14.009  13.682  38.364  1.00  0.00     0.006 C
ENDBRANCH  24  35
BRANCH  25  37
HETATM   37  O9  UNL     1     -12.499  10.472  38.199  1.00  0.00    -0.387 OA
ATOM     38  H9  UNL     1     -13.211  10.048  38.662  1.00  0.00     0.210 HD
ENDBRANCH  25  37
BRANCH   1  39
HETATM   39  O2  UNL     1     -13.813   8.448  37.659  1.00  0.00    -0.312 OA
BRANCH  39  40
HETATM   40  C5  UNL     1     -14.770   7.845  38.387  1.00  0.00     0.259 C
HETATM   41  O1  UNL     1     -14.766   6.621  38.454  1.00  0.00    -0.265 OA
BRANCH  40  42
HETATM   42  C4  UNL     1     -15.792   8.669  39.080  1.00  0.00     0.111 C
BRANCH  42  43
HETATM   43  C3  UNL     1     -17.191   8.153  38.815  1.00  0.00     0.009 C
BRANCH  43  44
HETATM   44  C2  UNL     1     -18.191   9.278  38.748  1.00  0.00    -0.004 C
HETATM   45  C1  UNL     1     -19.297   8.964  37.790  1.00  0.00     0.005 C
ENDBRANCH  43  44
ENDBRANCH  42  43
ENDBRANCH  40  42
ENDBRANCH  39  40
ENDBRANCH   1  39
BRANCH  10  46
HETATM   46  C15 UNL     1     -15.292   7.795  30.883  1.00  0.00     0.037 C
BRANCH  46  47
HETATM   47  C16 UNL     1     -14.787   6.678  31.689  1.00  0.00    -0.017 C
HETATM   48  C17 UNL     1     -15.655   5.466  31.745  1.00  0.00     0.010 C
BRANCH  47  49
HETATM   49  C18 UNL     1     -13.432   6.235  31.077  1.00  0.00    -0.000 C
HETATM   50  C19 UNL     1     -12.392   7.295  31.310  1.00  0.00     0.005 C
ENDBRANCH  47  49
ENDBRANCH  46  47
ENDBRANCH  10  46
BRANCH   6  51
HETATM   51  C11 UNL     1     -17.230   7.017  35.348  1.00  0.00     0.018 C
HETATM   52  C12 UNL     1     -16.622   5.657  35.446  1.00  0.00     0.006 C
ENDBRANCH   6  51
TORSDOF 16
ENDMDL