MODEL 4
REMARK VINA RESULT: -8.932395673      2.659     11.770
REMARK  17 active torsions:
REMARK  status: ('A' for Active; 'I' for Inactive)
REMARK    1  A    between atoms: C2_2  and  C4_4
REMARK    2  A    between atoms: C4_4  and  C5_5
REMARK    3  A    between atoms: C5_5  and  O1_6
REMARK    4  A    between atoms: C5_5  and  C6_8
REMARK    5  A    between atoms: C17_23  and  N2_24
REMARK       I    between atoms: N2_24  and  C18_26
REMARK    6  A    between atoms: C18_26  and  C19_28
REMARK    7  A    between atoms: C19_28  and  C20_29
REMARK    8  A    between atoms: C20_29  and  C21_30
REMARK    9  A    between atoms: C22_31  and  C23_32
REMARK   10  A    between atoms: C24_33  and  C25_34
REMARK   11  A    between atoms: N3_35  and  C26_36
REMARK   12  A    between atoms: C26_36  and  C27_37
REMARK   13  A    between atoms: C27_37  and  C28_38
REMARK   14  A    between atoms: C28_38  and  O5_39
REMARK   15  A    between atoms: O5_39  and  N4_40
REMARK   16  A    between atoms: N4_40  and  O6_42
REMARK   17  A    between atoms: C30_46  and  S1_48
ROOT
HETATM    1  N2  UNL     1      -9.945  15.170  28.246  1.00  0.00    -0.344 N
ATOM      2  H2  UNL     1      -9.423  16.047  28.262  1.00  0.00     0.164 HD
HETATM    3  C18 UNL     1      -9.958  14.423  27.068  1.00  0.00     0.249 C
HETATM    4  O4  UNL     1     -10.607  13.309  27.027  1.00  0.00    -0.268 OA
ENDROOT
BRANCH   1   5
HETATM    5  C17 UNL     1     -10.665  14.744  29.492  1.00  0.00     0.147 C
HETATM    6  C16 UNL     1     -10.721  16.062  30.263  1.00  0.00     0.036 C
HETATM    7  C15 UNL     1      -9.396  16.590  30.675  1.00  0.00     0.004 C
HETATM    8  C14 UNL     1      -8.892  16.118  32.006  1.00  0.00     0.020 C
HETATM    9  C13 UNL     1      -9.920  16.069  33.077  1.00  0.00     0.125 C
HETATM   10  N1  UNL     1      -9.484  16.482  34.383  1.00  0.00    -0.337 N
HETATM   11  C12 UNL     1      -9.604  15.628  35.508  1.00  0.00     0.360 C
ATOM     12  H1  UNL     1      -9.080  17.411  34.503  1.00  0.00     0.164 HD
HETATM   13  O2  UNL     1     -10.527  14.601  35.571  1.00  0.00    -0.304 OA
HETATM   14  O3  UNL     1      -8.802  15.858  36.469  1.00  0.00    -0.239 OA
HETATM   15  C11 UNL     1     -11.908  14.729  35.266  1.00  0.00     0.180 C
HETATM   16  C10 UNL     1     -12.466  13.449  34.717  1.00  0.00     0.027 C
HETATM   17  C9  UNL     1     -13.707  13.606  33.900  1.00  0.00     0.002 C
HETATM   18  C8  UNL     1     -13.500  14.293  32.566  1.00  0.00     0.001 C
HETATM   19  C7  UNL     1     -12.849  13.467  31.548  1.00  0.00     0.018 C
HETATM   20  C6  UNL     1     -13.326  13.412  30.185  1.00  0.00     0.078 C
HETATM   21  S2  UNL     1     -12.287  14.321  28.965  1.00  0.00    -0.136 SA
BRANCH  20  22
HETATM   22  C5  UNL     1     -14.694  13.805  29.810  1.00  0.00     0.132 C
BRANCH  22  23
HETATM   23  C4  UNL     1     -15.902  13.259  30.392  1.00  0.00     0.037 C
BRANCH  23  24
HETATM   24  C2  UNL     1     -16.149  11.842  30.615  1.00  0.00    -0.020 C
HETATM   25  C1  UNL     1     -17.454  11.256  30.154  1.00  0.00     0.009 C
HETATM   26  C3  UNL     1     -15.850  11.326  31.996  1.00  0.00     0.009 C
ENDBRANCH  23  24
ENDBRANCH  22  23
BRANCH  22  27
HETATM   27  O1  UNL     1     -14.827  15.242  29.842  1.00  0.00    -0.394 OA
ATOM     28  H1  UNL     1     -13.947  15.599  29.868  1.00  0.00     0.210 HD
ENDBRANCH  22  27
ENDBRANCH  20  22
ENDBRANCH   1   5
BRANCH   3  29
HETATM   29  C19 UNL     1      -9.279  14.819  25.859  1.00  0.00     0.129 C
BRANCH  29  30
HETATM   30  C20 UNL     1      -9.669  15.457  24.820  1.00  0.00    -0.123 C
BRANCH  30  31
HETATM   31  C21 UNL     1     -10.092  16.140  23.707  1.00  0.00     0.055 C
HETATM   32  C22 UNL     1      -9.261  16.632  22.768  1.00  0.00     0.008 C
BRANCH  32  33
HETATM   33  C23 UNL     1      -7.834  16.436  22.921  1.00  0.00    -0.001 C
HETATM   34  C24 UNL     1      -7.205  17.202  23.835  1.00  0.00     0.000 C
BRANCH  34  35
HETATM   35  C25 UNL     1      -5.782  17.129  24.103  1.00  0.00     0.140 C
HETATM   36  N3  UNL     1      -5.224  17.581  25.329  1.00  0.00    -0.340 N
HETATM   37  C29 UNL     1      -4.955  18.879  24.804  1.00  0.00     0.243 C
HETATM   38  O7  UNL     1      -4.736  20.031  25.218  1.00  0.00    -0.271 OA
HETATM   39  C30 UNL     1      -5.050  18.263  23.436  1.00  0.00     0.138 C
HETATM   40  C31 UNL     1      -3.688  17.887  22.876  1.00  0.00     0.042 C
BRANCH  36  41
HETATM   41  C26 UNL     1      -4.968  17.026  26.627  1.00  0.00     0.129 C
BRANCH  41  42
HETATM   42  C27 UNL     1      -6.279  16.623  27.260  1.00  0.00     0.049 C
BRANCH  42  43
HETATM   43  C28 UNL     1      -7.043  17.894  27.644  1.00  0.00     0.205 C
BRANCH  43  44
HETATM   44  O5  UNL     1      -8.415  17.806  27.358  1.00  0.00    -0.260 OA
BRANCH  44  45
HETATM   45  N4  UNL     1      -9.028  18.831  26.692  1.00  0.00    -0.174 N
ATOM     46  H4  UNL     1      -8.469  19.516  26.182  1.00  0.00     0.223 HD
BRANCH  45  47
HETATM   47  O6  UNL     1     -10.269  18.927  26.708  1.00  0.00    -0.269 OA
ATOM     48  H6  UNL     1     -10.753  18.965  25.891  1.00  0.00     0.246 HD
ENDBRANCH  45  47
ENDBRANCH  44  45
ENDBRANCH  43  44
ENDBRANCH  42  43
ENDBRANCH  41  42
ENDBRANCH  36  41
BRANCH  39  49
HETATM   49  S1  UNL     1      -5.970  19.346  22.380  1.00  0.00     0.031 S
HETATM   50  C32 UNL     1      -5.927  18.594  20.738  1.00  0.00     0.128 C
HETATM   51  O8  UNL     1      -5.048  20.779  22.180  1.00  0.00    -0.257 OA
ENDBRANCH  39  49
ENDBRANCH  34  35
ENDBRANCH  32  33
ENDBRANCH  30  31
ENDBRANCH  29  30
ENDBRANCH   3  29
TORSDOF 17
ENDMDL