MODEL 1
REMARK VINA RESULT: -9.147818135      0.000      0.000
REMARK  19 active torsions:
REMARK  status: ('A' for Active; 'I' for Inactive)
REMARK    1  A    between atoms: O1_2  and  C2_3
REMARK    2  A    between atoms: C2_3  and  C3_5
REMARK    3  A    between atoms: C3_5  and  C4_6
REMARK    4  A    between atoms: C4_6  and  C5_7
REMARK    5  A    between atoms: C6_8  and  C7_9
REMARK    6  A    between atoms: C8_11  and  C9_12
REMARK    7  A    between atoms: C9_12  and  C10_13
REMARK    8  A    between atoms: C9_12  and  C16_19
REMARK    9  A    between atoms: C16_19  and  C17_20
REMARK   10  A    between atoms: C16_19  and  C25_29
REMARK   11  A    between atoms: C17_20  and  C18_21
REMARK   12  A    between atoms: C25_29  and  O5_30
REMARK   13  A    between atoms: C25_29  and  N1_32
REMARK   14  A    between atoms: C28_37  and  C29_38
REMARK       I    between atoms: C29_38  and  N2_40
REMARK   15  A    between atoms: N2_40  and  C30_42
REMARK   16  A    between atoms: C30_42  and  C31_43
REMARK   17  A    between atoms: C31_43  and  N3_44
REMARK   18  A    between atoms: C31_43  and  C32_48
REMARK   19  A    between atoms: C32_48  and  S1_52
ROOT
HETATM    1  C16 UNL     1      -8.691  17.424  25.749  1.00  0.00     0.070 C
ENDROOT
BRANCH   1   2
HETATM    2  C9  UNL     1      -7.399  17.543  26.601  1.00  0.00     0.033 C
BRANCH   2   3
HETATM    3  C8  UNL     1      -6.960  16.228  27.050  1.00  0.00     0.160 A
HETATM    4  C7  UNL     1      -7.625  15.623  28.247  1.00  0.00     0.174 A
HETATM    5  O3  UNL     1      -6.229  15.812  28.098  1.00  0.00    -0.371 OA
BRANCH   4   6
HETATM    6  C6  UNL     1      -8.023  16.490  29.435  1.00  0.00     0.003 C
HETATM    7  C5  UNL     1      -8.480  15.913  30.539  1.00  0.00    -0.028 C
BRANCH   7   8
HETATM    8  C4  UNL     1      -8.892  16.666  31.742  1.00  0.00     0.037 C
BRANCH   8   9
HETATM    9  C3  UNL     1      -9.304  15.729  32.865  1.00  0.00     0.115 C
BRANCH   9  10
HETATM   10  C2  UNL     1     -10.731  15.957  33.238  1.00  0.00     0.258 C
HETATM   11  O2  UNL     1     -11.586  15.871  32.332  1.00  0.00    -0.265 OA
BRANCH  10  12
HETATM   12  O1  UNL     1     -11.119  16.255  34.529  1.00  0.00    -0.326 OA
HETATM   13  C1  UNL     1     -11.749  15.277  35.330  1.00  0.00     0.213 C
ENDBRANCH  10  12
ENDBRANCH   9  10
ENDBRANCH   8   9
ENDBRANCH   7   8
ENDBRANCH   4   6
ENDBRANCH   2   3
BRANCH   2  14
HETATM   14  C10 UNL     1      -6.407  18.163  25.613  1.00  0.00    -0.007 C
HETATM   15  C11 UNL     1      -5.163  17.211  25.574  1.00  0.00     0.005 C
HETATM   16  C12 UNL     1      -4.120  17.867  24.735  1.00  0.00     0.000 C
HETATM   17  C13 UNL     1      -4.576  19.073  23.973  1.00  0.00     0.000 C
HETATM   18  C14 UNL     1      -5.144  20.131  24.895  1.00  0.00     0.000 C
HETATM   19  C15 UNL     1      -5.822  19.449  26.088  1.00  0.00     0.005 C
ENDBRANCH   2  14
ENDBRANCH   1   2
BRANCH   1  20
HETATM   20  C17 UNL     1      -8.536  16.369  24.713  1.00  0.00     0.045 C
BRANCH  20  21
HETATM   21  C18 UNL     1      -9.018  16.774  23.331  1.00  0.00     0.126 C
HETATM   22  O4  UNL     1      -8.002  17.563  22.708  1.00  0.00    -0.380 OA
HETATM   23  C19 UNL     1      -7.824  17.180  21.390  1.00  0.00     0.122 C
HETATM   24  C20 UNL     1      -7.269  15.764  21.270  1.00  0.00     0.032 C
HETATM   25  C24 UNL     1      -9.119  17.219  20.598  1.00  0.00     0.032 C
HETATM   26  C21 UNL     1      -8.141  14.808  22.080  1.00  0.00     0.010 C
HETATM   27  C22 UNL     1      -9.364  15.591  22.485  1.00  0.00     0.015 C
HETATM   28  C23 UNL     1     -10.002  16.126  21.197  1.00  0.00     0.010 C
ENDBRANCH  20  21
ENDBRANCH   1  20
BRANCH   1  29
HETATM   29  C25 UNL     1      -9.931  17.482  26.507  1.00  0.00     0.127 C
BRANCH  29  30
HETATM   30  O5  UNL     1     -10.297  18.745  26.814  1.00  0.00    -0.349 OA
ATOM     31  H5  UNL     1     -10.768  18.802  27.637  1.00  0.00     0.219 HD
ENDBRANCH  29  30
BRANCH  29  32
HETATM   32  N1  UNL     1     -10.849  16.535  26.998  1.00  0.00    -0.261 N
HETATM   33  C26 UNL     1     -11.556  16.758  28.279  1.00  0.00     0.369 C
HETATM   34  O6  UNL     1     -11.133  17.368  29.285  1.00  0.00    -0.238 OA
HETATM   35  O7  UNL     1     -12.814  16.136  28.130  1.00  0.00    -0.301 OA
HETATM   36  C27 UNL     1     -12.921  15.618  26.801  1.00  0.00     0.216 C
HETATM   37  C28 UNL     1     -11.407  15.278  26.610  1.00  0.00     0.213 C
BRANCH  37  38
HETATM   38  C29 UNL     1     -11.235  14.178  27.629  1.00  0.00     0.243 C
HETATM   39  O8  UNL     1     -10.109  13.973  28.072  1.00  0.00    -0.271 OA
HETATM   40  N2  UNL     1     -12.368  13.454  28.011  1.00  0.00    -0.357 N
ATOM     41  H2  UNL     1     -13.240  13.739  27.567  1.00  0.00     0.162 HD
BRANCH  40  42
HETATM   42  C30 UNL     1     -12.477  12.374  28.933  1.00  0.00     0.162 C
BRANCH  42  43
HETATM   43  C31 UNL     1     -12.634  12.749  30.372  1.00  0.00     0.257 C
BRANCH  43  44
HETATM   44  N3  UNL     1     -11.503  13.374  30.955  1.00  0.00    -0.068 N
ATOM     45  H33 UNL     1     -11.644  13.493  31.958  1.00  0.00     0.275 HD
ATOM     46  H32 UNL     1     -10.710  12.733  30.962  1.00  0.00     0.275 HD
ATOM     47  H31 UNL     1     -11.235  14.262  30.529  1.00  0.00     0.275 HD
ENDBRANCH  43  44
BRANCH  43  48
HETATM   48  C32 UNL     1     -13.877  13.576  30.537  1.00  0.00     0.072 C
HETATM   49  N4  UNL     1     -13.776  14.839  30.650  1.00  0.00    -0.395 N
ATOM     50  H42 UNL     1     -12.850  15.264  30.626  1.00  0.00     0.156 HD
ATOM     51  H41 UNL     1     -14.620  15.400  30.761  1.00  0.00     0.156 HD
BRANCH  48  52
HETATM   52  S1  UNL     1     -15.495  12.832  30.577  1.00  0.00    -0.119 SA
HETATM   53  C33 UNL     1     -15.597  11.619  31.917  1.00  0.00     0.097 C
ENDBRANCH  48  52
ENDBRANCH  43  48
ENDBRANCH  42  43
ENDBRANCH  40  42
ENDBRANCH  37  38
ENDBRANCH  29  32
ENDBRANCH   1  29
TORSDOF 19
ENDMDL