MODEL 2
REMARK VINA RESULT: -8.323197241      1.980     11.050
REMARK  16 active torsions:
REMARK  status: ('A' for Active; 'I' for Inactive)
REMARK    1  A    between atoms: C2_2  and  C3_3
REMARK    2  A    between atoms: C3_3  and  C5_5
REMARK    3  A    between atoms: C11_16  and  C12_17
REMARK    4  A    between atoms: C12_17  and  C13_18
REMARK    5  A    between atoms: C14_19  and  C16_21
REMARK    6  A    between atoms: C20_27  and  C21_28
REMARK    7  A    between atoms: C21_28  and  C24_31
REMARK    8  A    between atoms: C24_31  and  N2_32
REMARK    9  A    between atoms: N2_32  and  C25_35
REMARK   10  A    between atoms: C25_35  and  C26_36
REMARK   11  A    between atoms: C26_36  and  C27_37
REMARK   12  A    between atoms: C27_37  and  C28_38
REMARK   13  A    between atoms: C28_38  and  C29_39
REMARK   14  A    between atoms: C29_39  and  N3_40
REMARK       I    between atoms: N3_40  and  C30_42
REMARK   15  A    between atoms: C30_42  and  O7_44
REMARK   16  A    between atoms: O7_44  and  C31_45
ROOT
HETATM    1  C16 UNL     1      -9.002  16.713  26.570  1.00  0.00     0.183 C
HETATM    2  O4  UNL     1      -7.944  17.595  26.212  1.00  0.00    -0.344 OA
HETATM    3  C17 UNL     1      -7.118  17.695  27.300  1.00  0.00     0.158 C
HETATM    4  C18 UNL     1      -6.626  19.123  27.449  1.00  0.00     0.078 C
HETATM    5  C19 UNL     1      -5.891  16.811  27.209  1.00  0.00     0.078 C
HETATM    6  O5  UNL     1      -7.883  17.396  28.419  1.00  0.00    -0.347 OA
HETATM    7  C20 UNL     1      -8.790  16.383  27.969  1.00  0.00     0.168 C
ENDROOT
BRANCH   1   8
HETATM    8  C14 UNL     1      -9.161  15.724  25.517  1.00  0.00    -0.056 C
HETATM    9  C13 UNL     1      -8.542  15.423  24.446  1.00  0.00    -0.019 C
HETATM   10  C15 UNL     1     -10.414  14.840  25.800  1.00  0.00     0.046 C
BRANCH   9  11
HETATM   11  C12 UNL     1      -7.366  15.888  23.722  1.00  0.00     0.068 C
BRANCH  11  12
HETATM   12  C11 UNL     1      -7.621  17.228  23.011  1.00  0.00     0.213 C
HETATM   13  C10 UNL     1      -8.121  16.870  21.663  1.00  0.00     0.225 C
HETATM   14  C9  UNL     1      -7.742  17.424  20.404  1.00  0.00     0.210 C
HETATM   15  O3  UNL     1      -9.008  15.940  21.658  1.00  0.00    -0.286 OA
HETATM   16  C7  UNL     1      -6.370  17.654  19.889  1.00  0.00     0.151 C
HETATM   17  O2  UNL     1      -8.674  17.776  19.596  1.00  0.00    -0.288 OA
HETATM   18  C6  UNL     1      -5.315  17.021  20.697  1.00  0.00     0.229 C
HETATM   19  C8  UNL     1      -6.252  17.163  18.447  1.00  0.00     0.028 C
HETATM   20  N1  UNL     1      -4.370  17.738  21.474  1.00  0.00    -0.346 N
HETATM   21  O1  UNL     1      -5.229  15.767  20.712  1.00  0.00    -0.273 OA
HETATM   22  C5  UNL     1      -4.629  19.030  21.995  1.00  0.00     0.188 C
ATOM     23  H1  UNL     1      -3.466  17.306  21.666  1.00  0.00     0.163 HD
HETATM   24  C35 UNL     1      -6.056  19.164  22.496  1.00  0.00     0.282 C
HETATM   25  O8  UNL     1      -6.602  18.113  23.099  1.00  0.00    -0.306 OA
HETATM   26  O9  UNL     1      -6.516  20.316  22.245  1.00  0.00    -0.263 OA
BRANCH  22  27
HETATM   27  C3  UNL     1      -3.713  19.528  23.047  1.00  0.00     0.014 C
HETATM   28  C4  UNL     1      -2.234  19.374  22.661  1.00  0.00     0.012 C
BRANCH  27  29
HETATM   29  C2  UNL     1      -3.878  19.010  24.424  1.00  0.00     0.002 C
HETATM   30  C1  UNL     1      -3.146  17.735  24.746  1.00  0.00     0.005 C
ENDBRANCH  27  29
ENDBRANCH  22  27
ENDBRANCH  11  12
ENDBRANCH   9  11
ENDBRANCH   1   8
BRANCH   7  31
HETATM   31  C21 UNL     1     -10.019  16.644  28.854  1.00  0.00     0.005 C
HETATM   32  C22 UNL     1      -9.576  17.179  30.206  1.00  0.00     0.019 C
HETATM   33  C23 UNL     1     -10.906  17.671  28.245  1.00  0.00     0.019 C
BRANCH  31  34
HETATM   34  C24 UNL     1     -10.726  15.335  29.101  1.00  0.00     0.243 C
BRANCH  34  35
HETATM   35  N2  UNL     1     -12.155  15.487  29.173  1.00  0.00    -0.074 N
ATOM     36  H22 UNL     1     -12.449  15.667  30.133  1.00  0.00     0.277 HD
ATOM     37  H21 UNL     1     -12.445  16.363  28.738  1.00  0.00     0.277 HD
BRANCH  35  38
HETATM   38  C25 UNL     1     -12.886  14.381  28.619  1.00  0.00     0.232 C
BRANCH  38  39
HETATM   39  C26 UNL     1     -12.130  13.083  28.616  1.00  0.00     0.027 C
BRANCH  39  40
HETATM   40  C27 UNL     1     -12.631  12.072  29.592  1.00  0.00     0.003 C
BRANCH  40  41
HETATM   41  C28 UNL     1     -13.767  12.538  30.453  1.00  0.00     0.020 C
BRANCH  41  42
HETATM   42  C29 UNL     1     -13.411  12.681  31.907  1.00  0.00     0.125 C
BRANCH  42  43
HETATM   43  N3  UNL     1     -12.234  13.514  32.093  1.00  0.00    -0.337 N
HETATM   44  C30 UNL     1     -12.297  14.790  32.696  1.00  0.00     0.361 C
HETATM   45  O6  UNL     1     -13.357  15.314  33.121  1.00  0.00    -0.238 OA
ATOM     46  H3  UNL     1     -11.329  13.164  31.775  1.00  0.00     0.164 HD
BRANCH  44  47
HETATM   47  O7  UNL     1     -11.129  15.520  32.835  1.00  0.00    -0.294 OA
BRANCH  47  48
HETATM   48  C31 UNL     1     -10.130  15.140  33.729  1.00  0.00     0.061 C
HETATM   49  C32 UNL     1     -10.547  13.984  34.624  1.00  0.00     0.046 C
HETATM   50  C33 UNL     1      -8.943  14.662  32.914  1.00  0.00     0.046 C
HETATM   51  C34 UNL     1      -9.732  16.335  34.579  1.00  0.00     0.046 C
ENDBRANCH  47  48
ENDBRANCH  44  47
ENDBRANCH  42  43
ENDBRANCH  41  42
ENDBRANCH  40  41
ENDBRANCH  39  40
ENDBRANCH  38  39
ENDBRANCH  35  38
ENDBRANCH  34  35
ENDBRANCH  31  34
ENDBRANCH   7  31
TORSDOF 16
ENDMDL