MODEL 1
REMARK VINA RESULT: -8.602235663      0.000      0.000
REMARK  17 active torsions:
REMARK  status: ('A' for Active; 'I' for Inactive)
REMARK    1  A    between atoms: C3_3  and  C4_4
REMARK    2  A    between atoms: C9_10  and  O2_11
REMARK    3  A    between atoms: C13_17  and  C14_18
REMARK    4  A    between atoms: C14_18  and  C15_19
REMARK    5  A    between atoms: C15_19  and  C16_21
REMARK    6  A    between atoms: C16_21  and  C17_22
REMARK    7  A    between atoms: C17_22  and  C18_23
REMARK    8  A    between atoms: C18_23  and  C19_25
REMARK    9  A    between atoms: C19_25  and  C20_26
REMARK   10  A    between atoms: C20_26  and  C21_27
REMARK   11  A    between atoms: C21_27  and  C22_28
REMARK   12  A    between atoms: C22_28  and  C23_29
REMARK   13  A    between atoms: C23_29  and  C24_30
REMARK   14  A    between atoms: C24_30  and  C25_32
REMARK   15  A    between atoms: C25_32  and  C26_33
REMARK   16  A    between atoms: C26_33  and  O7_34
REMARK   17  A    between atoms: C26_33  and  C27_36
ROOT
HETATM    1  C4  UNL     1     -11.205  14.908  30.431  1.00  0.00     0.085 C
HETATM    2  C5  UNL     1     -11.210  15.958  31.538  1.00  0.00     0.037 C
HETATM    3  C6  UNL     1      -9.807  16.133  32.068  1.00  0.00     0.056 C
HETATM    4  C7  UNL     1      -9.830  16.378  33.598  1.00  0.00     0.018 C
HETATM    5  C8  UNL     1      -9.233  14.838  31.814  1.00  0.00     0.167 C
HETATM    6  O1  UNL     1      -8.502  14.135  32.478  1.00  0.00    -0.294 OA
HETATM    7  C9  UNL     1      -9.778  14.501  30.422  1.00  0.00     0.151 C
HETATM    8  C10 UNL     1      -8.959  15.361  29.517  1.00  0.00     0.068 C
HETATM    9  C11 UNL     1      -7.695  15.988  30.053  1.00  0.00     0.028 C
HETATM   10  C12 UNL     1      -8.591  14.868  28.165  1.00  0.00     0.144 C
HETATM   11  O3  UNL     1      -7.930  13.947  27.759  1.00  0.00    -0.297 OA
HETATM   12  C13 UNL     1      -9.378  15.981  27.584  1.00  0.00     0.075 C
HETATM   13  C31 UNL     1      -9.973  16.299  28.915  1.00  0.00     0.087 C
HETATM   14  C32 UNL     1     -11.317  15.758  29.221  1.00  0.00     0.149 C
HETATM   15  O9  UNL     1     -12.274  16.004  28.573  1.00  0.00    -0.296 OA
ENDROOT
BRANCH  12  16
HETATM   16  C14 UNL     1      -8.559  17.064  26.955  1.00  0.00     0.091 C
BRANCH  16  17
HETATM   17  C15 UNL     1      -9.341  17.832  25.935  1.00  0.00     0.128 C
HETATM   18  O4  UNL     1     -10.033  18.729  26.372  1.00  0.00    -0.298 OA
BRANCH  17  19
HETATM   19  C16 UNL     1      -9.281  17.531  24.498  1.00  0.00     0.085 C
BRANCH  19  20
HETATM   20  C17 UNL     1      -9.708  16.161  24.104  1.00  0.00     0.085 C
BRANCH  20  21
HETATM   21  C18 UNL     1      -8.649  15.225  23.730  1.00  0.00     0.127 C
HETATM   22  O5  UNL     1      -8.091  14.420  24.454  1.00  0.00    -0.298 OA
BRANCH  21  23
HETATM   23  C19 UNL     1      -8.195  15.255  22.287  1.00  0.00     0.078 C
BRANCH  23  24
HETATM   24  C20 UNL     1      -9.420  15.516  21.454  1.00  0.00     0.007 C
BRANCH  24  25
HETATM   25  C21 UNL     1      -9.304  16.657  20.504  1.00  0.00     0.001 C
BRANCH  25  26
HETATM   26  C22 UNL     1      -8.186  16.544  19.509  1.00  0.00     0.007 C
BRANCH  26  27
HETATM   27  C23 UNL     1      -7.349  17.805  19.460  1.00  0.00     0.078 C
BRANCH  27  28
HETATM   28  C24 UNL     1      -6.320  17.726  20.515  1.00  0.00     0.129 C
HETATM   29  O6  UNL     1      -5.413  16.953  20.438  1.00  0.00    -0.298 OA
BRANCH  28  30
HETATM   30  C25 UNL     1      -6.452  18.652  21.689  1.00  0.00     0.112 C
BRANCH  30  31
HETATM   31  C26 UNL     1      -5.172  19.373  21.982  1.00  0.00     0.158 C
BRANCH  31  32
HETATM   32  O7  UNL     1      -4.228  19.319  20.990  1.00  0.00    -0.393 OA
ATOM     33  H7  UNL     1      -3.633  20.059  20.954  1.00  0.00     0.210 HD
ENDBRANCH  31  32
BRANCH  31  34
HETATM   34  C27 UNL     1      -4.601  18.770  23.264  1.00  0.00     0.238 C
HETATM   35  C28 UNL     1      -5.757  18.345  24.137  1.00  0.00     0.203 C
HETATM   36  O8  UNL     1      -5.472  17.053  24.575  1.00  0.00    -0.387 OA
HETATM   37  C29 UNL     1      -4.198  17.067  25.129  1.00  0.00     0.195 C
HETATM   38  C30 UNL     1      -3.175  17.078  24.010  1.00  0.00     0.259 C
HETATM   39  N1  UNL     1      -3.819  17.604  22.839  1.00  0.00    -0.064 N
ATOM     40  H12 UNL     1      -4.375  16.909  22.343  1.00  0.00     0.277 HD
ATOM     41  H11 UNL     1      -3.166  17.815  22.084  1.00  0.00     0.277 HD
ENDBRANCH  31  34
ENDBRANCH  30  31
ENDBRANCH  28  30
ENDBRANCH  27  28
ENDBRANCH  26  27
ENDBRANCH  25  26
ENDBRANCH  24  25
ENDBRANCH  23  24
ENDBRANCH  21  23
ENDBRANCH  20  21
ENDBRANCH  19  20
ENDBRANCH  17  19
ENDBRANCH  16  17
ENDBRANCH  12  16
BRANCH   7  42
HETATM   42  O2  UNL     1      -9.447  13.204  30.200  1.00  0.00    -0.379 OA
ATOM     43  H2  UNL     1      -9.459  12.858  29.316  1.00  0.00     0.211 HD
ENDBRANCH   7  42
BRANCH   1  44
HETATM   44  C3  UNL     1     -12.264  13.875  30.620  1.00  0.00    -0.051 C
HETATM   45  C2  UNL     1     -12.538  13.030  29.651  1.00  0.00    -0.079 C
HETATM   46  C1  UNL     1     -11.919  12.967  28.318  1.00  0.00     0.043 C
HETATM   47  C38 UNL     1     -13.539  11.849  29.795  1.00  0.00     0.034 C
HETATM   48  C37 UNL     1     -13.724  11.535  31.249  1.00  0.00     0.005 C
HETATM   49  C36 UNL     1     -14.252  12.848  31.733  1.00  0.00     0.013 C
HETATM   50  C33 UNL     1     -13.111  13.833  31.886  1.00  0.00    -0.023 C
HETATM   51  C34 UNL     1     -12.390  13.313  33.092  1.00  0.00     0.019 C
HETATM   52  C35 UNL     1     -13.901  15.110  32.114  1.00  0.00     0.019 C
ENDBRANCH   1  44
TORSDOF 17
ENDMDL