MODEL 5
REMARK VINA RESULT: -6.437591175      3.027      6.603
REMARK  17 active torsions:
REMARK  status: ('A' for Active; 'I' for Inactive)
REMARK    1  A    between atoms: C2_2  and  C3_3
REMARK    2  A    between atoms: C3_3  and  C4_4
REMARK    3  A    between atoms: C4_4  and  C5_5
REMARK    4  A    between atoms: C5_5  and  C6_6
REMARK    5  A    between atoms: C6_6  and  C8_8
REMARK    6  A    between atoms: C10_12  and  C11_13
REMARK    7  A    between atoms: C11_13  and  C12_14
REMARK    8  A    between atoms: C12_14  and  C13_15
REMARK    9  A    between atoms: C25_30  and  O4_31
REMARK   10  A    between atoms: O4_31  and  C26_32
REMARK   11  A    between atoms: C27_36  and  O5_37
REMARK   12  A    between atoms: C28_39  and  O6_40
REMARK   13  A    between atoms: C29_42  and  O7_43
REMARK   14  A    between atoms: O7_43  and  C30_44
REMARK   15  A    between atoms: C30_44  and  C31_46
REMARK   16  A    between atoms: C31_46  and  C32_47
REMARK   17  A    between atoms: C32_47  and  C33_48
ROOT
HETATM    1  C8  UNL     1     -14.796  10.669  33.552  1.00  0.00     0.159 C
HETATM    2  C9  UNL     1     -15.641   9.470  33.459  1.00  0.00     0.271 C
HETATM    3  O1  UNL     1     -16.876   9.626  33.736  1.00  0.00    -0.264 OA
HETATM    4  O2  UNL     1     -15.226   8.255  33.118  1.00  0.00    -0.315 OA
HETATM    5  C10 UNL     1     -14.070   7.676  32.666  1.00  0.00     0.132 C
HETATM    6  C15 UNL     1     -13.697   6.549  33.604  1.00  0.00     0.033 C
HETATM    7  C16 UNL     1     -14.830   6.294  34.548  1.00  0.00     0.006 C
HETATM    8  C17 UNL     1     -14.474   5.714  35.862  1.00  0.00     0.027 C
HETATM    9  C18 UNL     1     -13.164   6.084  36.437  1.00  0.00    -0.030 C
HETATM   10  C19 UNL     1     -12.699   7.240  36.783  1.00  0.00    -0.026 C
HETATM   11  C20 UNL     1     -13.343   8.590  36.713  1.00  0.00     0.004 C
HETATM   12  C21 UNL     1     -13.685   8.970  38.123  1.00  0.00     0.014 C
HETATM   13  C22 UNL     1     -12.422   9.461  35.982  1.00  0.00     0.023 C
HETATM   14  C23 UNL     1     -12.449  10.911  36.060  1.00  0.00     0.090 C
HETATM   15  C24 UNL     1     -11.847  11.366  37.374  1.00  0.00     0.224 C
HETATM   16  O3  UNL     1     -11.046  10.571  37.931  1.00  0.00    -0.273 OA
HETATM   17  N1  UNL     1     -12.135  12.615  37.993  1.00  0.00    -0.332 N
ATOM     18  H1  UNL     1     -12.009  12.637  39.005  1.00  0.00     0.165 HD
HETATM   19  C25 UNL     1     -12.583  13.872  37.395  1.00  0.00     0.255 C
HETATM   20  C29 UNL     1     -12.274  13.820  35.928  1.00  0.00     0.181 C
HETATM   21  C35 UNL     1     -13.195  13.024  35.083  1.00  0.00     0.050 C
HETATM   22  C36 UNL     1     -13.638  11.691  35.713  1.00  0.00     0.072 C
HETATM   23  C37 UNL     1     -14.747  11.110  34.998  1.00  0.00     0.146 C
HETATM   24  O9  UNL     1     -15.843  10.910  35.557  1.00  0.00    -0.297 OA
ENDROOT
BRANCH  19  25
HETATM   25  O4  UNL     1     -13.843  14.250  37.735  1.00  0.00    -0.329 OA
BRANCH  25  26
HETATM   26  C26 UNL     1     -14.340  13.794  38.924  1.00  0.00     0.359 C
HETATM   27  N2  UNL     1     -14.649  14.947  39.787  1.00  0.00    -0.017 N
HETATM   28  C27 UNL     1     -15.914  15.049  39.085  1.00  0.00     0.355 C
ATOM     29  H22 UNL     1     -14.614  14.870  40.803  1.00  0.00     0.283 HD
ATOM     30  H21 UNL     1     -14.014  15.744  39.850  1.00  0.00     0.283 HD
HETATM   31  C28 UNL     1     -15.826  13.549  38.828  1.00  0.00     0.230 C
BRANCH  28  32
HETATM   32  O5  UNL     1     -16.977  15.436  39.896  1.00  0.00    -0.368 OA
ATOM     33  H5  UNL     1     -16.957  16.355  40.140  1.00  0.00     0.212 HD
ENDBRANCH  28  32
BRANCH  31  34
HETATM   34  O6  UNL     1     -16.286  13.203  37.558  1.00  0.00    -0.387 OA
ATOM     35  H6  UNL     1     -15.671  13.361  36.852  1.00  0.00     0.210 HD
ENDBRANCH  31  34
ENDBRANCH  25  26
ENDBRANCH  19  25
BRANCH  20  36
HETATM   36  O7  UNL     1     -12.149  15.104  35.393  1.00  0.00    -0.311 OA
BRANCH  36  37
HETATM   37  C30 UNL     1     -11.029  15.534  34.724  1.00  0.00     0.259 C
HETATM   38  O8  UNL     1     -10.913  16.798  34.580  1.00  0.00    -0.265 OA
BRANCH  37  39
HETATM   39  C31 UNL     1     -10.017  14.597  34.201  1.00  0.00     0.111 C
BRANCH  39  40
HETATM   40  C32 UNL     1      -8.965  15.325  33.372  1.00  0.00     0.009 C
BRANCH  40  41
HETATM   41  C33 UNL     1      -9.133  14.983  31.927  1.00  0.00    -0.004 C
HETATM   42  C34 UNL     1      -9.385  16.260  31.124  1.00  0.00     0.005 C
ENDBRANCH  40  41
ENDBRANCH  39  40
ENDBRANCH  37  39
ENDBRANCH  36  37
ENDBRANCH  20  36
BRANCH   1  43
HETATM   43  C6  UNL     1     -15.234  11.726  32.640  1.00  0.00     0.002 C
HETATM   44  C7  UNL     1     -15.366  11.385  31.180  1.00  0.00     0.011 C
BRANCH  43  45
HETATM   45  C5  UNL     1     -14.640  13.058  32.861  1.00  0.00     0.006 C
BRANCH  45  46
HETATM   46  C4  UNL     1     -14.478  13.995  31.735  1.00  0.00     0.004 C
BRANCH  46  47
HETATM   47  C3  UNL     1     -13.015  14.513  31.678  1.00  0.00     0.026 C
BRANCH  47  48
HETATM   48  C2  UNL     1     -12.468  14.247  30.325  1.00  0.00    -0.037 C
HETATM   49  C1  UNL     1     -12.271  13.038  29.822  1.00  0.00     0.007 C
ENDBRANCH  47  48
ENDBRANCH  46  47
ENDBRANCH  45  46
ENDBRANCH  43  45
ENDBRANCH   1  43
BRANCH   5  50
HETATM   50  C11 UNL     1     -14.336   7.138  31.271  1.00  0.00     0.032 C
BRANCH  50  51
HETATM   51  C12 UNL     1     -13.203   6.366  30.698  1.00  0.00     0.002 C
BRANCH  51  52
HETATM   52  C13 UNL     1     -11.944   7.189  30.532  1.00  0.00    -0.004 C
HETATM   53  C14 UNL     1     -10.921   6.448  29.691  1.00  0.00     0.005 C
ENDBRANCH  51  52
ENDBRANCH  50  51
ENDBRANCH   5  50
TORSDOF 17
ENDMDL