MODEL 4
REMARK VINA RESULT: -8.333845206      4.087      8.361
REMARK  9 active torsions:
REMARK  status: ('A' for Active; 'I' for Inactive)
REMARK    1  A    between atoms: C2_2  and  C3_3
REMARK    2  A    between atoms: C3_3  and  C4_4
REMARK    3  A    between atoms: C6_8  and  N2_9
REMARK    4  A    between atoms: N3_12  and  C9_13
REMARK    5  A    between atoms: C9_13  and  C10_14
REMARK    6  A    between atoms: C12_18  and  N5_19
REMARK    7  A    between atoms: C13_24  and  N7_25
REMARK    8  A    between atoms: C15_29  and  O1_30
REMARK    9  A    between atoms: O1_30  and  C16_31
ROOT
HETATM    1  N2  UNL     1      11.951  24.176  15.613  1.00  0.00    -0.338 N
HETATM    2  C7  UNL     1      10.572  24.568  15.697  1.00  0.00     0.156 C
HETATM    3  C8  UNL     1      10.108  23.962  17.012  1.00  0.00     0.294 C
HETATM    4  N3  UNL     1      11.275  23.958  17.823  1.00  0.00     0.111 N
HETATM    5  C14 UNL     1      12.420  24.032  16.980  1.00  0.00     0.399 C
ENDROOT
BRANCH   1   6
HETATM    6  C6  UNL     1      12.803  23.940  14.498  1.00  0.00     0.138 A
HETATM    7  N1  UNL     1      13.977  24.574  14.331  1.00  0.00    -0.350 N
HETATM    8  C5  UNL     1      14.816  24.390  13.305  1.00  0.00     0.097 A
ATOM      9  H1  UNL     1      14.251  25.250  15.044  1.00  0.00     0.166 HD
HETATM   10  C4  UNL     1      14.510  23.503  12.319  1.00  0.00    -0.040 A
HETATM   11  C21 UNL     1      13.306  22.810  12.429  1.00  0.00     0.049 A
HETATM   12  C15 UNL     1      12.468  23.027  13.501  1.00  0.00     0.113 A
BRANCH  10  13
HETATM   13  C3  UNL     1      15.435  23.293  11.181  1.00  0.00     0.040 C
BRANCH  13  14
HETATM   14  C2  UNL     1      14.763  23.637   9.860  1.00  0.00     0.000 C
HETATM   15  C1  UNL     1      14.759  22.482   8.900  1.00  0.00     0.005 C
ENDBRANCH  13  14
ENDBRANCH  10  13
BRANCH  12  16
HETATM   16  O1  UNL     1      11.299  22.338  13.583  1.00  0.00    -0.342 OA
BRANCH  16  17
HETATM   17  C16 UNL     1      10.569  21.718  12.585  1.00  0.00     0.129 C
HETATM   18  C17 UNL     1      10.192  20.285  12.899  1.00  0.00     0.032 C
HETATM   19  C18 UNL     1       9.115  20.053  11.829  1.00  0.00     0.002 C
HETATM   20  C19 UNL     1       8.391  21.379  11.752  1.00  0.00     0.002 C
HETATM   21  C20 UNL     1       9.176  22.366  12.578  1.00  0.00     0.032 C
ENDBRANCH  16  17
ENDBRANCH  12  16
ENDBRANCH   1   6
BRANCH   4  22
HETATM   22  C9  UNL     1      11.246  24.889  18.887  1.00  0.00     0.318 C
BRANCH  22  23
HETATM   23  C10 UNL     1      10.090  24.848  19.784  1.00  0.00     0.030 A
HETATM   24  C11 UNL     1       8.879  25.436  19.519  1.00  0.00     0.118 A
HETATM   25  N4  UNL     1       7.829  25.351  20.384  1.00  0.00    -0.201 N
HETATM   26  C12 UNL     1       7.975  24.672  21.536  1.00  0.00     0.677 A
ATOM     27  H4  UNL     1       6.940  25.798  20.160  1.00  0.00     0.183 HD
HETATM   28  N6  UNL     1       9.146  24.075  21.845  1.00  0.00    -0.177 N
HETATM   29  C13 UNL     1      10.183  24.154  21.001  1.00  0.00     0.124 A
ATOM     30  H6  UNL     1       9.240  23.562  22.721  1.00  0.00     0.185 HD
BRANCH  26  31
HETATM   31  N5  UNL     1       7.009  24.555  22.403  1.00  0.00    -0.234 N
ATOM     32  H52 UNL     1       7.279  24.461  23.382  1.00  0.00     0.174 HD
ATOM     33  H51 UNL     1       6.026  24.555  22.128  1.00  0.00     0.174 HD
ENDBRANCH  26  31
BRANCH  29  34
HETATM   34  N7  UNL     1      11.311  23.599  21.264  1.00  0.00    -0.385 N
ATOM     35  H72 UNL     1      12.174  23.893  20.806  1.00  0.00     0.157 HD
ATOM     36  H71 UNL     1      11.304  22.849  21.956  1.00  0.00     0.157 HD
ENDBRANCH  29  34
ENDBRANCH  22  23
ENDBRANCH   4  22
TORSDOF 9
ENDMDL