MODEL 1
REMARK VINA RESULT: -8.866701361      0.000      0.000
REMARK  11 active torsions:
REMARK  status: ('A' for Active; 'I' for Inactive)
REMARK    1  A    between atoms: C2_3  and  C3_4
REMARK    2  A    between atoms: C2_3  and  C14_24
REMARK    3  A    between atoms: C3_4  and  O1_5
REMARK    4  A    between atoms: O1_5  and  C4_6
REMARK    5  A    between atoms: C9_11  and  C10_12
REMARK    6  A    between atoms: C10_12  and  O2_13
REMARK    7  A    between atoms: C11_15  and  O3_16
REMARK    8  A    between atoms: C12_18  and  O4_19
REMARK    9  A    between atoms: C13_21  and  O5_22
REMARK   10  A    between atoms: C14_24  and  S1_25
REMARK   11  A    between atoms: S1_25  and  C15_26
ROOT
HETATM    1  C1  UNL     1       8.033  22.549  12.565  1.00  0.00     0.221 C
HETATM    2  N1  UNL     1       8.935  21.819  12.460  1.00  0.00    -0.463 NA
HETATM    3  C2  UNL     1      10.025  20.956  12.330  1.00  0.00     0.194 C
ENDROOT
BRANCH   3   4
HETATM    4  C3  UNL     1      11.138  21.284  13.262  1.00  0.00     0.208 C
BRANCH   4   5
HETATM    5  O1  UNL     1      11.913  22.331  12.839  1.00  0.00    -0.380 OA
BRANCH   5   6
HETATM    6  C4  UNL     1      11.806  23.474  13.666  1.00  0.00     0.152 C
HETATM    7  C5  UNL     1      12.906  24.417  13.409  1.00  0.00     0.034 C
HETATM    8  C6  UNL     1      14.001  24.613  14.364  1.00  0.00     0.002 C
HETATM    9  C7  UNL     1      13.830  25.642  15.435  1.00  0.00     0.001 C
HETATM   10  C8  UNL     1      12.415  26.051  15.743  1.00  0.00     0.009 C
HETATM   11  C9  UNL     1      11.876  25.437  16.982  1.00  0.00     0.041 C
HETATM   12  C11 UNL     1      10.704  24.587  16.909  1.00  0.00     0.155 C
HETATM   13  C12 UNL     1      10.332  23.883  15.670  1.00  0.00     0.178 C
HETATM   14  C13 UNL     1      11.438  23.072  15.035  1.00  0.00     0.178 C
BRANCH  11  15
HETATM   15  C10 UNL     1      11.587  26.526  18.037  1.00  0.00     0.171 C
BRANCH  15  16
HETATM   16  O2  UNL     1      11.228  27.714  17.414  1.00  0.00    -0.400 OA
ATOM     17  H2  UNL     1      11.909  28.366  17.534  1.00  0.00     0.209 HD
ENDBRANCH  15  16
ENDBRANCH  11  15
BRANCH  12  18
HETATM   18  O3  UNL     1       9.545  25.306  17.307  1.00  0.00    -0.392 OA
ATOM     19  H3  UNL     1       9.163  25.756  16.562  1.00  0.00     0.210 HD
ENDBRANCH  12  18
BRANCH  13  20
HETATM   20  O4  UNL     1       9.661  24.694  14.724  1.00  0.00    -0.390 OA
ATOM     21  H4  UNL     1       8.802  24.372  14.477  1.00  0.00     0.210 HD
ENDBRANCH  13  20
BRANCH  14  22
HETATM   22  O5  UNL     1      12.431  22.933  15.963  1.00  0.00    -0.390 OA
ATOM     23  H5  UNL     1      12.198  22.636  16.835  1.00  0.00     0.210 HD
ENDBRANCH  14  22
ENDBRANCH   5   6
ENDBRANCH   4   5
ENDBRANCH   3   4
BRANCH   3  24
HETATM   24  C14 UNL     1       9.602  19.519  12.393  1.00  0.00     0.115 C
BRANCH  24  25
HETATM   25  S1  UNL     1       8.428  19.144  11.075  1.00  0.00    -0.161 SA
BRANCH  25  26
HETATM   26  C15 UNL     1       8.047  17.394  11.016  1.00  0.00     0.047 C
HETATM   27  C16 UNL     1       9.323  16.543  10.953  1.00  0.00     0.015 C
HETATM   28  C17 UNL     1       8.841  15.113  11.163  1.00  0.00     0.001 C
HETATM   29  C18 UNL     1       8.042  14.684   9.962  1.00  0.00     0.000 C
HETATM   30  C19 UNL     1       6.950  15.634   9.589  1.00  0.00     0.001 C
HETATM   31  C20 UNL     1       7.291  17.078   9.744  1.00  0.00     0.015 C
ENDBRANCH  25  26
ENDBRANCH  24  25
ENDBRANCH   3  24
TORSDOF 11
ENDMDL