MODEL 4
REMARK VINA RESULT: -9.184976594      2.913      3.820
REMARK  10 active torsions:
REMARK  status: ('A' for Active; 'I' for Inactive)
REMARK    1  A    between atoms: N1_1  and  C1_4
REMARK    2  A    between atoms: C2_7  and  N3_8
REMARK    3  A    between atoms: N3_8  and  C3_9
REMARK    4  A    between atoms: N3_8  and  C6_16
REMARK    5  A    between atoms: C3_9  and  C4_10
REMARK    6  A    between atoms: C4_10  and  C5_11
REMARK    7  A    between atoms: C5_11  and  N4_12
REMARK    8  A    between atoms: C6_16  and  C7_17
REMARK    9  A    between atoms: C13_25  and  N6_26
REMARK   10  A    between atoms: N6_26  and  C14_28
ROOT
HETATM    1  C1  UNL     1       9.588  23.727  13.815  1.00  0.00     0.705 A
HETATM    2  N2  UNL     1      10.328  24.081  14.883  1.00  0.00    -0.022 N
ATOM      3  H2  UNL     1      10.209  25.014  15.278  1.00  0.00     0.203 HD
HETATM    4  C2  UNL     1      11.219  23.243  15.447  1.00  0.00     0.709 A
HETATM    5  N5  UNL     1      11.334  22.032  14.892  1.00  0.00    -0.021 N
ATOM      6  H5  UNL     1      11.998  21.370  15.291  1.00  0.00     0.203 HD
HETATM    7  C13 UNL     1      10.599  21.655  13.817  1.00  0.00     0.711 A
HETATM    8  N7  UNL     1       9.720  22.494  13.268  1.00  0.00    -0.021 N
ATOM      9  H7  UNL     1       9.163  22.217  12.459  1.00  0.00     0.203 HD
ENDROOT
BRANCH   4  10
HETATM   10  N3  UNL     1      11.968  23.689  16.554  1.00  0.00    -0.216 N
BRANCH  10  11
HETATM   11  C3  UNL     1      11.185  23.843  17.794  1.00  0.00     0.143 C
BRANCH  11  12
HETATM   12  C4  UNL     1      11.215  25.226  18.352  1.00  0.00     0.048 C
BRANCH  12  13
HETATM   13  C5  UNL     1       9.793  25.611  18.791  1.00  0.00     0.231 C
BRANCH  13  14
HETATM   14  N4  UNL     1       8.785  24.901  18.063  1.00  0.00    -0.079 N
ATOM     15  H43 UNL     1       7.856  25.277  18.259  1.00  0.00     0.274 HD
ATOM     16  H42 UNL     1       8.837  25.108  17.065  1.00  0.00     0.274 HD
ATOM     17  H41 UNL     1       8.817  23.896  18.232  1.00  0.00     0.274 HD
ENDBRANCH  13  14
ENDBRANCH  12  13
ENDBRANCH  11  12
ENDBRANCH  10  11
BRANCH  10  18
HETATM   18  C6  UNL     1      13.345  23.987  16.646  1.00  0.00     0.145 C
BRANCH  18  19
HETATM   19  C7  UNL     1      14.064  24.484  15.457  1.00  0.00     0.004 C
HETATM   20  C8  UNL     1      15.546  24.422  15.447  1.00  0.00     0.006 C
HETATM   21  C9  UNL     1      16.100  25.558  14.564  1.00  0.00     0.000 C
HETATM   22  C10 UNL     1      16.020  26.865  15.290  1.00  0.00     0.000 C
HETATM   23  C11 UNL     1      14.740  26.816  16.129  1.00  0.00     0.000 C
HETATM   24  C12 UNL     1      13.716  25.986  15.355  1.00  0.00     0.006 C
ENDBRANCH  18  19
ENDBRANCH  10  18
ENDBRANCH   4  10
BRANCH   1  25
HETATM   25  N1  UNL     1       8.730  24.514  13.259  1.00  0.00    -0.234 N
ATOM     26  H12 UNL     1       7.768  24.178  13.216  1.00  0.00     0.174 HD
ATOM     27  H11 UNL     1       8.978  25.426  12.877  1.00  0.00     0.174 HD
ENDBRANCH   1  25
BRANCH   7  28
HETATM   28  N6  UNL     1      10.747  20.480  13.316  1.00  0.00    -0.191 N
ATOM     29  H6  UNL     1      11.605  19.971  13.530  1.00  0.00     0.184 HD
BRANCH  28  30
HETATM   30  C14 UNL     1       9.790  19.850  12.483  1.00  0.00     0.051 A
HETATM   31  C15 UNL     1       8.874  20.592  11.781  1.00  0.00     0.030 A
HETATM   32  C16 UNL     1       7.941  19.978  10.975  1.00  0.00     0.012 A
HETATM   33  C17 UNL     1       7.898  18.612  10.846  1.00  0.00    -0.023 A
HETATM   34  C18 UNL     1       8.803  17.831  11.537  1.00  0.00     0.077 A
HETATM   35  C21 UNL     1       7.042  17.673  10.087  1.00  0.00     0.068 C
HETATM   36  C19 UNL     1       9.720  18.475  12.335  1.00  0.00     0.067 A
HETATM   37  O1  UNL     1       8.589  16.476  11.271  1.00  0.00    -0.350 OA
HETATM   38  C20 UNL     1       7.881  16.408  10.042  1.00  0.00     0.180 C
ENDBRANCH  28  30
ENDBRANCH   7  28
TORSDOF 10
ENDMDL