MODEL 2
REMARK VINA RESULT: -9.443168362      1.170      1.615
REMARK  10 active torsions:
REMARK  status: ('A' for Active; 'I' for Inactive)
REMARK    1  A    between atoms: O1_1  and  C1_3
REMARK    2  A    between atoms: C1_3  and  C2_4
REMARK    3  A    between atoms: C2_4  and  N1_5
REMARK    4  A    between atoms: C5_8  and  C6_9
REMARK    5  A    between atoms: C7_12  and  C8_13
REMARK    6  A    between atoms: C8_13  and  O2_14
REMARK    7  A    between atoms: C8_13  and  C9_16
REMARK    8  A    between atoms: C9_16  and  C10_17
REMARK    9  A    between atoms: C10_17  and  C11_18
REMARK   10  A    between atoms: C20_32  and  O3_33
ROOT
HETATM    1  C6  UNL     1       9.989  20.711  12.571  1.00  0.00     0.111 A
HETATM    2  N2  UNL     1       9.049  20.639  11.612  1.00  0.00    -0.342 N
ATOM      3  H2  UNL     1       8.664  21.447  11.121  1.00  0.00     0.167 HD
HETATM    4  C7  UNL     1       8.678  19.362  11.383  1.00  0.00     0.055 A
HETATM    5  C15 UNL     1       9.416  18.589  12.233  1.00  0.00     0.117 A
HETATM    6  N4  UNL     1      10.199  19.423  12.938  1.00  0.00    -0.350 N
ATOM      7  H4  UNL     1      10.861  19.126  13.655  1.00  0.00     0.166 HD
ENDROOT
BRANCH   1   8
HETATM    8  C5  UNL     1      10.644  21.890  13.109  1.00  0.00    -0.014 C
HETATM    9  C4  UNL     1      11.953  22.063  13.034  1.00  0.00     0.014 C
HETATM   10  C3  UNL     1      12.430  23.354  13.652  1.00  0.00     0.301 C
HETATM   11  N1  UNL     1      11.983  23.402  15.025  1.00  0.00     0.104 N
HETATM   12  C17 UNL     1      10.587  23.158  15.127  1.00  0.00     0.278 C
HETATM   13  C16 UNL     1       9.886  22.971  13.779  1.00  0.00     0.072 C
BRANCH  11  14
HETATM   14  C2  UNL     1      12.339  24.640  15.682  1.00  0.00     0.181 C
HETATM   15  C18 UNL     1      13.642  24.520  16.445  1.00  0.00     0.046 C
HETATM   16  C19 UNL     1      13.559  25.190  17.819  1.00  0.00     0.034 C
HETATM   17  C20 UNL     1      12.570  24.466  18.706  1.00  0.00     0.118 C
HETATM   18  C21 UNL     1      11.438  23.924  17.832  1.00  0.00     0.034 C
HETATM   19  C22 UNL     1      11.270  24.951  16.700  1.00  0.00     0.046 C
BRANCH  14  20
HETATM   20  C1  UNL     1      12.544  25.769  14.698  1.00  0.00     0.205 C
BRANCH  20  21
HETATM   21  O1  UNL     1      11.388  26.563  14.741  1.00  0.00    -0.398 OA
ATOM     22  H1  UNL     1      11.384  27.088  13.948  1.00  0.00     0.209 HD
ENDBRANCH  20  21
ENDBRANCH  14  20
BRANCH  17  23
HETATM   23  O3  UNL     1      12.057  25.338  19.640  1.00  0.00    -0.396 OA
ATOM     24  H3  UNL     1      12.656  25.411  20.374  1.00  0.00     0.210 HD
ENDBRANCH  17  23
ENDBRANCH  11  14
ENDBRANCH   1   8
BRANCH   4  25
HETATM   25  C8  UNL     1       7.683  18.817  10.420  1.00  0.00     0.169 C
BRANCH  25  26
HETATM   26  O2  UNL     1       6.609  18.334  11.164  1.00  0.00    -0.389 OA
ATOM     27  H2  UNL     1       6.259  17.583  10.699  1.00  0.00     0.210 HD
ENDBRANCH  25  26
BRANCH  25  28
HETATM   28  C9  UNL     1       8.276  17.611   9.716  1.00  0.00     0.038 C
BRANCH  28  29
HETATM   29  C10 UNL     1       7.386  16.414   9.837  1.00  0.00     0.009 C
BRANCH  29  30
HETATM   30  C11 UNL     1       7.957  15.408  10.816  1.00  0.00     0.013 C
HETATM   31  C12 UNL     1       7.605  14.013  10.373  1.00  0.00     0.034 C
HETATM   32  C13 UNL     1       8.930  13.295  10.442  1.00  0.00     0.232 C
HETATM   33  N3  UNL     1       9.840  14.306   9.898  1.00  0.00    -0.075 N
HETATM   34  C14 UNL     1       9.476  15.455  10.717  1.00  0.00     0.237 C
ATOM     35  H32 UNL     1      10.828  14.057   9.900  1.00  0.00     0.277 HD
ATOM     36  H31 UNL     1       9.790  14.449   8.889  1.00  0.00     0.277 HD
ENDBRANCH  29  30
ENDBRANCH  28  29
ENDBRANCH  25  28
ENDBRANCH   4  25
TORSDOF 10
ENDMDL