MODEL 1
REMARK VINA RESULT: -7.064951529      0.000      0.000
REMARK  10 active torsions:
REMARK  status: ('A' for Active; 'I' for Inactive)
REMARK    1  A    between atoms: C2_2  and  C3_3
REMARK    2  A    between atoms: C3_3  and  C4_4
REMARK    3  A    between atoms: C4_4  and  C5_5
REMARK    4  A    between atoms: C5_5  and  C6_6
REMARK    5  A    between atoms: C7_7  and  O1_8
REMARK    6  A    between atoms: C9_13  and  O2_14
REMARK    7  A    between atoms: N2_16  and  C10_17
REMARK    8  A    between atoms: C10_17  and  C11_18
REMARK    9  A    between atoms: C13_20  and  N3_21
REMARK   10  A    between atoms: C14_24  and  C15_25
REMARK       I    between atoms: C15_25  and  N4_27
ROOT
HETATM    1  C6  UNL     1      11.418  23.126  14.130  1.00  0.00     0.044 A
HETATM    2  C7  UNL     1      10.250  23.753  14.574  1.00  0.00     0.150 A
HETATM    3  N1  UNL     1      10.377  24.619  15.588  1.00  0.00    -0.332 N
ATOM      4  H1  UNL     1       9.544  25.094  15.937  1.00  0.00     0.168 HD
HETATM    5  C8  UNL     1      11.558  24.884  16.160  1.00  0.00     0.101 A
HETATM    6  C9  UNL     1      11.613  25.784  17.202  1.00  0.00     0.172 A
HETATM    7  N2  UNL     1      12.777  26.077  17.809  1.00  0.00    -0.311 N
HETATM    8  C13 UNL     1      13.896  25.485  17.391  1.00  0.00     0.120 A
HETATM    9  C14 UNL     1      13.911  24.567  16.343  1.00  0.00     0.092 A
HETATM   10  C20 UNL     1      12.727  24.269  15.729  1.00  0.00     0.065 A
HETATM   11  C21 UNL     1      12.647  23.368  14.686  1.00  0.00     0.196 A
HETATM   12  O4  UNL     1      13.701  22.830  14.313  1.00  0.00    -0.287 OA
ENDROOT
BRANCH   9  13
HETATM   13  C15 UNL     1      15.170  23.955  15.936  1.00  0.00     0.258 C
HETATM   14  O3  UNL     1      15.813  24.507  15.011  1.00  0.00    -0.267 OA
HETATM   15  N4  UNL     1      15.710  22.779  16.517  1.00  0.00    -0.348 N
HETATM   16  C16 UNL     1      16.953  22.137  16.150  1.00  0.00     0.126 C
HETATM   17  C19 UNL     1      15.090  21.995  17.597  1.00  0.00     0.126 C
HETATM   18  C17 UNL     1      16.964  20.813  16.858  1.00  0.00     0.021 C
HETATM   19  C18 UNL     1      16.229  21.171  18.156  1.00  0.00     0.021 C
ENDBRANCH   9  13
BRANCH   8  20
HETATM   20  N3  UNL     1      15.046  25.761  17.974  1.00  0.00    -0.384 N
ATOM     21  H32 UNL     1      15.024  26.370  18.793  1.00  0.00     0.157 HD
ATOM     22  H31 UNL     1      15.913  25.370  17.606  1.00  0.00     0.157 HD
ENDBRANCH   8  20
BRANCH   7  23
HETATM   23  C10 UNL     1      12.838  27.012  18.892  1.00  0.00     0.132 C
BRANCH  23  24
HETATM   24  C11 UNL     1      13.177  28.415  18.441  1.00  0.00     0.016 C
HETATM   25  C12 UNL     1      11.971  29.313  18.608  1.00  0.00     0.006 C
ENDBRANCH  23  24
ENDBRANCH   7  23
BRANCH   6  26
HETATM   26  O2  UNL     1      10.409  26.371  17.595  1.00  0.00    -0.344 OA
ATOM     27  H2  UNL     1       9.667  25.791  17.717  1.00  0.00     0.219 HD
ENDBRANCH   6  26
BRANCH   1  28
HETATM   28  C5  UNL     1      11.255  22.197  12.999  1.00  0.00     0.047 C
BRANCH  28  29
HETATM   29  C4  UNL     1      10.977  20.783  13.407  1.00  0.00     0.009 C
BRANCH  29  30
HETATM   30  C3  UNL     1       9.922  20.052  12.658  1.00  0.00     0.026 C
BRANCH  30  31
HETATM   31  C2  UNL     1       9.080  20.961  11.862  1.00  0.00    -0.037 C
HETATM   32  C1  UNL     1       8.044  20.489  11.191  1.00  0.00     0.007 C
ENDBRANCH  30  31
ENDBRANCH  29  30
ENDBRANCH  28  29
ENDBRANCH   1  28
BRANCH   2  33
HETATM   33  O1  UNL     1       9.028  23.478  13.979  1.00  0.00    -0.346 OA
ATOM     34  H1  UNL     1       8.223  23.837  14.334  1.00  0.00     0.219 HD
ENDBRANCH   2  33
TORSDOF 10
ENDMDL