MODEL 3
REMARK VINA RESULT: -6.835604165      3.376      7.885
REMARK  9 active torsions:
REMARK  status: ('A' for Active; 'I' for Inactive)
REMARK    1  A    between atoms: C2_2  and  C3_3
REMARK    2  A    between atoms: N1_10  and  N2_12
REMARK    3  A    between atoms: N2_12  and  C10_14
REMARK    4  A    between atoms: C11_17  and  N4_18
REMARK    5  A    between atoms: C13_25  and  N7_26
REMARK       I    between atoms: N7_26  and  C14_28
REMARK    6  A    between atoms: C14_28  and  C15_30
REMARK    7  A    between atoms: C15_30  and  N8_31
REMARK    8  A    between atoms: N8_31  and  C16_32
REMARK    9  A    between atoms: N8_31  and  C18_34
ROOT
HETATM    1  C10 UNL     1      12.040  23.130  13.312  1.00  0.00     0.166 A
HETATM    2  N3  UNL     1      12.232  24.270  13.998  1.00  0.00    -0.173 N
ATOM      3  H3  UNL     1      13.181  24.542  14.256  1.00  0.00     0.186 HD
HETATM    4  C11 UNL     1      11.203  25.061  14.352  1.00  0.00     0.678 A
HETATM    5  N5  UNL     1       9.925  24.749  14.035  1.00  0.00    -0.177 N
ATOM      6  H5  UNL     1       9.162  25.366  14.314  1.00  0.00     0.185 HD
HETATM    7  C12 UNL     1       9.668  23.627  13.353  1.00  0.00     0.162 A
HETATM    8  N6  UNL     1       8.325  23.265  12.996  1.00  0.00    -0.080 NA
HETATM    9  C13 UNL     1      10.743  22.823  12.996  1.00  0.00     0.123 A
ENDROOT
BRANCH   1  10
HETATM   10  N2  UNL     1      13.037  22.355  12.964  1.00  0.00    -0.283 N
ATOM     11  H2  UNL     1      13.344  21.622  13.604  1.00  0.00     0.188 HD
BRANCH  10  12
HETATM   12  N1  UNL     1      13.685  22.504  11.747  1.00  0.00    -0.306 N
HETATM   13  C9  UNL     1      14.733  23.222  11.549  1.00  0.00     0.012 C
HETATM   14  C6  UNL     1      15.306  23.271  10.156  1.00  0.00    -0.007 C
HETATM   15  C20 UNL     1      15.431  24.010  12.572  1.00  0.00     0.059 C
HETATM   16  C5  UNL     1      16.731  22.835  10.268  1.00  0.00     0.015 C
HETATM   17  C7  UNL     1      14.510  22.414   9.216  1.00  0.00     0.021 C
HETATM   18  C8  UNL     1      15.153  24.708   9.708  1.00  0.00     0.021 C
HETATM   19  C4  UNL     1      17.500  23.743  11.161  1.00  0.00     0.006 C
HETATM   20  C3  UNL     1      16.912  23.995  12.498  1.00  0.00    -0.010 C
ATOM     21  H1  UNL     1      13.298  22.006  10.945  1.00  0.00     0.186 HD
BRANCH  20  22
HETATM   22  C2  UNL     1      17.433  25.363  12.961  1.00  0.00     0.000 C
HETATM   23  C1  UNL     1      18.696  25.704  12.172  1.00  0.00     0.005 C
ENDBRANCH  20  22
ENDBRANCH  10  12
ENDBRANCH   1  10
BRANCH   9  24
HETATM   24  N7  UNL     1      10.456  21.640  12.283  1.00  0.00    -0.320 N
HETATM   25  C14 UNL     1      10.355  20.377  12.951  1.00  0.00     0.250 C
HETATM   26  O1  UNL     1      10.539  20.383  14.191  1.00  0.00    -0.271 OA
ATOM     27  H7  UNL     1      10.317  21.685  11.274  1.00  0.00     0.169 HD
BRANCH  25  28
HETATM   28  C15 UNL     1      10.051  19.192  12.147  1.00  0.00     0.374 C
BRANCH  28  29
HETATM   29  N8  UNL     1       8.663  18.810  12.129  1.00  0.00     0.096 N
BRANCH  29  30
HETATM   30  C16 UNL     1       7.999  19.562  11.083  1.00  0.00     0.268 C
HETATM   31  C17 UNL     1       7.436  18.685   9.993  1.00  0.00     0.037 C
ENDBRANCH  29  30
BRANCH  29  32
HETATM   32  C18 UNL     1       8.478  17.410  11.826  1.00  0.00     0.268 C
HETATM   33  C19 UNL     1       9.770  16.633  11.871  1.00  0.00     0.037 C
ENDBRANCH  29  32
ENDBRANCH  28  29
ENDBRANCH  25  28
ENDBRANCH   9  24
BRANCH   4  34
HETATM   34  N4  UNL     1      11.428  26.140  15.005  1.00  0.00    -0.234 N
ATOM     35  H42 UNL     1      11.182  27.032  14.576  1.00  0.00     0.174 HD
ATOM     36  H41 UNL     1      11.849  26.090  15.933  1.00  0.00     0.174 HD
ENDBRANCH   4  34
TORSDOF 9
ENDMDL