MODEL 3
REMARK VINA RESULT: -8.428745327      4.888      7.294
REMARK  9 active torsions:
REMARK  status: ('A' for Active; 'I' for Inactive)
REMARK    1  A    between atoms: C2_2  and  N1_3
REMARK       I    between atoms: N1_3  and  C3_5
REMARK       I    between atoms: C3_5  and  N2_6
REMARK       I    between atoms: C3_5  and  N8_28
REMARK    2  A    between atoms: N2_6  and  C4_8
REMARK    3  A    between atoms: C4_8  and  C5_9
REMARK    4  A    between atoms: C5_9  and  C6_10
REMARK    5  A    between atoms: C6_10  and  N3_11
REMARK    6  A    between atoms: N3_11  and  C7_13
REMARK    7  A    between atoms: C10_22  and  S1_23
REMARK       I    between atoms: N8_28  and  C13_30
REMARK    8  A    between atoms: C13_30  and  C14_32
REMARK    9  A    between atoms: C14_32  and  C15_33
ROOT
HETATM    1  C5  UNL     1      11.278  21.847  12.671  1.00  0.00     0.040 C
ENDROOT
BRANCH   1   2
HETATM    2  C4  UNL     1      12.075  22.875  13.472  1.00  0.00     0.139 C
BRANCH   2   3
HETATM    3  N2  UNL     1      13.484  22.653  13.438  1.00  0.00    -0.226 N
HETATM    4  C3  UNL     1      14.436  23.727  13.378  1.00  0.00     0.676 C
HETATM    5  N1  UNL     1      14.721  24.305  14.493  1.00  0.00    -0.227 N
HETATM    6  N8  UNL     1      15.031  24.127  12.152  1.00  0.00    -0.160 N
ATOM      7  H1  UNL     1      14.285  24.005  15.364  1.00  0.00     0.177 HD
HETATM    8  C13 UNL     1      14.727  23.499  10.917  1.00  0.00     0.236 C
ATOM      9  H8  UNL     1      15.701  24.896  12.160  1.00  0.00     0.187 HD
HETATM   10  O1  UNL     1      13.901  22.553  10.907  1.00  0.00    -0.273 OA
ATOM     11  H2  UNL     1      13.829  21.693  13.459  1.00  0.00     0.177 HD
BRANCH   5  12
HETATM   12  C2  UNL     1      15.669  25.384  14.476  1.00  0.00     0.133 C
HETATM   13  C1  UNL     1      15.090  26.518  15.292  1.00  0.00     0.027 C
ENDBRANCH   5  12
BRANCH   8  14
HETATM   14  C14 UNL     1      15.358  23.938   9.670  1.00  0.00     0.112 C
BRANCH  14  15
HETATM   15  C15 UNL     1      16.103  22.788   8.989  1.00  0.00    -0.043 C
HETATM   16  C16 UNL     1      15.117  21.892   8.260  1.00  0.00     0.015 C
HETATM   17  C17 UNL     1      17.038  23.378   7.981  1.00  0.00     0.015 C
HETATM   18  C18 UNL     1      16.897  22.003  10.008  1.00  0.00     0.015 C
ENDBRANCH  14  15
ENDBRANCH   8  14
ENDBRANCH   2   3
ENDBRANCH   1   2
BRANCH   1  19
HETATM   19  C6  UNL     1      10.662  20.884  13.655  1.00  0.00     0.123 C
BRANCH  19  20
HETATM   20  N3  UNL     1      10.429  19.586  13.097  1.00  0.00    -0.374 N
ATOM     21  H3  UNL     1      11.009  18.787  13.356  1.00  0.00     0.161 HD
BRANCH  20  22
HETATM   22  C7  UNL     1       9.456  19.460  12.251  1.00  0.00     0.133 A
HETATM   23  N4  UNL     1       8.630  20.467  11.936  1.00  0.00    -0.337 N
HETATM   24  C8  UNL     1       7.626  20.300  11.043  1.00  0.00     0.183 A
ATOM     25  H4  UNL     1       8.761  21.378  12.376  1.00  0.00     0.168 HD
HETATM   26  N5  UNL     1       7.481  19.088  10.481  1.00  0.00    -0.337 N
HETATM   27  C9  UNL     1       8.272  18.034  10.750  1.00  0.00     0.139 A
ATOM     28  H5  UNL     1       6.725  18.959   9.808  1.00  0.00     0.168 HD
HETATM   29  N6  UNL     1       8.347  16.760  10.348  1.00  0.00    -0.321 N
HETATM   30  C12 UNL     1       9.300  18.210  11.667  1.00  0.00     0.123 A
HETATM   31  C10 UNL     1       9.363  16.124  10.957  1.00  0.00     0.146 A
ATOM     32  H6  UNL     1       7.719  16.329   9.670  1.00  0.00     0.169 HD
HETATM   33  N7  UNL     1       9.939  17.029  11.764  1.00  0.00    -0.331 N
ATOM     34  H7  UNL     1      10.744  16.848  12.364  1.00  0.00     0.168 HD
BRANCH  31  35
HETATM   35  S1  UNL     1       9.836  14.397  10.713  1.00  0.00    -0.098 SA
HETATM   36  C11 UNL     1       8.330  13.398  10.412  1.00  0.00     0.099 C
ENDBRANCH  31  35
ENDBRANCH  20  22
ENDBRANCH  19  20
ENDBRANCH   1  19
TORSDOF 9
ENDMDL