MODEL 2
REMARK VINA RESULT: -6.642231177      5.831     10.616
REMARK  10 active torsions:
REMARK  status: ('A' for Active; 'I' for Inactive)
REMARK    1  A    between atoms: C7_7  and  O1_8
REMARK    2  A    between atoms: O1_8  and  C8_9
REMARK    3  A    between atoms: C8_9  and  C9_10
REMARK    4  A    between atoms: C9_10  and  O2_11
REMARK    5  A    between atoms: O2_11  and  C10_12
REMARK    6  A    between atoms: C10_12  and  C11_13
REMARK    7  A    between atoms: C11_13  and  N1_14
REMARK    8  A    between atoms: C15_21  and  O3_22
REMARK    9  A    between atoms: C17_25  and  O4_26
REMARK   10  A    between atoms: C23_33  and  O5_34
ROOT
HETATM    1  C1  UNL     1      15.514  24.722  10.050  1.00  0.00     0.018 C
HETATM    2  C2  UNL     1      15.936  23.580  10.893  1.00  0.00    -0.014 C
HETATM    3  C3  UNL     1      16.916  23.883  11.951  1.00  0.00     0.012 C
HETATM    4  C4  UNL     1      16.229  24.778  12.980  1.00  0.00     0.007 C
HETATM    5  C5  UNL     1      15.022  24.084  13.555  1.00  0.00     0.003 C
HETATM    6  C6  UNL     1      14.022  23.759  12.444  1.00  0.00     0.024 C
HETATM    7  C7  UNL     1      12.736  23.196  12.969  1.00  0.00     0.126 C
HETATM    8  C12 UNL     1      12.839  22.971  14.488  1.00  0.00     0.038 C
HETATM    9  C13 UNL     1      13.053  24.341  15.037  1.00  0.00     0.001 C
HETATM   10  C14 UNL     1      12.621  24.569  16.436  1.00  0.00     0.037 C
HETATM   11  C15 UNL     1      12.865  26.020  16.779  1.00  0.00     0.121 C
HETATM   12  C16 UNL     1      14.080  26.630  16.235  1.00  0.00     0.064 C
HETATM   13  C17 UNL     1      14.514  26.213  14.852  1.00  0.00     0.129 C
HETATM   14  C18 UNL     1      14.497  24.711  14.767  1.00  0.00    -0.010 C
HETATM   15  C19 UNL     1      15.396  24.245  15.927  1.00  0.00     0.018 C
HETATM   16  C20 UNL     1      14.756  22.825  11.527  1.00  0.00     0.003 C
HETATM   17  C21 UNL     1      14.046  22.370  10.314  1.00  0.00     0.008 C
HETATM   18  C22 UNL     1      15.132  22.142   9.248  1.00  0.00     0.033 C
HETATM   19  C23 UNL     1      16.435  22.484   9.937  1.00  0.00     0.126 C
ENDROOT
BRANCH   7  20
HETATM   20  O1  UNL     1      12.235  22.093  12.406  1.00  0.00    -0.383 OA
BRANCH  20  21
HETATM   21  C8  UNL     1      11.186  21.505  13.083  1.00  0.00     0.194 C
BRANCH  21  22
HETATM   22  C9  UNL     1       9.910  21.673  12.337  1.00  0.00     0.193 C
BRANCH  22  23
HETATM   23  O2  UNL     1       9.208  20.511  12.122  1.00  0.00    -0.387 OA
BRANCH  23  24
HETATM   24  C10 UNL     1       9.880  19.420  12.581  1.00  0.00     0.195 C
BRANCH  24  25
HETATM   25  C11 UNL     1       9.268  18.207  11.843  1.00  0.00     0.255 C
BRANCH  25  26
HETATM   26  N1  UNL     1       9.806  17.024  12.500  1.00  0.00    -0.077 N
ATOM     27  H13 UNL     1       9.530  16.940  13.478  1.00  0.00     0.274 HD
ATOM     28  H12 UNL     1       9.385  16.153  12.178  1.00  0.00     0.274 HD
ATOM     29  H11 UNL     1      10.816  17.063  12.364  1.00  0.00     0.274 HD
ENDBRANCH  25  26
ENDBRANCH  24  25
ENDBRANCH  23  24
ENDBRANCH  22  23
ENDBRANCH  21  22
ENDBRANCH  20  21
ENDBRANCH   7  20
BRANCH  13  30
HETATM   30  O4  UNL     1      15.783  26.773  14.715  1.00  0.00    -0.395 OA
ATOM     31  H4  UNL     1      16.179  26.273  14.011  1.00  0.00     0.210 HD
ENDBRANCH  13  30
BRANCH  19  32
HETATM   32  O5  UNL     1      17.401  22.953   9.081  1.00  0.00    -0.395 OA
ATOM     33  H5  UNL     1      17.242  23.854   8.827  1.00  0.00     0.210 HD
ENDBRANCH  19  32
BRANCH  11  34
HETATM   34  O3  UNL     1      11.755  26.823  16.440  1.00  0.00    -0.395 OA
ATOM     35  H3  UNL     1      11.285  27.110  17.214  1.00  0.00     0.210 HD
ENDBRANCH  11  34
TORSDOF 10
ENDMDL