MODEL 5
REMARK VINA RESULT: -7.563552700      3.025      8.728
REMARK  10 active torsions:
REMARK  status: ('A' for Active; 'I' for Inactive)
REMARK    1  A    between atoms: C2_2  and  O1_4
REMARK    2  A    between atoms: C2_2  and  C4_6
REMARK    3  A    between atoms: C4_6  and  C5_8
REMARK    4  A    between atoms: C5_8  and  C6_9
REMARK    5  A    between atoms: C6_9  and  C7_10
REMARK    6  A    between atoms: C11_14  and  O3_15
REMARK    7  A    between atoms: C11_14  and  C12_17
REMARK    8  A    between atoms: C12_17  and  N1_18
REMARK    9  A    between atoms: N1_18  and  C13_21
REMARK   10  A    between atoms: C21_30  and  O5_32
ROOT
HETATM    1  C7  UNL     1      11.332  25.494  16.850  1.00  0.00     0.024 C
HETATM    2  C8  UNL     1      11.659  26.845  17.318  1.00  0.00    -0.001 C
HETATM    3  C9  UNL     1      13.103  27.230  17.338  1.00  0.00     0.009 C
HETATM    4  C10 UNL     1      13.356  27.990  18.645  1.00  0.00     0.040 C
HETATM    5  C11 UNL     1      11.977  28.413  19.009  1.00  0.00     0.086 C
HETATM    6  C18 UNL     1      11.178  27.159  18.723  1.00  0.00     0.026 C
HETATM    7  C19 UNL     1      11.450  26.106  19.728  1.00  0.00     0.011 C
HETATM    8  C20 UNL     1      11.738  24.749  19.184  1.00  0.00     0.038 C
HETATM    9  C21 UNL     1      10.905  24.524  17.963  1.00  0.00     0.058 C
HETATM   10  C22 UNL     1       9.442  24.626  18.265  1.00  0.00     0.046 C
ENDROOT
BRANCH   5  11
HETATM   11  O3  UNL     1      11.552  29.408  18.138  1.00  0.00    -0.388 OA
ATOM     12  H3  UNL     1      10.852  29.906  18.543  1.00  0.00     0.210 HD
ENDBRANCH   5  11
BRANCH   5  13
HETATM   13  C12 UNL     1      11.812  28.912  20.406  1.00  0.00     0.273 C
BRANCH  13  14
HETATM   14  N1  UNL     1      10.833  29.979  20.386  1.00  0.00    -0.046 N
ATOM     15  H12 UNL     1      11.290  30.886  20.291  1.00  0.00     0.280 HD
ATOM     16  H11 UNL     1      10.302  29.965  19.516  1.00  0.00     0.280 HD
BRANCH  14  17
HETATM   17  C13 UNL     1       9.957  29.972  21.513  1.00  0.00     0.320 C
HETATM   18  C14 UNL     1       9.523  28.548  21.854  1.00  0.00     0.061 C
HETATM   19  C15 UNL     1       8.843  28.662  23.226  1.00  0.00     0.006 C
HETATM   20  C16 UNL     1       7.600  29.500  22.987  1.00  0.00     0.026 C
HETATM   21  C17 UNL     1       7.664  30.255  21.693  1.00  0.00     0.170 C
HETATM   22  O4  UNL     1       8.886  30.831  21.428  1.00  0.00    -0.359 OA
ENDBRANCH  14  17
ENDBRANCH  13  14
ENDBRANCH   5  13
BRANCH   1  23
HETATM   23  C6  UNL     1      12.331  24.768  16.031  1.00  0.00     0.015 C
BRANCH  23  24
HETATM   24  C5  UNL     1      12.184  24.844  14.552  1.00  0.00     0.082 C
BRANCH  24  25
HETATM   25  C4  UNL     1      10.825  24.575  14.066  1.00  0.00     0.160 C
HETATM   26  O2  UNL     1      10.081  25.494  13.788  1.00  0.00    -0.295 OA
BRANCH  25  27
HETATM   27  C2  UNL     1      10.303  23.195  13.894  1.00  0.00     0.111 C
HETATM   28  C1  UNL     1       9.166  23.183  12.892  1.00  0.00     0.053 C
HETATM   29  C3  UNL     1      11.376  22.260  13.368  1.00  0.00     0.053 C
BRANCH  27  30
HETATM   30  O1  UNL     1       9.817  22.765  15.128  1.00  0.00    -0.383 OA
ATOM     31  H1  UNL     1      10.434  22.147  15.501  1.00  0.00     0.211 HD
ENDBRANCH  27  30
ENDBRANCH  25  27
ENDBRANCH  24  25
ENDBRANCH  23  24
ENDBRANCH   1  23
BRANCH   9  32
HETATM   32  O5  UNL     1      11.150  23.190  17.561  1.00  0.00    -0.390 OA
ATOM     33  H5  UNL     1      10.329  22.752  17.371  1.00  0.00     0.210 HD
ENDBRANCH   9  32
TORSDOF 10
ENDMDL