MODEL 5
REMARK VINA RESULT: -10.457004429      2.496      3.342
REMARK  7 active torsions:
REMARK  status: ('A' for Active; 'I' for Inactive)
REMARK    1  A    between atoms: N1_2  and  C2_5
REMARK    2  A    between atoms: C2_5  and  C3_6
REMARK    3  A    between atoms: C6_9  and  C7_10
REMARK    4  A    between atoms: C7_10  and  N2_11
REMARK    5  A    between atoms: N2_11  and  C8_13
REMARK    6  A    between atoms: N3_16  and  C11_17
REMARK    7  A    between atoms: N4_20  and  C14_22
ROOT
HETATM    1  C8  UNL     1      11.213  24.712  14.586  1.00  0.00     0.096 C
HETATM    2  C9  UNL     1      12.508  24.149  14.145  1.00  0.00     0.046 C
HETATM    3  C10 UNL     1      12.140  22.991  13.249  1.00  0.00     0.126 C
HETATM    4  N3  UNL     1      10.794  22.652  13.581  1.00  0.00    -0.365 N
HETATM    5  C19 UNL     1      10.368  23.427  14.705  1.00  0.00     0.149 C
ENDROOT
BRANCH   4   6
HETATM    6  C11 UNL     1      10.007  21.706  12.873  1.00  0.00     0.107 A
HETATM    7  C12 UNL     1      10.289  20.344  12.963  1.00  0.00     0.097 A
HETATM    8  C13 UNL     1       9.565  19.360  12.308  1.00  0.00     0.111 A
HETATM    9  N4  UNL     1       9.897  18.132  12.436  1.00  0.00    -0.327 N
HETATM   10  N7  UNL     1       8.541  19.783  11.553  1.00  0.00    -0.338 N
ATOM     11  H4  UNL     1      10.703  17.964  13.039  1.00  0.00     0.169 HD
HETATM   12  C18 UNL     1       8.244  21.090  11.446  1.00  0.00     0.183 A
ATOM     13  H7  UNL     1       7.975  19.100  11.050  1.00  0.00     0.168 HD
HETATM   14  N8  UNL     1       8.963  22.054  12.095  1.00  0.00    -0.339 N
ATOM     15  H8  UNL     1       8.709  23.037  11.991  1.00  0.00     0.168 HD
BRANCH   9  16
HETATM   16  C14 UNL     1       9.332  16.988  11.885  1.00  0.00     0.123 A
HETATM   17  C15 UNL     1       8.378  17.001  10.851  1.00  0.00     0.075 A
HETATM   18  C16 UNL     1       8.071  15.682  10.609  1.00  0.00     0.025 A
HETATM   19  C17 UNL     1       7.099  15.212   9.589  1.00  0.00     0.070 C
HETATM   20  N5  UNL     1       8.795  14.939  11.446  1.00  0.00    -0.304 N
HETATM   21  N6  UNL     1       9.531  15.714  12.191  1.00  0.00    -0.285 N
ATOM     22  H5  UNL     1       8.776  13.920  11.496  1.00  0.00     0.186 HD
ATOM     23  H6  UNL     1      10.175  15.384  12.911  1.00  0.00     0.188 HD
ENDBRANCH   9  16
ENDBRANCH   4   6
BRANCH   1  24
HETATM   24  N2  UNL     1      11.096  25.425  15.771  1.00  0.00    -0.415 N
ATOM     25  H2  UNL     1      10.222  25.907  15.977  1.00  0.00     0.153 HD
BRANCH  24  26
HETATM   26  C7  UNL     1      12.160  25.499  16.700  1.00  0.00     0.118 C
BRANCH  26  27
HETATM   27  C6  UNL     1      12.468  26.873  17.165  1.00  0.00     0.003 C
HETATM   28  C5  UNL     1      11.400  27.389  18.160  1.00  0.00     0.007 C
HETATM   29  C4  UNL     1      11.649  28.875  18.222  1.00  0.00     0.007 C
HETATM   30  C3  UNL     1      13.014  29.236  18.654  1.00  0.00     0.011 C
HETATM   31  C21 UNL     1      14.112  28.295  18.275  1.00  0.00     0.007 C
HETATM   32  C20 UNL     1      13.743  26.887  18.035  1.00  0.00     0.007 C
BRANCH  30  33
HETATM   33  C2  UNL     1      13.072  29.640  20.115  1.00  0.00     0.236 C
BRANCH  33  34
HETATM   34  N1  UNL     1      12.461  30.906  20.387  1.00  0.00    -0.079 N
HETATM   35  C1  UNL     1      13.132  31.994  19.728  1.00  0.00     0.267 C
ATOM     36  H12 UNL     1      12.391  31.071  21.391  1.00  0.00     0.276 HD
ATOM     37  H11 UNL     1      11.468  30.892  20.154  1.00  0.00     0.276 HD
ENDBRANCH  33  34
ENDBRANCH  30  33
ENDBRANCH  26  27
ENDBRANCH  24  26
ENDBRANCH   1  24
TORSDOF 7
ENDMDL