MODEL 4
REMARK VINA RESULT: -6.998414324      2.479      2.890
REMARK  8 active torsions:
REMARK  status: ('A' for Active; 'I' for Inactive)
REMARK    1  A    between atoms: C2_2  and  C3_3
REMARK    2  A    between atoms: C4_4  and  C5_5
REMARK    3  A    between atoms: C5_5  and  N1_7
REMARK    4  A    between atoms: N1_7  and  C6_9
REMARK    5  A    between atoms: C6_9  and  C7_10
REMARK       I    between atoms: C7_10  and  N2_12
REMARK    6  A    between atoms: N2_12  and  C8_14
REMARK    7  A    between atoms: C8_14  and  C9_15
REMARK    8  A    between atoms: C9_15  and  S2_16
ROOT
HETATM    1  C3  UNL     1      -4.021  24.349   8.996  1.00  0.00    -0.010 A
HETATM    2  C4  UNL     1      -2.652  24.459   8.993  1.00  0.00     0.052 A
HETATM    3  S3  UNL     1      -2.415  26.120   9.353  1.00  0.00    -0.079 SA
HETATM    4  C11 UNL     1      -4.039  26.614   9.493  1.00  0.00     0.101 A
HETATM    5  C12 UNL     1      -4.695  27.826   9.772  1.00  0.00     0.267 A
HETATM    6  O2  UNL     1      -3.950  28.814   9.974  1.00  0.00    -0.267 OA
HETATM    7  N3  UNL     1      -6.032  27.909   9.816  1.00  0.00    -0.299 N
ATOM      8  H3  UNL     1      -6.516  28.784  10.017  1.00  0.00     0.171 HD
HETATM    9  C13 UNL     1      -6.691  26.761   9.576  1.00  0.00     0.179 A
HETATM   10  S4  UNL     1      -8.344  26.859   9.625  1.00  0.00    -0.040 SA
HETATM   11  N4  UNL     1      -6.103  25.609   9.312  1.00  0.00    -0.331 N
ATOM     12  H4  UNL     1      -6.688  24.791   9.144  1.00  0.00     0.168 HD
HETATM   13  C14 UNL     1      -4.735  25.464   9.254  1.00  0.00     0.065 A
ENDROOT
BRANCH   2  14
HETATM   14  C5  UNL     1      -1.662  23.417   8.746  1.00  0.00     0.114 C
HETATM   15  S1  UNL     1      -0.908  22.719   9.985  1.00  0.00    -0.059 SA
BRANCH  14  16
HETATM   16  N1  UNL     1      -1.367  23.020   7.429  1.00  0.00    -0.371 N
ATOM     17  H1  UNL     1      -1.716  23.590   6.658  1.00  0.00     0.161 HD
BRANCH  16  18
HETATM   18  C6  UNL     1      -0.595  21.844   7.117  1.00  0.00     0.223 C
BRANCH  18  19
HETATM   19  C7  UNL     1      -0.385  21.587   5.684  1.00  0.00     0.235 C
HETATM   20  O1  UNL     1      -1.010  22.372   4.889  1.00  0.00    -0.272 OA
HETATM   21  N2  UNL     1       0.417  20.585   5.113  1.00  0.00    -0.359 N
ATOM     22  H2  UNL     1       0.926  19.956   5.735  1.00  0.00     0.162 HD
BRANCH  21  23
HETATM   23  C8  UNL     1       0.556  20.403   3.696  1.00  0.00     0.132 C
BRANCH  23  24
HETATM   24  C9  UNL     1      -0.584  19.614   3.145  1.00  0.00     0.093 C
BRANCH  24  25
HETATM   25  S2  UNL     1      -1.401  20.520   1.769  1.00  0.00    -0.172 SA
HETATM   26  C10 UNL     1      -0.272  20.353   0.341  1.00  0.00     0.089 C
ENDBRANCH  24  25
ENDBRANCH  23  24
ENDBRANCH  21  23
ENDBRANCH  18  19
ENDBRANCH  16  18
ENDBRANCH  14  16
ENDBRANCH   2  14
BRANCH   1  27
HETATM   27  C2  UNL     1      -4.648  22.985   8.711  1.00  0.00     0.038 C
HETATM   28  C1  UNL     1      -4.869  22.231   9.980  1.00  0.00     0.010 C
ENDBRANCH   1  27
TORSDOF 8
ENDMDL