MODEL 5
REMARK VINA RESULT: -7.799443863      2.777      3.737
REMARK  9 active torsions:
REMARK  status: ('A' for Active; 'I' for Inactive)
REMARK    1  A    between atoms: C2_2  and  C3_3
REMARK    2  A    between atoms: C3_3  and  C4_4
REMARK    3  A    between atoms: C6_6  and  C7_7
REMARK    4  A    between atoms: C7_7  and  C8_8
REMARK    5  A    between atoms: C8_8  and  C9_9
REMARK       I    between atoms: C9_9  and  N1_11
REMARK    6  A    between atoms: C14_20  and  O2_21
REMARK    7  A    between atoms: O2_21  and  C15_22
REMARK    8  A    between atoms: C19_29  and  N4_30
REMARK    9  A    between atoms: C20_34  and  O3_35
ROOT
HETATM    1  C4  UNL     1      -2.149  22.980   9.274  1.00  0.00    -0.022 A
HETATM    2  C5  UNL     1      -3.207  22.184   8.809  1.00  0.00     0.017 A
HETATM    3  C6  UNL     1      -4.479  22.271   9.325  1.00  0.00    -0.054 A
HETATM    4  C13 UNL     1      -4.685  23.202  10.357  1.00  0.00     0.046 A
HETATM    5  C14 UNL     1      -3.683  23.995  10.838  1.00  0.00     0.103 A
HETATM    6  C20 UNL     1      -2.404  23.869  10.275  1.00  0.00     0.105 A
ENDROOT
BRANCH   5   7
HETATM    7  O2  UNL     1      -3.872  24.894  11.827  1.00  0.00    -0.339 OA
BRANCH   7   8
HETATM    8  C15 UNL     1      -4.298  26.202  11.800  1.00  0.00     0.187 C
HETATM    9  C16 UNL     1      -4.469  26.682  10.377  1.00  0.00     0.038 C
HETATM   10  C17 UNL     1      -4.959  28.085  10.281  1.00  0.00     0.030 C
HETATM   11  C18 UNL     1      -4.398  29.030  11.297  1.00  0.00     0.235 C
HETATM   12  N3  UNL     1      -4.115  28.446  12.572  1.00  0.00    -0.044 N
HETATM   13  C19 UNL     1      -3.377  27.186  12.487  1.00  0.00     0.409 C
ATOM     14  H32 UNL     1      -3.628  29.111  13.173  1.00  0.00     0.279 HD
ATOM     15  H31 UNL     1      -4.972  28.327  13.112  1.00  0.00     0.279 HD
BRANCH  13  16
HETATM   16  N4  UNL     1      -2.216  27.445  11.660  1.00  0.00    -0.048 N
ATOM     17  H43 UNL     1      -2.442  28.042  10.864  1.00  0.00     0.276 HD
ATOM     18  H42 UNL     1      -1.547  28.059  12.123  1.00  0.00     0.276 HD
ATOM     19  H41 UNL     1      -1.789  26.566  11.368  1.00  0.00     0.276 HD
ENDBRANCH  13  16
ENDBRANCH   7   8
ENDBRANCH   5   7
BRANCH   6  20
HETATM   20  O3  UNL     1      -1.409  24.681  10.756  1.00  0.00    -0.357 OA
ATOM     21  H3  UNL     1      -0.592  24.776  10.281  1.00  0.00     0.217 HD
ENDBRANCH   6  20
BRANCH   3  22
HETATM   22  C7  UNL     1      -5.590  21.446   8.831  1.00  0.00     0.048 C
BRANCH  22  23
HETATM   23  C8  UNL     1      -6.248  20.514   9.772  1.00  0.00     0.108 C
BRANCH  23  24
HETATM   24  C9  UNL     1      -7.703  20.528   9.838  1.00  0.00     0.223 C
HETATM   25  O1  UNL     1      -8.424  19.953   9.011  1.00  0.00    -0.273 OA
HETATM   26  N1  UNL     1      -8.364  21.238  10.908  1.00  0.00    -0.308 N
HETATM   27  C10 UNL     1      -8.569  22.497  10.858  1.00  0.00     0.142 C
ATOM     28  H1  UNL     1      -8.677  20.718  11.729  1.00  0.00     0.171 HD
HETATM   29  N2  UNL     1      -8.252  23.453   9.866  1.00  0.00    -0.370 N
HETATM   30  S1  UNL     1      -9.383  23.474  12.148  1.00  0.00    -0.092 SA
HETATM   31  C11 UNL     1      -9.112  24.584   9.835  1.00  0.00     0.132 C
ATOM     32  H2  UNL     1      -7.469  23.340   9.223  1.00  0.00     0.161 HD
HETATM   33  C12 UNL     1      -9.373  25.068  11.248  1.00  0.00     0.102 C
ENDBRANCH  23  24
ENDBRANCH  22  23
ENDBRANCH   3  22
BRANCH   1  34
HETATM   34  C3  UNL     1      -0.833  22.687   8.672  1.00  0.00     0.041 C
BRANCH  34  35
HETATM   35  C2  UNL     1      -0.771  21.514   7.769  1.00  0.00     0.000 C
HETATM   36  C1  UNL     1      -0.672  21.852   6.334  1.00  0.00     0.005 C
ENDBRANCH  34  35
ENDBRANCH   1  34
TORSDOF 9
ENDMDL