MODEL 3
REMARK VINA RESULT: -7.843624003      1.113      1.270
REMARK  8 active torsions:
REMARK  status: ('A' for Active; 'I' for Inactive)
REMARK    1  A    between atoms: C2_2  and  C3_3
REMARK    2  A    between atoms: C3_3  and  C4_4
REMARK    3  A    between atoms: C4_4  and  C5_5
REMARK    4  A    between atoms: C5_5  and  C6_6
REMARK    5  A    between atoms: C6_6  and  C7_7
REMARK    6  A    between atoms: C15_24  and  N5_25
REMARK    7  A    between atoms: N5_25  and  C16_27
REMARK    8  A    between atoms: C21_32  and  N6_33
ROOT
HETATM    1  C7  UNL     1      -3.699  24.068   9.813  1.00  0.00     0.041 A
HETATM    2  N1  UNL     1      -2.629  24.948   9.892  1.00  0.00    -0.304 N
ATOM      3  H1  UNL     1      -1.647  24.699   9.775  1.00  0.00     0.186 HD
HETATM    4  N2  UNL     1      -3.087  26.152  10.143  1.00  0.00    -0.304 N
ATOM      5  H2  UNL     1      -2.504  26.981  10.252  1.00  0.00     0.186 HD
HETATM    6  C8  UNL     1      -4.423  26.145  10.238  1.00  0.00     0.038 A
HETATM    7  C9  UNL     1      -5.353  27.262  10.506  1.00  0.00     0.070 C
HETATM    8  C10 UNL     1      -4.820  24.801  10.022  1.00  0.00     0.056 A
HETATM    9  C11 UNL     1      -6.216  24.438   9.925  1.00  0.00     0.122 C
HETATM   10  N3  UNL     1      -7.120  25.253  10.577  1.00  0.00    -0.331 N
ATOM     11  H3  UNL     1      -6.882  26.244  10.611  1.00  0.00     0.168 HD
HETATM   12  C12 UNL     1      -8.282  24.902  11.176  1.00  0.00     0.081 C
HETATM   13  C13 UNL     1      -8.978  25.941  11.981  1.00  0.00     0.089 C
HETATM   14  N4  UNL     1      -8.893  23.704  11.130  1.00  0.00    -0.310 N
ATOM     15  H4  UNL     1      -9.813  23.659  11.568  1.00  0.00     0.170 HD
HETATM   16  C14 UNL     1      -8.442  22.540  10.574  1.00  0.00     0.290 C
HETATM   17  O1  UNL     1      -8.890  21.524  11.137  1.00  0.00    -0.264 OA
HETATM   18  C15 UNL     1      -7.572  22.410   9.494  1.00  0.00     0.172 C
HETATM   19  N7  UNL     1      -6.606  23.347   9.257  1.00  0.00    -0.323 N
ATOM     20  H7  UNL     1      -6.078  23.182   8.400  1.00  0.00     0.169 HD
ENDROOT
BRANCH   1  21
HETATM   21  C6  UNL     1      -3.518  22.607   9.662  1.00  0.00     0.059 C
BRANCH  21  22
HETATM   22  C5  UNL     1      -2.672  22.270   8.444  1.00  0.00     0.006 C
BRANCH  22  23
HETATM   23  C4  UNL     1      -1.287  21.820   8.727  1.00  0.00     0.000 C
BRANCH  23  24
HETATM   24  C3  UNL     1      -0.519  21.797   7.417  1.00  0.00    -0.000 C
BRANCH  24  25
HETATM   25  C2  UNL     1      -1.304  22.425   6.302  1.00  0.00    -0.005 C
HETATM   26  C1  UNL     1      -0.813  21.790   5.003  1.00  0.00     0.005 C
ENDBRANCH  24  25
ENDBRANCH  23  24
ENDBRANCH  22  23
ENDBRANCH  21  22
ENDBRANCH   1  21
BRANCH  18  27
HETATM   27  N5  UNL     1      -7.664  21.453   8.719  1.00  0.00    -0.365 N
ATOM     28  H5  UNL     1      -8.596  21.403   8.306  1.00  0.00     0.161 HD
BRANCH  27  29
HETATM   29  C16 UNL     1      -6.846  20.415   8.247  1.00  0.00     0.113 C
HETATM   30  C17 UNL     1      -5.914  19.861   9.324  1.00  0.00     0.027 C
HETATM   31  C18 UNL     1      -6.580  19.032  10.340  1.00  0.00     0.002 C
HETATM   32  C19 UNL     1      -7.759  18.232   9.918  1.00  0.00     0.002 C
HETATM   33  C20 UNL     1      -8.521  18.760   8.760  1.00  0.00     0.035 C
HETATM   34  C21 UNL     1      -7.633  19.246   7.663  1.00  0.00     0.206 C
BRANCH  34  35
HETATM   35  N6  UNL     1      -6.651  18.262   7.246  1.00  0.00    -0.073 N
ATOM     36  H63 UNL     1      -5.944  18.639   6.615  1.00  0.00     0.274 HD
ATOM     37  H62 UNL     1      -6.017  17.981   7.993  1.00  0.00     0.274 HD
ATOM     38  H61 UNL     1      -7.178  17.485   6.847  1.00  0.00     0.274 HD
ENDBRANCH  34  35
ENDBRANCH  27  29
ENDBRANCH  18  27
TORSDOF 8
ENDMDL