MODEL 5
REMARK VINA RESULT: -7.987227250      1.402      1.869
REMARK  8 active torsions:
REMARK  status: ('A' for Active; 'I' for Inactive)
REMARK       I    between atoms: C1_4  and  N3_6
REMARK       I    between atoms: N3_6  and  C2_8
REMARK    1  A    between atoms: C2_8  and  C3_10
REMARK    2  A    between atoms: C8_17  and  C9_18
REMARK    3  A    between atoms: C9_18  and  N5_19
REMARK    4  A    between atoms: C17_29  and  C18_30
REMARK    5  A    between atoms: C18_30  and  C19_31
REMARK    6  A    between atoms: C19_31  and  C20_32
REMARK    7  A    between atoms: C20_32  and  C21_33
REMARK    8  A    between atoms: C21_33  and  O2_34
ROOT
HETATM    1  C3  UNL     1      -4.036  25.059   9.584  1.00  0.00     0.055 A
HETATM    2  C4  UNL     1      -5.364  25.509   9.631  1.00  0.00     0.034 A
HETATM    3  C5  UNL     1      -6.361  24.587   9.673  1.00  0.00     0.008 A
HETATM    4  C6  UNL     1      -7.696  24.983   9.721  1.00  0.00     0.101 A
HETATM    5  N4  UNL     1      -8.665  24.079   9.762  1.00  0.00    -0.373 N
ATOM      6  H4  UNL     1      -9.636  24.389   9.796  1.00  0.00     0.164 HD
HETATM    7  C7  UNL     1      -8.392  22.746   9.759  1.00  0.00     0.102 A
HETATM    8  C8  UNL     1      -7.090  22.330   9.714  1.00  0.00     0.022 A
HETATM    9  C16 UNL     1      -6.034  23.251   9.670  1.00  0.00     0.057 A
HETATM   10  N6  UNL     1      -4.759  22.828   9.626  1.00  0.00    -0.357 N
ATOM     11  H6  UNL     1      -4.557  21.828   9.625  1.00  0.00     0.166 HD
HETATM   12  C17 UNL     1      -3.725  23.734   9.583  1.00  0.00     0.025 A
ENDROOT
BRANCH   1  13
HETATM   13  C2  UNL     1      -3.062  26.120   9.466  1.00  0.00     0.260 C
HETATM   14  N3  UNL     1      -2.677  26.873  10.628  1.00  0.00    -0.297 N
HETATM   15  C1  UNL     1      -1.736  27.920  10.598  1.00  0.00     0.188 C
ATOM     16  H3  UNL     1      -3.109  26.637  11.522  1.00  0.00     0.171 HD
HETATM   17  N1  UNL     1      -1.412  28.580  11.666  1.00  0.00    -0.373 N
HETATM   18  N2  UNL     1      -1.102  28.293   9.379  1.00  0.00    -0.064 NA
ATOM     19  H12 UNL     1      -0.729  29.338  11.644  1.00  0.00     0.158 HD
ATOM     20  H11 UNL     1      -1.866  28.313  12.538  1.00  0.00     0.158 HD
HETATM   21  O1  UNL     1      -2.532  26.414   8.388  1.00  0.00    -0.267 OA
ENDBRANCH   1  13
BRANCH  12  22
HETATM   22  C18 UNL     1      -2.338  23.224   9.603  1.00  0.00     0.058 C
BRANCH  22  23
HETATM   23  C19 UNL     1      -2.037  22.141   8.631  1.00  0.00     0.008 C
BRANCH  23  24
HETATM   24  C20 UNL     1      -1.112  22.658   7.557  1.00  0.00     0.026 C
BRANCH  24  25
HETATM   25  C21 UNL     1      -1.802  22.890   6.265  1.00  0.00     0.164 C
BRANCH  25  26
HETATM   26  O2  UNL     1      -2.530  24.103   6.352  1.00  0.00    -0.401 OA
ATOM     27  H2  UNL     1      -2.780  24.370   5.475  1.00  0.00     0.209 HD
ENDBRANCH  25  26
ENDBRANCH  24  25
ENDBRANCH  23  24
ENDBRANCH  22  23
ENDBRANCH  12  22
BRANCH   8  28
HETATM   28  C9  UNL     1      -6.727  20.907   9.693  1.00  0.00     0.105 C
BRANCH  28  29
HETATM   29  N5  UNL     1      -7.611  19.987   9.145  1.00  0.00    -0.369 N
HETATM   30  C10 UNL     1      -8.609  19.382   9.943  1.00  0.00     0.127 C
HETATM   31  C11 UNL     1      -8.156  17.935  10.199  1.00  0.00     0.020 C
HETATM   32  C12 UNL     1      -8.545  17.152   8.965  1.00  0.00     0.002 C
HETATM   33  C13 UNL     1      -7.437  17.004   7.975  1.00  0.00     0.005 C
HETATM   34  C14 UNL     1      -6.600  18.242   7.797  1.00  0.00     0.044 C
HETATM   35  C15 UNL     1      -7.424  19.504   7.834  1.00  0.00     0.063 C
ENDBRANCH  28  29
ENDBRANCH   8  28
TORSDOF 8
ENDMDL