MODEL 2
REMARK VINA RESULT: -8.688424156      3.179      6.660
REMARK  9 active torsions:
REMARK  status: ('A' for Active; 'I' for Inactive)
REMARK    1  A    between atoms: C2_2  and  N1_3
REMARK    2  A    between atoms: N1_3  and  C3_4
REMARK    3  A    between atoms: N1_3  and  C15_29
REMARK    4  A    between atoms: C3_4  and  C4_5
REMARK    5  A    between atoms: C4_5  and  N2_6
REMARK    6  A    between atoms: N2_6  and  C5_9
REMARK    7  A    between atoms: C5_9  and  C7_12
REMARK    8  A    between atoms: C5_9  and  C9_14
REMARK    9  A    between atoms: C12_19  and  N5_20
ROOT
HETATM    1  C5  UNL     1      -2.733  24.413   8.972  1.00  0.00     0.245 C
HETATM    2  C6  UNL     1      -2.058  23.693  10.113  1.00  0.00     0.104 C
HETATM    3  N3  UNL     1      -1.552  23.136  11.017  1.00  0.00    -0.194 NA
ENDROOT
BRANCH   1   4
HETATM    4  N2  UNL     1      -4.149  24.254   9.217  1.00  0.00    -0.047 N
ATOM      5  H22 UNL     1      -4.741  24.794   8.584  1.00  0.00     0.279 HD
ATOM      6  H21 UNL     1      -4.472  24.692  10.080  1.00  0.00     0.279 HD
BRANCH   4   7
HETATM    7  C4  UNL     1      -4.381  22.798   9.160  1.00  0.00     0.265 C
BRANCH   7   8
HETATM    8  C3  UNL     1      -5.698  22.521   8.570  1.00  0.00     0.300 C
BRANCH   8   9
HETATM    9  N1  UNL     1      -6.455  21.453   9.261  1.00  0.00     0.094 N
BRANCH   9  10
HETATM   10  C2  UNL     1      -7.821  21.754   8.986  1.00  0.00     0.268 C
HETATM   11  C1  UNL     1      -8.667  22.341  10.071  1.00  0.00     0.037 C
ENDBRANCH   9  10
BRANCH   9  12
HETATM   12  C15 UNL     1      -6.042  20.153   8.940  1.00  0.00     0.223 C
HETATM   13  C16 UNL     1      -6.927  19.503   7.911  1.00  0.00     0.036 C
HETATM   14  C17 UNL     1      -7.173  18.014   8.251  1.00  0.00     0.002 C
HETATM   15  C18 UNL     1      -7.962  17.881   9.514  1.00  0.00     0.000 C
HETATM   16  C19 UNL     1      -7.465  18.881  10.528  1.00  0.00     0.002 C
HETATM   17  C20 UNL     1      -6.033  19.214  10.139  1.00  0.00     0.036 C
ENDBRANCH   9  12
ENDBRANCH   8   9
ENDBRANCH   7   8
ENDBRANCH   4   7
ENDBRANCH   1   4
BRANCH   1  18
HETATM   18  C7  UNL     1      -2.213  25.803   9.020  1.00  0.00     0.056 C
HETATM   19  C8  UNL     1      -3.435  26.730   8.944  1.00  0.00     0.009 C
ENDBRANCH   1  18
BRANCH   1  20
HETATM   20  C9  UNL     1      -2.244  23.621   7.787  1.00  0.00     0.036 A
HETATM   21  C10 UNL     1      -2.554  23.760   6.459  1.00  0.00     0.050 A
HETATM   22  C11 UNL     1      -1.909  22.969   5.588  1.00  0.00     0.073 A
HETATM   23  N4  UNL     1      -2.026  22.959   4.219  1.00  0.00    -0.191 N
HETATM   24  C14 UNL     1      -0.999  22.086   6.086  1.00  0.00     0.101 A
HETATM   25  C12 UNL     1      -1.302  22.146   3.451  1.00  0.00     0.679 A
ATOM     26  H4  UNL     1      -2.689  23.595   3.776  1.00  0.00     0.184 HD
HETATM   27  N6  UNL     1      -0.399  21.266   3.924  1.00  0.00    -0.155 N
HETATM   28  C13 UNL     1      -0.249  21.236   5.253  1.00  0.00     0.279 A
ATOM     29  H6  UNL     1       0.140  20.659   3.306  1.00  0.00     0.187 HD
HETATM   30  O1  UNL     1       0.554  20.464   5.822  1.00  0.00    -0.266 OA
HETATM   31  S1  UNL     1      -1.061  22.376   7.768  1.00  0.00    -0.083 SA
BRANCH  25  32
HETATM   32  N5  UNL     1      -1.449  22.224   2.145  1.00  0.00    -0.234 N
ATOM     33  H52 UNL     1      -2.126  22.897   1.786  1.00  0.00     0.174 HD
ATOM     34  H51 UNL     1      -0.902  21.594   1.557  1.00  0.00     0.174 HD
ENDBRANCH  25  32
ENDBRANCH   1  20
TORSDOF 9
ENDMDL