MODEL 2
REMARK VINA RESULT: -9.132095074      4.777      8.806
REMARK  8 active torsions:
REMARK  status: ('A' for Active; 'I' for Inactive)
REMARK    1  A    between atoms: C2_5  and  S1_6
REMARK    2  A    between atoms: S1_6  and  C3_7
REMARK    3  A    between atoms: C3_7  and  C4_8
REMARK    4  A    between atoms: C8_17  and  O2_18
REMARK    5  A    between atoms: C9_20  and  C10_21
REMARK    6  A    between atoms: C10_21  and  C11_22
REMARK    7  A    between atoms: C13_24  and  C14_25
REMARK    8  A    between atoms: N4_26  and  C15_28
ROOT
HETATM    1  O1  UNL     1      -3.164  23.439  10.830  1.00  0.00    -0.267 OA
HETATM    2  C1  UNL     1      -2.878  24.539  10.277  1.00  0.00     0.258 A
HETATM    3  N1  UNL     1      -2.441  25.595  11.023  1.00  0.00    -0.303 N
ATOM      4  H1  UNL     1      -2.352  25.470  12.032  1.00  0.00     0.171 HD
HETATM    5  C2  UNL     1      -2.123  26.785  10.499  1.00  0.00     0.148 A
HETATM    6  N3  UNL     1      -2.244  26.935   9.168  1.00  0.00    -0.317 N
ATOM      7  H3  UNL     1      -2.008  27.832   8.743  1.00  0.00     0.170 HD
HETATM    8  C8  UNL     1      -2.671  25.928   8.386  1.00  0.00     0.154 A
HETATM    9  C9  UNL     1      -3.007  24.678   8.918  1.00  0.00     0.066 A
ENDROOT
BRANCH   9  10
HETATM   10  C10 UNL     1      -3.467  23.590   8.022  1.00  0.00     0.106 C
BRANCH  10  11
HETATM   11  C11 UNL     1      -2.256  22.765   7.663  1.00  0.00     0.014 A
HETATM   12  C12 UNL     1      -1.685  22.770   6.417  1.00  0.00     0.039 A
HETATM   13  C13 UNL     1      -0.601  21.880   6.479  1.00  0.00    -0.004 A
HETATM   14  C20 UNL     1      -0.556  21.371   7.750  1.00  0.00     0.101 A
HETATM   15  N5  UNL     1      -1.573  21.931   8.434  1.00  0.00    -0.368 N
ATOM     16  H5  UNL     1      -1.788  21.739   9.412  1.00  0.00     0.165 HD
BRANCH  13  17
HETATM   17  C14 UNL     1       0.269  21.600   5.361  1.00  0.00     0.096 C
HETATM   18  N4  UNL     1      -0.006  20.916   4.382  1.00  0.00    -0.393 N
ATOM     19  H4  UNL     1       0.804  20.899   3.763  1.00  0.00     0.159 HD
BRANCH  18  20
HETATM   20  C15 UNL     1      -1.008  20.159   3.808  1.00  0.00     0.081 C
HETATM   21  C16 UNL     1      -1.421  20.761   2.453  1.00  0.00     0.025 C
HETATM   22  C17 UNL     1      -0.077  20.708   1.726  1.00  0.00     0.002 C
HETATM   23  C18 UNL     1       0.634  19.475   2.272  1.00  0.00     0.002 C
HETATM   24  C19 UNL     1      -0.355  18.859   3.264  1.00  0.00     0.025 C
ENDBRANCH  18  20
ENDBRANCH  13  17
ENDBRANCH  10  11
ENDBRANCH   9  10
BRANCH   8  25
HETATM   25  O2  UNL     1      -2.805  26.062   7.007  1.00  0.00    -0.345 OA
ATOM     26  H2  UNL     1      -2.468  25.413   6.399  1.00  0.00     0.219 HD
ENDBRANCH   8  25
BRANCH   5  27
HETATM   27  S1  UNL     1      -1.550  28.152  11.508  1.00  0.00    -0.093 SA
BRANCH  27  28
HETATM   28  C3  UNL     1      -2.017  29.735  10.816  1.00  0.00     0.088 C
BRANCH  28  29
HETATM   29  C4  UNL     1      -0.955  30.793  11.024  1.00  0.00     0.022 C
HETATM   30  C5  UNL     1      -0.718  31.588   9.746  1.00  0.00     0.034 C
HETATM   31  C6  UNL     1       0.654  32.164  10.033  1.00  0.00     0.232 C
HETATM   32  N2  UNL     1       1.316  31.224  10.900  1.00  0.00    -0.075 N
HETATM   33  C7  UNL     1       0.412  30.160  11.206  1.00  0.00     0.237 C
ATOM     34  H22 UNL     1       2.196  30.887  10.510  1.00  0.00     0.277 HD
ATOM     35  H21 UNL     1       1.694  31.666  11.739  1.00  0.00     0.277 HD
ENDBRANCH  28  29
ENDBRANCH  27  28
ENDBRANCH   5  27
TORSDOF 8
ENDMDL