MODEL 3
REMARK VINA RESULT: -9.252627309      1.161      1.840
REMARK  8 active torsions:
REMARK  status: ('A' for Active; 'I' for Inactive)
REMARK    1  A    between atoms: C2_2  and  C3_3
REMARK    2  A    between atoms: C3_3  and  C4_4
REMARK    3  A    between atoms: C4_4  and  C5_5
REMARK    4  A    between atoms: C5_5  and  N1_6
REMARK    5  A    between atoms: N1_6  and  C6_8
REMARK    6  A    between atoms: N5_19  and  C10_20
REMARK    7  A    between atoms: N6_23  and  C13_24
REMARK    8  A    between atoms: C13_24  and  C14_25
ROOT
HETATM    1  C6  UNL     1      -2.913  26.179  10.276  1.00  0.00     0.681 A
HETATM    2  N2  UNL     1      -4.126  26.291  10.779  1.00  0.00    -0.175 N
ATOM      3  H2  UNL     1      -4.316  27.117  11.346  1.00  0.00     0.186 HD
HETATM    4  C7  UNL     1      -5.132  25.421  10.615  1.00  0.00     0.145 A
HETATM    5  N3  UNL     1      -6.265  25.560  11.048  1.00  0.00    -0.383 N
ATOM      6  H31 UNL     1      -7.030  24.898  10.923  1.00  0.00     0.157 HD
ATOM      7  H32 UNL     1      -6.489  26.373  11.621  1.00  0.00     0.157 HD
HETATM    8  C8  UNL     1      -4.828  24.317   9.837  1.00  0.00     0.123 A
HETATM    9  N4  UNL     1      -5.540  23.217   9.519  1.00  0.00    -0.346 N
ATOM     10  H4  UNL     1      -6.506  23.032   9.790  1.00  0.00     0.167 HD
HETATM   11  C9  UNL     1      -4.756  22.402   8.781  1.00  0.00     0.185 A
HETATM   12  N5  UNL     1      -3.545  22.997   8.631  1.00  0.00    -0.322 N
HETATM   13  C20 UNL     1      -3.572  24.185   9.291  1.00  0.00     0.155 A
HETATM   14  N9  UNL     1      -2.609  25.077   9.478  1.00  0.00    -0.174 N
ATOM     15  H9  UNL     1      -1.687  24.962   9.058  1.00  0.00     0.186 HD
ENDROOT
BRANCH  12  16
HETATM   16  C10 UNL     1      -2.596  22.402   7.774  1.00  0.00     0.094 C
HETATM   17  C11 UNL     1      -1.255  22.050   8.260  1.00  0.00     0.041 C
HETATM   18  C12 UNL     1      -0.291  21.927   7.096  1.00  0.00     0.097 C
HETATM   19  N6  UNL     1      -1.010  21.810   5.836  1.00  0.00    -0.290 NA
HETATM   20  C18 UNL     1      -1.767  22.976   5.529  1.00  0.00     0.097 C
HETATM   21  C19 UNL     1      -2.291  23.588   6.771  1.00  0.00     0.041 C
BRANCH  19  22
HETATM   22  C13 UNL     1      -0.242  21.261   4.818  1.00  0.00     0.091 C
BRANCH  22  23
HETATM   23  C14 UNL     1      -0.733  21.259   3.451  1.00  0.00     0.066 A
HETATM   24  N7  UNL     1      -1.342  22.127   2.671  1.00  0.00    -0.350 N
HETATM   25  C15 UNL     1      -1.843  21.538   1.547  1.00  0.00     0.181 A
ATOM     26  H7  UNL     1      -1.428  23.121   2.881  1.00  0.00     0.166 HD
HETATM   27  N8  UNL     1      -1.528  20.210   1.620  1.00  0.00    -0.354 N
HETATM   28  C16 UNL     1      -0.869  20.024   2.743  1.00  0.00     0.034 A
ATOM     29  H8  UNL     1      -1.761  19.496   0.930  1.00  0.00     0.166 HD
HETATM   30  C17 UNL     1      -0.120  18.847   3.293  1.00  0.00     0.070 C
ENDBRANCH  22  23
ENDBRANCH  19  22
ENDBRANCH  12  16
BRANCH   1  31
HETATM   31  N1  UNL     1      -1.807  26.704  10.837  1.00  0.00    -0.226 N
ATOM     32  H1  UNL     1      -1.266  26.232  11.562  1.00  0.00     0.177 HD
BRANCH  31  33
HETATM   33  C5  UNL     1      -1.444  28.084  10.276  1.00  0.00     0.138 C
BRANCH  33  34
HETATM   34  C4  UNL     1      -1.412  28.924  11.546  1.00  0.00     0.020 C
BRANCH  34  35
HETATM   35  C3  UNL     1      -2.654  29.320  12.165  1.00  0.00     0.001 C
BRANCH  35  36
HETATM   36  C2  UNL     1      -2.892  28.924  13.606  1.00  0.00    -0.004 C
HETATM   37  C1  UNL     1      -4.264  28.243  13.712  1.00  0.00     0.005 C
ENDBRANCH  35  36
ENDBRANCH  34  35
ENDBRANCH  33  34
ENDBRANCH  31  33
ENDBRANCH   1  31
TORSDOF 8
ENDMDL