MODEL 3
REMARK VINA RESULT: -7.714168185      6.626     10.320
REMARK  8 active torsions:
REMARK  status: ('A' for Active; 'I' for Inactive)
REMARK    1  A    between atoms: C2_2  and  C3_3
REMARK    2  A    between atoms: C4_4  and  S1_5
REMARK    3  A    between atoms: S1_5  and  C5_6
REMARK    4  A    between atoms: C9_12  and  S2_13
REMARK    5  A    between atoms: S2_13  and  C10_14
REMARK    6  A    between atoms: C10_14  and  C11_15
REMARK    7  A    between atoms: C11_15  and  N2_16
REMARK       I    between atoms: N2_16  and  C12_18
REMARK       I    between atoms: C12_18  and  N4_22
REMARK    8  A    between atoms: N4_22  and  C13_24
ROOT
HETATM    1  C3  UNL     1      -3.441  23.397  10.037  1.00  0.00     0.043 A
HETATM    2  C4  UNL     1      -4.151  23.218   8.862  1.00  0.00     0.084 A
HETATM    3  N1  UNL     1      -3.542  22.981   7.704  1.00  0.00    -0.331 N
ATOM      4  H1  UNL     1      -4.106  22.857   6.863  1.00  0.00     0.168 HD
HETATM    5  C9  UNL     1      -2.181  22.899   7.610  1.00  0.00     0.147 A
HETATM    6  N5  UNL     1      -1.465  23.072   8.747  1.00  0.00    -0.303 N
ATOM      7  H5  UNL     1      -0.446  23.018   8.714  1.00  0.00     0.171 HD
HETATM    8  C17 UNL     1      -2.077  23.312   9.915  1.00  0.00     0.256 A
HETATM    9  O2  UNL     1      -1.390  23.476  10.991  1.00  0.00    -0.267 OA
ENDROOT
BRANCH   5  10
HETATM   10  S2  UNL     1      -1.447  22.540   6.054  1.00  0.00    -0.092 SA
BRANCH  10  11
HETATM   11  C10 UNL     1      -0.009  21.519   6.011  1.00  0.00     0.102 C
BRANCH  11  12
HETATM   12  C11 UNL     1      -0.087  20.242   5.280  1.00  0.00     0.148 C
BRANCH  12  13
HETATM   13  N2  UNL     1       0.670  20.043   4.093  1.00  0.00    -0.226 N
HETATM   14  C12 UNL     1      -0.069  19.917   2.821  1.00  0.00     0.667 C
HETATM   15  N3  UNL     1       0.177  19.058   2.073  1.00  0.00    -0.235 N
HETATM   16  N4  UNL     1      -1.053  20.918   2.574  1.00  0.00    -0.220 N
ATOM     17  H32 UNL     1       0.883  18.342   2.249  1.00  0.00     0.174 HD
ATOM     18  H31 UNL     1      -0.333  18.970   1.193  1.00  0.00     0.174 HD
ATOM     19  H4  UNL     1      -1.502  21.342   3.386  1.00  0.00     0.178 HD
ATOM     20  H2  UNL     1       1.688  19.990   4.120  1.00  0.00     0.177 HD
BRANCH  16  21
HETATM   21  C13 UNL     1      -1.467  21.381   1.278  1.00  0.00     0.125 C
HETATM   22  C14 UNL     1      -0.449  21.194   0.202  1.00  0.00     0.054 C
HETATM   23  C15 UNL     1      -1.150  20.265  -0.776  1.00  0.00     0.169 C
HETATM   24  O1  UNL     1      -2.194  19.698  -0.062  1.00  0.00    -0.389 OA
HETATM   25  C16 UNL     1      -2.693  20.681   0.758  1.00  0.00     0.193 C
ENDBRANCH  16  21
ENDBRANCH  12  13
ENDBRANCH  11  12
ENDBRANCH  10  11
ENDBRANCH   5  10
BRANCH   2  26
HETATM   26  S1  UNL     1      -5.947  23.298   8.924  1.00  0.00    -0.103 SA
BRANCH  26  27
HETATM   27  C5  UNL     1      -6.653  21.664   9.110  1.00  0.00     0.003 C
HETATM   28  C6  UNL     1      -5.707  20.605   9.614  1.00  0.00     0.026 C
HETATM   29  C7  UNL     1      -7.169  21.129   7.764  1.00  0.00     0.026 C
HETATM   30  C8  UNL     1      -7.820  21.687  10.070  1.00  0.00     0.026 C
ENDBRANCH  26  27
ENDBRANCH   2  26
BRANCH   1  31
HETATM   31  C2  UNL     1      -4.090  23.675  11.356  1.00  0.00     0.043 C
HETATM   32  C1  UNL     1      -4.184  25.179  11.614  1.00  0.00     0.010 C
ENDBRANCH   1  31
TORSDOF 8
ENDMDL