MODEL 3
REMARK VINA RESULT: -8.876696856      2.405      4.917
REMARK  8 active torsions:
REMARK  status: ('A' for Active; 'I' for Inactive)
REMARK    1  A    between atoms: C2_3  and  C3_4
REMARK    2  A    between atoms: C5_6  and  C6_7
REMARK    3  A    between atoms: C6_7  and  N2_8
REMARK    4  A    between atoms: N2_8  and  C7_9
REMARK    5  A    between atoms: N2_8  and  C12_17
REMARK    6  A    between atoms: C7_9  and  C8_10
REMARK    7  A    between atoms: C21_33  and  C22_34
REMARK    8  A    between atoms: C22_34  and  O1_35
ROOT
HETATM    1  C3  UNL     1      -1.804  22.895   8.029  1.00  0.00     0.036 A
HETATM    2  C4  UNL     1      -3.095  22.732   8.565  1.00  0.00     0.028 A
HETATM    3  C5  UNL     1      -3.417  22.871   9.886  1.00  0.00    -0.014 A
HETATM    4  C18 UNL     1      -2.374  23.193  10.727  1.00  0.00     0.098 A
HETATM    5  N4  UNL     1      -1.123  23.359  10.277  1.00  0.00    -0.351 N
ATOM      6  H4  UNL     1      -0.377  23.598  10.930  1.00  0.00     0.166 HD
HETATM    7  C19 UNL     1      -0.836  23.209   8.936  1.00  0.00     0.111 A
HETATM    8  N5  UNL     1       0.408  23.298   8.597  1.00  0.00    -0.385 N
ATOM      9  H51 UNL     1       1.132  23.533   9.275  1.00  0.00     0.157 HD
ATOM     10  H52 UNL     1       0.620  23.187   7.606  1.00  0.00     0.157 HD
ENDROOT
BRANCH   3  11
HETATM   11  C6  UNL     1      -4.765  22.699  10.433  1.00  0.00     0.313 C
BRANCH  11  12
HETATM   12  N2  UNL     1      -5.808  22.861   9.390  1.00  0.00     0.097 N
BRANCH  12  13
HETATM   13  C7  UNL     1      -6.622  21.665   9.534  1.00  0.00     0.279 C
BRANCH  13  14
HETATM   14  C8  UNL     1      -6.023  20.424   8.984  1.00  0.00     0.041 C
HETATM   15  C9  UNL     1      -6.126  19.248   9.937  1.00  0.00     0.035 C
HETATM   16  C10 UNL     1      -7.574  18.870   9.812  1.00  0.00     0.232 C
HETATM   17  N3  UNL     1      -7.840  19.005   8.412  1.00  0.00    -0.075 N
HETATM   18  C11 UNL     1      -6.928  19.954   7.845  1.00  0.00     0.238 C
ATOM     19  H32 UNL     1      -7.817  18.109   7.926  1.00  0.00     0.277 HD
ATOM     20  H31 UNL     1      -8.814  19.246   8.226  1.00  0.00     0.277 HD
ENDBRANCH  13  14
ENDBRANCH  12  13
BRANCH  12  21
HETATM   21  C12 UNL     1      -6.485  24.076   9.756  1.00  0.00     0.223 C
HETATM   22  C13 UNL     1      -7.102  24.104  11.119  1.00  0.00     0.036 C
HETATM   23  C14 UNL     1      -8.221  25.162  11.036  1.00  0.00     0.002 C
HETATM   24  C15 UNL     1      -7.676  26.495  10.626  1.00  0.00     0.000 C
HETATM   25  C16 UNL     1      -6.706  26.453   9.473  1.00  0.00     0.002 C
HETATM   26  C17 UNL     1      -5.689  25.334   9.577  1.00  0.00     0.036 C
ENDBRANCH  12  21
ENDBRANCH  11  12
ENDBRANCH   3  11
BRANCH   1  27
HETATM   27  C2  UNL     1      -1.632  22.633   6.619  1.00  0.00     0.065 A
HETATM   28  N1  UNL     1      -0.851  21.825   5.924  1.00  0.00    -0.337 N
HETATM   29  C1  UNL     1       0.147  20.852   6.337  1.00  0.00     0.158 C
HETATM   30  C21 UNL     1      -1.019  22.078   4.589  1.00  0.00     0.107 A
HETATM   31  N6  UNL     1      -1.910  23.055   4.456  1.00  0.00    -0.352 N
HETATM   32  C20 UNL     1      -2.307  23.421   5.666  1.00  0.00     0.120 A
ATOM     33  H6  UNL     1      -2.233  23.454   3.575  1.00  0.00     0.166 HD
BRANCH  30  34
HETATM   34  C22 UNL     1      -0.359  21.419   3.432  1.00  0.00     0.240 C
BRANCH  34  35
HETATM   35  O1  UNL     1      -0.906  21.972   2.276  1.00  0.00    -0.393 OA
ATOM     36  H1  UNL     1      -1.746  21.552   2.135  1.00  0.00     0.209 HD
ENDBRANCH  34  35
ENDBRANCH  30  34
ENDBRANCH   1  27
TORSDOF 8
ENDMDL