MODEL 3
REMARK VINA RESULT: -9.085020087      0.904      1.046
REMARK  9 active torsions:
REMARK  status: ('A' for Active; 'I' for Inactive)
REMARK    1  A    between atoms: C2_2  and  C3_3
REMARK    2  A    between atoms: N2_9  and  C6_10
REMARK    3  A    between atoms: C8_12  and  O2_13
REMARK    4  A    between atoms: C9_15  and  C10_16
REMARK    5  A    between atoms: C10_16  and  O3_17
REMARK    6  A    between atoms: C12_21  and  N3_22
REMARK       I    between atoms: N3_22  and  C13_24
REMARK    7  A    between atoms: C13_24  and  C14_26
REMARK    8  A    between atoms: C14_26  and  C15_27
REMARK    9  A    between atoms: C15_27  and  C16_28
ROOT
HETATM    1  C3  UNL     1      -4.625  22.026   8.525  1.00  0.00     0.005 C
HETATM    2  C4  UNL     1      -4.118  23.073   9.135  1.00  0.00     0.060 A
HETATM    3  N1  UNL     1      -4.491  23.373  10.452  1.00  0.00    -0.307 N
ATOM      4  H1  UNL     1      -5.139  22.765  10.953  1.00  0.00     0.170 HD
HETATM    5  C5  UNL     1      -3.955  24.538  11.090  1.00  0.00     0.329 A
HETATM    6  O1  UNL     1      -4.318  24.770  12.280  1.00  0.00    -0.246 OA
HETATM    7  N2  UNL     1      -3.054  25.386  10.400  1.00  0.00    -0.280 N
HETATM    8  C11 UNL     1      -2.723  25.019   9.072  1.00  0.00     0.130 A
HETATM    9  C12 UNL     1      -3.182  23.964   8.438  1.00  0.00     0.077 A
ENDROOT
BRANCH   9  10
HETATM   10  N3  UNL     1      -2.774  23.717   7.105  1.00  0.00    -0.324 N
HETATM   11  C13 UNL     1      -1.735  22.817   6.783  1.00  0.00     0.222 C
HETATM   12  O5  UNL     1      -1.135  22.214   7.700  1.00  0.00    -0.273 OA
ATOM     13  H3  UNL     1      -3.249  24.209   6.348  1.00  0.00     0.169 HD
BRANCH  11  14
HETATM   14  C14 UNL     1      -1.323  22.559   5.383  1.00  0.00     0.103 C
BRANCH  14  15
HETATM   15  C15 UNL     1      -0.409  21.372   5.306  1.00  0.00     0.014 C
BRANCH  15  16
HETATM   16  C16 UNL     1      -0.057  20.982   3.909  1.00  0.00    -0.014 C
HETATM   17  C17 UNL     1       0.006  19.495   3.698  1.00  0.00     0.004 C
HETATM   18  C18 UNL     1       0.521  19.275   2.274  1.00  0.00     0.000 C
HETATM   19  C19 UNL     1      -0.397  19.864   1.255  1.00  0.00     0.000 C
HETATM   20  C20 UNL     1      -0.826  21.265   1.537  1.00  0.00     0.000 C
HETATM   21  C21 UNL     1      -1.158  21.510   2.993  1.00  0.00     0.004 C
ENDBRANCH  15  16
ENDBRANCH  14  15
ENDBRANCH  11  14
ENDBRANCH   9  10
BRANCH   1  22
HETATM   22  C2  UNL     1      -5.584  21.100   9.124  1.00  0.00     0.025 C
HETATM   23  C1  UNL     1      -6.865  21.005   8.295  1.00  0.00     0.009 C
ENDBRANCH   1  22
BRANCH   7  24
HETATM   24  C6  UNL     1      -2.533  26.542  11.053  1.00  0.00     0.235 C
HETATM   25  C7  UNL     1      -3.630  27.568  11.371  1.00  0.00     0.088 C
HETATM   26  C8  UNL     1      -2.768  28.801  11.651  1.00  0.00     0.153 C
HETATM   27  C9  UNL     1      -1.474  28.427  11.037  1.00  0.00     0.176 C
HETATM   28  O4  UNL     1      -1.696  27.301  10.239  1.00  0.00    -0.356 OA
BRANCH  26  29
HETATM   29  O2  UNL     1      -3.352  29.945  11.127  1.00  0.00    -0.393 OA
ATOM     30  H2  UNL     1      -2.781  30.697  11.232  1.00  0.00     0.210 HD
ENDBRANCH  26  29
BRANCH  27  31
HETATM   31  C10 UNL     1      -0.808  29.486  10.233  1.00  0.00     0.198 C
BRANCH  31  32
HETATM   32  O3  UNL     1      -1.372  29.722   9.005  1.00  0.00    -0.398 OA
ATOM     33  H3  UNL     1      -0.781  29.625   8.267  1.00  0.00     0.209 HD
ENDBRANCH  31  32
ENDBRANCH  27  31
ENDBRANCH   7  24
TORSDOF 9
ENDMDL