MODEL 1
REMARK VINA RESULT: -7.970697729      0.000      0.000
REMARK  13 active torsions:
REMARK  status: ('A' for Active; 'I' for Inactive)
REMARK    1  A    between atoms: C2_2  and  C3_3
REMARK    2  A    between atoms: C3_3  and  C4_4
REMARK    3  A    between atoms: C4_4  and  N1_5
REMARK    4  A    between atoms: N1_5  and  C5_6
REMARK    5  A    between atoms: N1_5  and  C13_15
REMARK    6  A    between atoms: C5_6  and  C6_7
REMARK    7  A    between atoms: C9_10  and  S1_11
REMARK    8  A    between atoms: C13_15  and  C14_16
REMARK    9  A    between atoms: C21_24  and  N2_25
REMARK       I    between atoms: N3_28  and  C24_29
REMARK   10  A    between atoms: C24_29  and  C25_31
REMARK   11  A    between atoms: C25_31  and  C26_32
REMARK   12  A    between atoms: C26_32  and  C27_33
REMARK   13  A    between atoms: C27_33  and  N4_34
ROOT
HETATM    1  C14 UNL     1      63.221  82.327  63.667  1.00  0.00     0.002 A
HETATM    2  C15 UNL     1      64.516  82.394  63.253  1.00  0.00     0.016 A
HETATM    3  C16 UNL     1      65.179  81.222  62.959  1.00  0.00     0.021 A
HETATM    4  C17 UNL     1      64.507  79.996  63.090  1.00  0.00     0.017 A
HETATM    5  S2  UNL     1      64.961  78.372  62.836  1.00  0.00    -0.101 SA
HETATM    6  C18 UNL     1      63.505  77.611  63.255  1.00  0.00     0.051 A
HETATM    7  C19 UNL     1      62.684  78.653  63.589  1.00  0.00     0.022 A
HETATM    8  C20 UNL     1      63.201  79.904  63.505  1.00  0.00     0.009 A
HETATM    9  C21 UNL     1      62.540  81.105  63.802  1.00  0.00     0.053 A
ENDROOT
BRANCH   1  10
HETATM   10  C13 UNL     1      62.458  83.555  63.928  1.00  0.00     0.073 C
BRANCH  10  11
HETATM   11  N1  UNL     1      62.481  84.485  62.877  1.00  0.00    -0.288 NA
BRANCH  11  12
HETATM   12  C4  UNL     1      62.857  85.821  63.223  1.00  0.00     0.095 C
BRANCH  12  13
HETATM   13  C3  UNL     1      64.319  86.033  62.982  1.00  0.00     0.014 C
BRANCH  13  14
HETATM   14  C2  UNL     1      64.612  87.326  62.258  1.00  0.00    -0.003 C
HETATM   15  C1  UNL     1      63.443  87.863  61.496  1.00  0.00     0.005 C
ENDBRANCH  13  14
ENDBRANCH  12  13
ENDBRANCH  11  12
BRANCH  11  16
HETATM   16  C5  UNL     1      61.345  84.410  61.993  1.00  0.00     0.133 C
BRANCH  16  17
HETATM   17  C6  UNL     1      61.612  84.834  60.599  1.00  0.00    -0.045 A
HETATM   18  C7  UNL     1      60.970  85.869  59.956  1.00  0.00     0.010 A
HETATM   19  C8  UNL     1      61.271  86.216  58.638  1.00  0.00     0.019 A
HETATM   20  C9  UNL     1      62.225  85.540  57.912  1.00  0.00    -0.000 A
HETATM   21  C11 UNL     1      62.874  84.503  58.546  1.00  0.00     0.019 A
HETATM   22  C12 UNL     1      62.578  84.161  59.846  1.00  0.00     0.010 A
BRANCH  20  23
HETATM   23  S1  UNL     1      62.608  85.986  56.212  1.00  0.00    -0.134 SA
HETATM   24  C10 UNL     1      61.390  85.349  55.063  1.00  0.00     0.095 C
ENDBRANCH  20  23
ENDBRANCH  16  17
ENDBRANCH  11  16
ENDBRANCH  10  11
ENDBRANCH   1  10
BRANCH   9  25
HETATM   25  N2  UNL     1      61.212  81.127  64.250  1.00  0.00    -0.376 N
HETATM   26  C22 UNL     1      60.768  81.082  65.598  1.00  0.00     0.143 C
HETATM   27  C23 UNL     1      59.300  80.749  65.723  1.00  0.00     0.145 C
HETATM   28  N3  UNL     1      59.015  79.735  64.740  1.00  0.00    -0.349 N
HETATM   29  C24 UNL     1      58.607  78.439  65.153  1.00  0.00     0.219 C
HETATM   30  C28 UNL     1      59.168  80.090  63.349  1.00  0.00     0.145 C
HETATM   31  O1  UNL     1      58.492  78.148  66.381  1.00  0.00    -0.273 OA
HETATM   32  C29 UNL     1      60.193  81.225  63.202  1.00  0.00     0.143 C
BRANCH  29  33
HETATM   33  C25 UNL     1      58.319  77.414  64.138  1.00  0.00     0.105 C
BRANCH  33  34
HETATM   34  C26 UNL     1      56.901  77.037  63.957  1.00  0.00     0.036 C
BRANCH  34  35
HETATM   35  C27 UNL     1      55.966  78.039  63.395  1.00  0.00     0.230 C
BRANCH  35  36
HETATM   36  N4  UNL     1      55.917  78.144  61.969  1.00  0.00    -0.079 N
ATOM     37  H43 UNL     1      56.848  78.353  61.609  1.00  0.00     0.274 HD
ATOM     38  H42 UNL     1      55.762  77.221  61.564  1.00  0.00     0.274 HD
ATOM     39  H41 UNL     1      55.243  78.805  61.581  1.00  0.00     0.274 HD
ENDBRANCH  35  36
ENDBRANCH  34  35
ENDBRANCH  33  34
ENDBRANCH  29  33
ENDBRANCH   9  25
TORSDOF 13
ENDMDL