MODEL 2
REMARK VINA RESULT: -9.867406573      0.716      1.105
REMARK  14 active torsions:
REMARK  status: ('A' for Active; 'I' for Inactive)
REMARK    1  A    between atoms: C2_2  and  N1_3
REMARK    2  A    between atoms: C6_9  and  N3_10
REMARK    3  A    between atoms: N3_10  and  C7_12
REMARK    4  A    between atoms: C7_12  and  C8_13
REMARK    5  A    between atoms: C8_13  and  C9_14
REMARK    6  A    between atoms: C9_14  and  C10_15
REMARK    7  A    between atoms: C10_15  and  C11_16
REMARK    8  A    between atoms: C11_16  and  C12_17
REMARK    9  A    between atoms: C12_17  and  N4_18
REMARK   10  A    between atoms: N4_18  and  C13_19
REMARK   11  A    between atoms: N4_18  and  C22_32
REMARK   12  A    between atoms: C13_19  and  C14_20
REMARK   13  A    between atoms: N5_22  and  C16_23
REMARK   14  A    between atoms: C22_32  and  C23_33
ROOT
HETATM    1  C12 UNL     1      60.085  85.115  62.898  1.00  0.00     0.064 C
ENDROOT
BRANCH   1   2
HETATM    2  C11 UNL     1      60.867  86.069  62.014  1.00  0.00     0.044 C
BRANCH   2   3
HETATM    3  C10 UNL     1      60.700  85.719  60.541  1.00  0.00     0.005 C
BRANCH   3   4
HETATM    4  C9  UNL     1      61.828  84.897  60.072  1.00  0.00     0.005 C
BRANCH   4   5
HETATM    5  C8  UNL     1      63.112  85.601  59.896  1.00  0.00     0.044 C
BRANCH   5   6
HETATM    6  C7  UNL     1      63.166  86.791  59.039  1.00  0.00     0.061 C
BRANCH   6   7
HETATM    7  N3  UNL     1      63.559  86.737  57.681  1.00  0.00    -0.369 N
ATOM      8  H3  UNL     1      64.501  86.992  57.383  1.00  0.00     0.165 HD
BRANCH   7   9
HETATM    9  C6  UNL     1      62.555  86.303  56.741  1.00  0.00     0.034 A
HETATM   10  C5  UNL     1      61.286  86.797  56.871  1.00  0.00     0.061 A
HETATM   11  C4  UNL     1      60.303  86.394  55.999  1.00  0.00     0.062 A
HETATM   12  N2  UNL     1      58.932  86.733  55.896  1.00  0.00    -0.350 N
HETATM   13  C29 UNL     1      60.599  85.485  54.986  1.00  0.00     0.062 A
HETATM   14  C3  UNL     1      58.399  86.086  54.894  1.00  0.00     0.183 A
ATOM     15  H2  UNL     1      58.437  87.381  56.509  1.00  0.00     0.166 HD
HETATM   16  N1  UNL     1      59.381  85.290  54.281  1.00  0.00    -0.342 N
HETATM   17  C28 UNL     1      61.871  84.987  54.853  1.00  0.00     0.034 A
HETATM   18  C27 UNL     1      62.857  85.389  55.725  1.00  0.00     0.032 A
BRANCH  16  19
HETATM   19  C2  UNL     1      59.227  84.411  53.139  1.00  0.00     0.125 C
HETATM   20  C1  UNL     1      59.725  85.086  51.865  1.00  0.00     0.027 C
ENDBRANCH  16  19
ENDBRANCH   7   9
ENDBRANCH   6   7
ENDBRANCH   5   6
ENDBRANCH   4   5
ENDBRANCH   3   4
ENDBRANCH   2   3
ENDBRANCH   1   2
BRANCH   1  21
HETATM   21  N4  UNL     1      60.971  84.517  63.809  1.00  0.00    -0.363 N
BRANCH  21  22
HETATM   22  C13 UNL     1      60.435  83.808  64.914  1.00  0.00     0.187 C
BRANCH  22  23
HETATM   23  C14 UNL     1      59.968  82.435  64.589  1.00  0.00     0.059 A
HETATM   24  C15 UNL     1      58.712  82.004  64.225  1.00  0.00     0.142 A
HETATM   25  N5  UNL     1      58.732  80.655  64.013  1.00  0.00    -0.249 N
HETATM   26  N6  UNL     1      59.984  80.301  64.251  1.00  0.00    -0.015 NA
HETATM   27  N7  UNL     1      60.731  81.335  64.592  1.00  0.00    -0.285 N
ATOM     28  H7  UNL     1      61.724  81.301  64.821  1.00  0.00     0.184 HD
BRANCH  25  29
HETATM   29  C16 UNL     1      57.631  79.841  63.623  1.00  0.00     0.054 A
HETATM   30  C17 UNL     1      56.447  79.937  64.319  1.00  0.00     0.031 A
HETATM   31  C18 UNL     1      55.335  79.193  64.018  1.00  0.00     0.002 A
HETATM   32  C19 UNL     1      55.399  78.304  62.971  1.00  0.00     0.000 A
HETATM   33  C20 UNL     1      56.577  78.190  62.257  1.00  0.00     0.002 A
HETATM   34  C21 UNL     1      57.691  78.952  62.575  1.00  0.00     0.031 A
ENDBRANCH  25  29
ENDBRANCH  22  23
ENDBRANCH  21  22
BRANCH  21  35
HETATM   35  C22 UNL     1      62.273  85.000  63.886  1.00  0.00     0.109 C
BRANCH  35  36
HETATM   36  C23 UNL     1      63.288  83.885  63.842  1.00  0.00     0.020 A
HETATM   37  C24 UNL     1      63.433  82.962  62.842  1.00  0.00     0.021 A
HETATM   38  C25 UNL     1      64.405  82.046  62.983  1.00  0.00     0.008 A
HETATM   39  C26 UNL     1      65.169  82.115  64.118  1.00  0.00     0.050 A
HETATM   40  S1  UNL     1      64.509  83.448  64.947  1.00  0.00    -0.101 SA
ENDBRANCH  35  36
ENDBRANCH  21  35
ENDBRANCH   1  21
TORSDOF 14
ENDMDL