MODEL 3
REMARK VINA RESULT: -9.895094990      3.550      9.087
REMARK  14 active torsions:
REMARK  status: ('A' for Active; 'I' for Inactive)
REMARK    1  A    between atoms: C2_2  and  C3_3
REMARK    2  A    between atoms: C3_3  and  N1_4
REMARK    3  A    between atoms: N1_4  and  C4_5
REMARK       I    between atoms: N1_4  and  C10_13
REMARK    4  A    between atoms: C4_5  and  C5_6
REMARK    5  A    between atoms: C10_13  and  C11_15
REMARK    6  A    between atoms: C11_15  and  C12_16
REMARK    7  A    between atoms: C12_16  and  C13_17
REMARK    8  A    between atoms: C13_17  and  C14_18
REMARK    9  A    between atoms: C14_18  and  C15_19
REMARK   10  A    between atoms: C15_19  and  N3_20
REMARK   11  A    between atoms: C16_21  and  S1_22
REMARK   12  A    between atoms: S1_22  and  C17_23
REMARK   13  A    between atoms: C17_23  and  C18_24
REMARK   14  A    between atoms: N5_38  and  O2_40
ROOT
HETATM    1  C13 UNL     1      64.727  85.102  64.269  1.00  0.00     0.002 C
ENDROOT
BRANCH   1   2
HETATM    2  C12 UNL     1      65.418  83.855  64.680  1.00  0.00     0.009 C
BRANCH   2   3
HETATM    3  C11 UNL     1      65.157  82.702  63.716  1.00  0.00     0.103 C
BRANCH   3   4
HETATM    4  C10 UNL     1      64.051  81.848  64.201  1.00  0.00     0.220 C
HETATM    5  N1  UNL     1      63.826  80.533  63.755  1.00  0.00    -0.343 N
HETATM    6  O1  UNL     1      63.258  82.332  65.068  1.00  0.00    -0.273 OA
BRANCH   5   7
HETATM    7  C3  UNL     1      62.697  79.778  64.282  1.00  0.00     0.180 C
BRANCH   7   8
HETATM    8  C2  UNL     1      61.578  79.616  63.343  1.00  0.00     0.024 C
HETATM    9  C1  UNL     1      60.770  80.768  62.873  1.00  0.00     0.067 C
HETATM   10  N5  UNL     1      61.256  78.444  62.887  1.00  0.00    -0.276 N
ATOM     11  H5  UNL     1      61.793  77.631  63.190  1.00  0.00     0.193 HD
BRANCH  10  12
HETATM   12  O2  UNL     1      60.229  78.267  62.021  1.00  0.00    -0.290 OA
ATOM     13  H2  UNL     1      60.237  77.581  61.365  1.00  0.00     0.244 HD
ENDBRANCH  10  12
ENDBRANCH   7   8
ENDBRANCH   5   7
BRANCH   5  14
HETATM   14  C4  UNL     1      64.634  79.865  62.774  1.00  0.00     0.166 C
BRANCH  14  15
HETATM   15  C5  UNL     1      65.301  78.634  63.220  1.00  0.00    -0.025 A
HETATM   16  C6  UNL     1      64.807  77.378  62.829  1.00  0.00     0.011 A
HETATM   17  C7  UNL     1      65.397  76.213  63.216  1.00  0.00     0.018 A
HETATM   18  C8  UNL     1      66.531  76.230  64.030  1.00  0.00     0.087 A
HETATM   19  N2  UNL     1      67.006  77.434  64.406  1.00  0.00    -0.375 N
HETATM   20  C9  UNL     1      66.421  78.580  64.022  1.00  0.00     0.096 A
ATOM     21  H2  UNL     1      67.834  77.477  65.000  1.00  0.00     0.164 HD
ENDBRANCH  14  15
ENDBRANCH   5  14
ENDBRANCH   3   4
ENDBRANCH   2   3
ENDBRANCH   1   2
BRANCH   1  22
HETATM   22  C14 UNL     1      64.551  85.360  62.836  1.00  0.00     0.020 C
BRANCH  22  23
HETATM   23  C15 UNL     1      63.699  86.454  62.347  1.00  0.00     0.131 C
BRANCH  23  24
HETATM   24  N3  UNL     1      62.443  86.111  61.761  1.00  0.00    -0.326 N
HETATM   25  C16 UNL     1      62.133  86.358  60.455  1.00  0.00     0.147 A
HETATM   26  N4  UNL     1      60.914  85.884  60.249  1.00  0.00    -0.335 N
HETATM   27  C24 UNL     1      60.414  85.336  61.358  1.00  0.00     0.061 A
ATOM     28  H4  UNL     1      60.421  85.930  59.357  1.00  0.00     0.168 HD
HETATM   29  C25 UNL     1      59.242  84.706  61.704  1.00  0.00     0.032 A
HETATM   30  C29 UNL     1      61.410  85.492  62.315  1.00  0.00     0.063 A
HETATM   31  C26 UNL     1      58.990  84.206  62.968  1.00  0.00     0.002 A
HETATM   32  C27 UNL     1      59.975  84.355  63.925  1.00  0.00     0.002 A
HETATM   33  C28 UNL     1      61.143  84.981  63.591  1.00  0.00     0.032 A
BRANCH  25  34
HETATM   34  S1  UNL     1      63.219  87.185  59.265  1.00  0.00    -0.089 SA
BRANCH  34  35
HETATM   35  C17 UNL     1      62.495  87.028  57.588  1.00  0.00     0.121 C
BRANCH  35  36
HETATM   36  C18 UNL     1      63.191  85.944  56.848  1.00  0.00    -0.049 A
HETATM   37  C19 UNL     1      62.570  85.341  55.775  1.00  0.00     0.008 A
HETATM   38  C20 UNL     1      63.206  84.319  55.065  1.00  0.00     0.001 A
HETATM   39  C21 UNL     1      64.468  83.880  55.410  1.00  0.00     0.000 A
HETATM   40  C22 UNL     1      65.080  84.491  56.486  1.00  0.00     0.001 A
HETATM   41  C23 UNL     1      64.452  85.501  57.187  1.00  0.00     0.008 A
ENDBRANCH  35  36
ENDBRANCH  34  35
ENDBRANCH  25  34
ENDBRANCH  23  24
ENDBRANCH  22  23
ENDBRANCH   1  22
TORSDOF 14
ENDMDL