MODEL 1
REMARK VINA RESULT: -9.196121078      0.000      0.000
REMARK  14 active torsions:
REMARK  status: ('A' for Active; 'I' for Inactive)
REMARK    1  A    between atoms: C2_2  and  C3_3
REMARK    2  A    between atoms: C3_3  and  C4_4
REMARK    3  A    between atoms: C4_4  and  C5_5
REMARK    4  A    between atoms: C5_5  and  C6_6
REMARK    5  A    between atoms: C6_6  and  C7_7
REMARK    6  A    between atoms: C7_7  and  C8_8
REMARK    7  A    between atoms: C8_8  and  C9_9
REMARK    8  A    between atoms: C9_9  and  S1_10
REMARK    9  A    between atoms: S1_10  and  C10_11
REMARK   10  A    between atoms: C10_11  and  C11_12
REMARK   11  A    between atoms: C10_11  and  N4_32
REMARK   12  A    between atoms: C12_17  and  C13_18
REMARK   13  A    between atoms: C17_22  and  O1_23
REMARK   14  A    between atoms: O1_23  and  C18_24
ROOT
HETATM    1  N4  UNL     1      60.856  84.340  63.307  1.00  0.00    -0.345 N
HETATM    2  C23 UNL     1      59.536  84.399  63.141  1.00  0.00     0.092 A
HETATM    3  C24 UNL     1      58.730  83.262  63.304  1.00  0.00     0.019 A
HETATM    4  C25 UNL     1      59.318  82.082  63.638  1.00  0.00     0.025 A
HETATM    5  C26 UNL     1      60.685  82.024  63.810  1.00  0.00     0.060 A
HETATM    6  C27 UNL     1      61.356  80.802  64.164  1.00  0.00     0.101 C
HETATM    7  N5  UNL     1      61.882  79.813  64.459  1.00  0.00    -0.191 NA
HETATM    8  C28 UNL     1      61.448  83.186  63.636  1.00  0.00     0.114 A
ENDROOT
BRANCH   1   9
HETATM    9  C10 UNL     1      61.666  85.513  63.135  1.00  0.00     0.209 C
BRANCH   9  10
HETATM   10  S1  UNL     1      63.211  85.329  64.016  1.00  0.00    -0.137 SA
BRANCH  10  11
HETATM   11  C9  UNL     1      64.532  84.669  62.990  1.00  0.00     0.076 C
BRANCH  11  12
HETATM   12  C8  UNL     1      65.634  84.178  63.923  1.00  0.00     0.010 C
BRANCH  12  13
HETATM   13  C7  UNL     1      65.351  82.771  64.344  1.00  0.00     0.001 C
BRANCH  13  14
HETATM   14  C6  UNL     1      64.882  81.881  63.234  1.00  0.00     0.000 C
BRANCH  14  15
HETATM   15  C5  UNL     1      65.887  80.793  62.914  1.00  0.00     0.000 C
BRANCH  15  16
HETATM   16  C4  UNL     1      65.142  79.570  62.415  1.00  0.00     0.000 C
BRANCH  16  17
HETATM   17  C3  UNL     1      65.432  78.433  63.390  1.00  0.00    -0.000 C
BRANCH  17  18
HETATM   18  C2  UNL     1      64.673  77.178  62.948  1.00  0.00    -0.005 C
HETATM   19  C1  UNL     1      65.488  75.944  63.321  1.00  0.00     0.005 C
ENDBRANCH  17  18
ENDBRANCH  16  17
ENDBRANCH  15  16
ENDBRANCH  14  15
ENDBRANCH  13  14
ENDBRANCH  12  13
ENDBRANCH  11  12
ENDBRANCH  10  11
ENDBRANCH   9  10
BRANCH   9  20
HETATM   20  C11 UNL     1      61.977  85.645  61.673  1.00  0.00     0.101 A
HETATM   21  N1  UNL     1      62.395  86.708  60.993  1.00  0.00    -0.294 N
HETATM   22  N2  UNL     1      62.600  86.621  59.751  1.00  0.00    -0.292 N
ATOM     23  H1  UNL     1      62.551  87.593  61.475  1.00  0.00     0.187 HD
HETATM   24  C12 UNL     1      62.400  85.474  59.119  1.00  0.00     0.101 A
ATOM     25  H2  UNL     1      62.920  87.437  59.230  1.00  0.00     0.187 HD
HETATM   26  S2  UNL     1      61.889  84.480  60.409  1.00  0.00    -0.052 SA
BRANCH  24  27
HETATM   27  C13 UNL     1      62.574  85.177  57.703  1.00  0.00     0.002 A
HETATM   28  C14 UNL     1      63.709  84.547  57.249  1.00  0.00     0.014 A
HETATM   29  C15 UNL     1      63.931  84.238  55.937  1.00  0.00     0.004 A
HETATM   30  C16 UNL     1      62.929  84.593  55.016  1.00  0.00     0.037 A
HETATM   31  C17 UNL     1      61.777  85.222  55.411  1.00  0.00     0.070 A
HETATM   32  C22 UNL     1      61.610  85.513  56.782  1.00  0.00     0.051 A
BRANCH  31  33
HETATM   33  O1  UNL     1      60.781  85.583  54.556  1.00  0.00    -0.340 OA
BRANCH  33  34
HETATM   34  C18 UNL     1      59.554  84.940  54.434  1.00  0.00     0.170 C
HETATM   35  C19 UNL     1      59.390  84.527  53.024  1.00  0.00     0.023 C
HETATM   36  C20 UNL     1      58.676  85.418  52.389  1.00  0.00     0.081 C
HETATM   37  N3  UNL     1      58.316  86.463  53.280  1.00  0.00    -0.396 N
HETATM   38  C21 UNL     1      58.482  86.003  54.656  1.00  0.00     0.155 C
ATOM     39  H3  UNL     1      57.992  87.389  53.003  1.00  0.00     0.158 HD
ENDBRANCH  33  34
ENDBRANCH  31  33
ENDBRANCH  24  27
ENDBRANCH   9  20
ENDBRANCH   1   9
TORSDOF 14
ENDMDL