MODEL 2
REMARK VINA RESULT: -9.084267837      1.731      2.348
REMARK  14 active torsions:
REMARK  status: ('A' for Active; 'I' for Inactive)
REMARK    1  A    between atoms: C2_2  and  C3_3
REMARK    2  A    between atoms: C3_3  and  C4_4
REMARK    3  A    between atoms: C4_4  and  C5_5
REMARK    4  A    between atoms: C5_5  and  C6_6
REMARK    5  A    between atoms: C6_6  and  C7_7
REMARK    6  A    between atoms: C7_7  and  N1_8
REMARK    7  A    between atoms: N1_8  and  C8_9
REMARK    8  A    between atoms: N1_8  and  C15_16
REMARK    9  A    between atoms: C8_9  and  C9_10
REMARK   10  A    between atoms: N5_27  and  C20_28
REMARK   11  A    between atoms: C22_30  and  O1_31
REMARK   12  A    between atoms: C24_34  and  O2_35
REMARK   13  A    between atoms: O2_35  and  C25_36
REMARK   14  A    between atoms: C25_36  and  C26_37
ROOT
HETATM    1  C15 UNL     1      62.680  86.229  59.902  1.00  0.00     0.135 A
HETATM    2  N2  UNL     1      63.280  87.276  60.472  1.00  0.00    -0.337 N
ATOM      3  H2  UNL     1      63.545  88.074  59.895  1.00  0.00     0.168 HD
HETATM    4  C16 UNL     1      63.546  87.300  61.805  1.00  0.00     0.183 A
HETATM    5  N3  UNL     1      63.200  86.254  62.570  1.00  0.00    -0.336 N
ATOM      6  H3  UNL     1      63.402  86.279  63.569  1.00  0.00     0.168 HD
HETATM    7  C17 UNL     1      62.594  85.177  62.051  1.00  0.00     0.141 A
HETATM    8  C18 UNL     1      62.326  85.157  60.686  1.00  0.00     0.122 A
HETATM    9  N4  UNL     1      61.740  83.998  60.414  1.00  0.00    -0.346 N
ATOM     10  H4  UNL     1      61.422  83.683  59.498  1.00  0.00     0.167 HD
HETATM   11  C19 UNL     1      61.642  83.308  61.581  1.00  0.00     0.185 A
HETATM   12  N5  UNL     1      62.151  84.000  62.582  1.00  0.00    -0.320 N
ENDROOT
BRANCH   1  13
HETATM   13  N1  UNL     1      62.408  86.298  58.486  1.00  0.00    -0.365 N
BRANCH  13  14
HETATM   14  C7  UNL     1      61.087  86.505  57.989  1.00  0.00     0.124 C
BRANCH  14  15
HETATM   15  C6  UNL     1      61.054  86.611  56.471  1.00  0.00     0.020 C
BRANCH  15  16
HETATM   16  C5  UNL     1      59.650  86.508  55.922  1.00  0.00     0.002 C
BRANCH  16  17
HETATM   17  C4  UNL     1      59.555  85.613  54.721  1.00  0.00     0.000 C
BRANCH  17  18
HETATM   18  C3  UNL     1      60.865  84.888  54.458  1.00  0.00    -0.000 C
BRANCH  18  19
HETATM   19  C2  UNL     1      61.157  84.830  52.985  1.00  0.00    -0.005 C
HETATM   20  C1  UNL     1      60.166  85.617  52.170  1.00  0.00     0.005 C
ENDBRANCH  18  19
ENDBRANCH  17  18
ENDBRANCH  16  17
ENDBRANCH  15  16
ENDBRANCH  14  15
ENDBRANCH  13  14
BRANCH  13  21
HETATM   21  C8  UNL     1      63.537  86.108  57.628  1.00  0.00     0.129 C
BRANCH  21  22
HETATM   22  C9  UNL     1      64.127  84.746  57.601  1.00  0.00     0.004 C
HETATM   23  C10 UNL     1      63.150  83.694  57.233  1.00  0.00     0.006 C
HETATM   24  C11 UNL     1      63.853  82.713  56.277  1.00  0.00     0.000 C
HETATM   25  C12 UNL     1      64.214  83.381  54.981  1.00  0.00     0.000 C
HETATM   26  C13 UNL     1      64.954  84.689  55.238  1.00  0.00     0.000 C
HETATM   27  C14 UNL     1      65.363  84.719  56.697  1.00  0.00     0.006 C
ENDBRANCH  21  22
ENDBRANCH  13  21
ENDBRANCH   1  13
BRANCH  12  28
HETATM   28  C20 UNL     1      62.282  83.728  63.986  1.00  0.00     0.123 C
HETATM   29  C21 UNL     1      63.611  82.996  64.253  1.00  0.00     0.060 C
HETATM   30  C22 UNL     1      63.345  82.152  65.496  1.00  0.00     0.122 C
HETATM   31  C23 UNL     1      61.989  82.607  65.991  1.00  0.00     0.065 C
HETATM   32  C24 UNL     1      61.300  82.832  64.607  1.00  0.00     0.147 C
BRANCH  30  33
HETATM   33  O1  UNL     1      64.335  82.494  66.446  1.00  0.00    -0.395 OA
ATOM     34  H1  UNL     1      64.507  83.422  66.345  1.00  0.00     0.210 HD
ENDBRANCH  30  33
BRANCH  32  35
HETATM   35  O2  UNL     1      60.030  83.266  64.809  1.00  0.00    -0.379 OA
BRANCH  35  36
HETATM   36  C25 UNL     1      59.079  82.978  63.882  1.00  0.00     0.206 C
BRANCH  36  37
HETATM   37  C26 UNL     1      58.637  81.562  63.839  1.00  0.00    -0.035 A
HETATM   38  C27 UNL     1      57.422  81.250  64.405  1.00  0.00     0.009 A
HETATM   39  C28 UNL     1      56.897  79.977  64.427  1.00  0.00     0.001 A
HETATM   40  C29 UNL     1      57.629  78.967  63.853  1.00  0.00     0.000 A
HETATM   41  C30 UNL     1      58.850  79.262  63.281  1.00  0.00     0.001 A
HETATM   42  C31 UNL     1      59.370  80.558  63.264  1.00  0.00     0.009 A
ENDBRANCH  36  37
ENDBRANCH  35  36
ENDBRANCH  32  35
ENDBRANCH  12  28
TORSDOF 14
ENDMDL