MODEL 3
REMARK VINA RESULT: -9.839413567      1.499      3.959
REMARK  15 active torsions:
REMARK  status: ('A' for Active; 'I' for Inactive)
REMARK    1  A    between atoms: N1_1  and  C1_5
REMARK    2  A    between atoms: C1_5  and  C2_6
REMARK    3  A    between atoms: C2_6  and  C3_7
REMARK    4  A    between atoms: C3_7  and  C4_8
REMARK    5  A    between atoms: C4_8  and  C5_9
REMARK    6  A    between atoms: C5_9  and  N2_10
REMARK    7  A    between atoms: N2_10  and  C6_12
REMARK    8  A    between atoms: C9_15  and  N3_16
REMARK    9  A    between atoms: N5_25  and  C14_26
REMARK   10  A    between atoms: C14_26  and  C15_27
REMARK   11  A    between atoms: C15_27  and  C16_28
REMARK   12  A    between atoms: C16_28  and  C17_29
REMARK   13  A    between atoms: C17_29  and  C18_30
REMARK   14  A    between atoms: C18_30  and  C19_31
REMARK   15  A    between atoms: C19_31  and  N6_32
ROOT
HETATM    1  C6  UNL     1      61.737  81.845  63.275  1.00  0.00     0.117 A
HETATM    2  C7  UNL     1      63.075  81.396  63.261  1.00  0.00     0.037 A
HETATM    3  C8  UNL     1      63.381  80.046  63.246  1.00  0.00     0.053 A
HETATM    4  C9  UNL     1      64.700  79.566  63.227  1.00  0.00     0.103 A
HETATM    5  C10 UNL     1      65.696  80.505  63.223  1.00  0.00     0.038 A
HETATM    6  C11 UNL     1      65.437  81.847  63.237  1.00  0.00     0.033 A
HETATM    7  C12 UNL     1      64.115  82.298  63.255  1.00  0.00     0.047 A
HETATM    8  N4  UNL     1      63.901  83.640  63.264  1.00  0.00    -0.351 N
ATOM      9  H4  UNL     1      64.676  84.302  63.262  1.00  0.00     0.166 HD
HETATM   10  C13 UNL     1      62.640  84.050  63.276  1.00  0.00     0.185 A
HETATM   11  N5  UNL     1      61.596  83.213  63.281  1.00  0.00    -0.329 N
ENDROOT
BRANCH  11  12
HETATM   12  C14 UNL     1      60.246  83.755  63.257  1.00  0.00     0.131 C
BRANCH  12  13
HETATM   13  C15 UNL     1      60.279  85.235  62.899  1.00  0.00     0.020 C
BRANCH  13  14
HETATM   14  C16 UNL     1      59.913  85.320  61.404  1.00  0.00     0.002 C
BRANCH  14  15
HETATM   15  C17 UNL     1      60.999  86.062  60.684  1.00  0.00     0.002 C
BRANCH  15  16
HETATM   16  C18 UNL     1      61.425  85.512  59.388  1.00  0.00     0.020 C
BRANCH  16  17
HETATM   17  C19 UNL     1      61.438  86.459  58.234  1.00  0.00     0.129 C
BRANCH  17  18
HETATM   18  N6  UNL     1      61.638  85.784  56.971  1.00  0.00    -0.349 N
HETATM   19  C20 UNL     1      62.792  85.081  56.733  1.00  0.00     0.019 A
HETATM   20  C21 UNL     1      62.689  84.604  55.458  1.00  0.00    -0.023 A
HETATM   21  C31 UNL     1      64.003  84.793  57.567  1.00  0.00     0.058 C
HETATM   22  C22 UNL     1      61.492  84.995  54.890  1.00  0.00    -0.001 A
HETATM   23  C28 UNL     1      63.839  83.791  54.955  1.00  0.00     0.041 C
HETATM   24  C23 UNL     1      60.917  84.798  53.645  1.00  0.00     0.014 A
HETATM   25  C27 UNL     1      60.858  85.743  55.888  1.00  0.00     0.045 A
HETATM   26  C24 UNL     1      59.690  85.325  53.319  1.00  0.00     0.001 A
HETATM   27  C25 UNL     1      59.066  86.063  54.298  1.00  0.00     0.002 A
HETATM   28  C26 UNL     1      59.633  86.262  55.535  1.00  0.00     0.030 A
HETATM   29  C29 UNL     1      65.091  84.566  55.310  1.00  0.00     0.005 C
HETATM   30  C30 UNL     1      65.264  84.788  56.773  1.00  0.00     0.006 C
ENDBRANCH  17  18
ENDBRANCH  16  17
ENDBRANCH  15  16
ENDBRANCH  14  15
ENDBRANCH  13  14
ENDBRANCH  12  13
ENDBRANCH  11  12
BRANCH   1  31
HETATM   31  N2  UNL     1      60.747  81.109  63.340  1.00  0.00    -0.375 N
ATOM     32  H2  UNL     1      60.467  80.953  62.371  1.00  0.00     0.161 HD
BRANCH  31  33
HETATM   33  C5  UNL     1      59.856  80.412  64.082  1.00  0.00     0.121 C
BRANCH  33  34
HETATM   34  C4  UNL     1      60.006  78.885  63.933  1.00  0.00     0.020 C
BRANCH  34  35
HETATM   35  C3  UNL     1      59.659  78.379  62.594  1.00  0.00     0.003 C
BRANCH  35  36
HETATM   36  C2  UNL     1      58.253  78.664  62.208  1.00  0.00     0.027 C
BRANCH  36  37
HETATM   37  C1  UNL     1      57.194  77.706  62.578  1.00  0.00     0.229 C
BRANCH  37  38
HETATM   38  N1  UNL     1      55.857  78.000  62.151  1.00  0.00    -0.079 N
ATOM     39  H13 UNL     1      55.620  78.954  62.420  1.00  0.00     0.274 HD
ATOM     40  H12 UNL     1      55.837  78.076  61.134  1.00  0.00     0.274 HD
ATOM     41  H11 UNL     1      55.116  77.369  62.457  1.00  0.00     0.274 HD
ENDBRANCH  37  38
ENDBRANCH  36  37
ENDBRANCH  35  36
ENDBRANCH  34  35
ENDBRANCH  33  34
ENDBRANCH  31  33
ENDBRANCH   1  31
BRANCH   4  42
HETATM   42  N3  UNL     1      64.952  78.173  63.213  1.00  0.00    -0.116 N
HETATM   43  O1  UNL     1      64.095  77.353  62.857  1.00  0.00    -0.532 OA
HETATM   44  O2  UNL     1      66.180  77.722  63.605  1.00  0.00    -0.532 OA
ENDBRANCH   4  42
TORSDOF 15
ENDMDL