MODEL 4
REMARK VINA RESULT: -9.707913160      3.017      8.194
REMARK  13 active torsions:
REMARK  status: ('A' for Active; 'I' for Inactive)
REMARK    1  A    between atoms: C1_2  and  C2_3
REMARK       I    between atoms: C1_2  and  N4_23
REMARK    2  A    between atoms: C2_3  and  C3_4
REMARK    3  A    between atoms: C3_4  and  C4_5
REMARK    4  A    between atoms: C4_5  and  C5_6
REMARK    5  A    between atoms: C5_6  and  C6_7
REMARK    6  A    between atoms: C6_7  and  C7_8
REMARK    7  A    between atoms: C7_8  and  C8_9
REMARK    8  A    between atoms: C8_9  and  N1_10
REMARK    9  A    between atoms: C10_12  and  C11_13
REMARK   10  A    between atoms: N4_23  and  C17_25
REMARK   11  A    between atoms: C22_30  and  C23_31
REMARK   12  A    between atoms: C26_34  and  C27_35
REMARK   13  A    between atoms: C27_35  and  N5_36
ROOT
HETATM    1  O1  UNL     1      60.838  84.143  64.612  1.00  0.00    -0.273 OA
HETATM    2  C1  UNL     1      60.647  83.737  63.463  1.00  0.00     0.222 C
HETATM    3  N4  UNL     1      61.556  82.969  62.725  1.00  0.00    -0.326 N
ATOM      4  H4  UNL     1      61.285  82.706  61.777  1.00  0.00     0.169 HD
ENDROOT
BRANCH   2   5
HETATM    5  C2  UNL     1      59.309  84.136  62.859  1.00  0.00     0.103 C
BRANCH   5   6
HETATM    6  C3  UNL     1      59.557  85.067  61.733  1.00  0.00     0.009 C
BRANCH   6   7
HETATM    7  C4  UNL     1      60.656  86.032  61.785  1.00  0.00     0.000 C
BRANCH   7   8
HETATM    8  C5  UNL     1      61.498  86.345  60.627  1.00  0.00     0.000 C
BRANCH   8   9
HETATM    9  C6  UNL     1      62.727  85.528  60.431  1.00  0.00     0.002 C
BRANCH   9  10
HETATM   10  C7  UNL     1      62.503  84.483  59.341  1.00  0.00     0.022 C
BRANCH  10  11
HETATM   11  C8  UNL     1      63.216  84.893  58.101  1.00  0.00     0.150 C
BRANCH  11  12
HETATM   12  N1  UNL     1      62.232  85.248  57.076  1.00  0.00    -0.287 N
HETATM   13  C9  UNL     1      62.127  84.632  55.855  1.00  0.00     0.143 A
HETATM   14  C10 UNL     1      61.099  85.193  55.145  1.00  0.00     0.076 A
HETATM   15  N2  UNL     1      60.599  86.140  55.952  1.00  0.00    -0.284 N
HETATM   16  N3  UNL     1      61.281  86.156  57.083  1.00  0.00    -0.240 N
ATOM     17  H2  UNL     1      59.815  86.752  55.727  1.00  0.00     0.188 HD
ATOM     18  H3  UNL     1      61.095  86.790  57.860  1.00  0.00     0.208 HD
BRANCH  14  19
HETATM   19  C11 UNL     1      60.607  84.876  53.814  1.00  0.00    -0.007 A
HETATM   20  C12 UNL     1      59.231  84.790  53.520  1.00  0.00     0.014 A
HETATM   21  C13 UNL     1      58.799  84.482  52.254  1.00  0.00     0.001 A
HETATM   22  C14 UNL     1      59.677  84.247  51.215  1.00  0.00     0.000 A
HETATM   23  C15 UNL     1      61.040  84.330  51.491  1.00  0.00     0.001 A
HETATM   24  C16 UNL     1      61.458  84.637  52.770  1.00  0.00     0.014 A
ENDBRANCH  14  19
ENDBRANCH  11  12
ENDBRANCH  10  11
ENDBRANCH   9  10
ENDBRANCH   8   9
ENDBRANCH   7   8
ENDBRANCH   6   7
ENDBRANCH   5   6
ENDBRANCH   2   5
BRANCH   3  25
HETATM   25  C17 UNL     1      62.813  82.527  63.185  1.00  0.00     0.045 A
HETATM   26  C18 UNL     1      63.959  83.292  63.039  1.00  0.00     0.030 A
HETATM   27  C19 UNL     1      65.148  82.864  63.587  1.00  0.00     0.002 A
HETATM   28  C20 UNL     1      65.195  81.652  64.291  1.00  0.00     0.001 A
HETATM   29  C21 UNL     1      64.045  80.921  64.411  1.00  0.00     0.014 A
HETATM   30  C22 UNL     1      62.854  81.322  63.879  1.00  0.00     0.001 A
BRANCH  30  31
HETATM   31  C23 UNL     1      61.714  80.440  63.984  1.00  0.00    -0.024 A
HETATM   32  C24 UNL     1      60.831  80.465  65.039  1.00  0.00     0.013 A
HETATM   33  C25 UNL     1      59.801  79.562  65.121  1.00  0.00     0.010 A
HETATM   34  C26 UNL     1      59.566  78.578  64.180  1.00  0.00    -0.038 A
HETATM   35  C30 UNL     1      60.466  78.559  63.108  1.00  0.00     0.010 A
HETATM   36  C31 UNL     1      61.490  79.450  63.020  1.00  0.00     0.013 A
BRANCH  34  37
HETATM   37  C27 UNL     1      58.523  77.571  64.297  1.00  0.00     0.188 C
BRANCH  37  38
HETATM   38  N5  UNL     1      57.275  77.843  63.644  1.00  0.00    -0.283 N
HETATM   39  C28 UNL     1      56.954  77.929  62.351  1.00  0.00     0.201 A
HETATM   40  N6  UNL     1      55.617  78.162  62.208  1.00  0.00    -0.346 N
HETATM   41  C29 UNL     1      55.128  78.214  63.477  1.00  0.00     0.198 A
ATOM     42  H6  UNL     1      55.096  78.273  61.338  1.00  0.00     0.167 HD
HETATM   43  N7  UNL     1      56.142  78.023  64.321  1.00  0.00    -0.293 N
ATOM     44  H7  UNL     1      56.062  78.016  65.338  1.00  0.00     0.188 HD
ENDBRANCH  37  38
ENDBRANCH  34  37
ENDBRANCH  30  31
ENDBRANCH   3  25
TORSDOF 13
ENDMDL