MODEL 2
REMARK VINA RESULT: -9.505234548      1.336      2.051
REMARK  12 active torsions:
REMARK  status: ('A' for Active; 'I' for Inactive)
REMARK    1  A    between atoms: C2_2  and  C3_3
REMARK    2  A    between atoms: C3_3  and  C4_4
REMARK    3  A    between atoms: C4_4  and  C5_5
REMARK    4  A    between atoms: C5_5  and  C6_6
REMARK    5  A    between atoms: C6_6  and  C7_7
REMARK    6  A    between atoms: C7_7  and  C8_8
REMARK       I    between atoms: C8_8  and  N1_10
REMARK    7  A    between atoms: N1_10  and  S1_12
REMARK    8  A    between atoms: S1_12  and  C9_15
REMARK    9  A    between atoms: C14_20  and  C15_21
REMARK   10  A    between atoms: C18_24  and  C19_25
REMARK   11  A    between atoms: C19_25  and  N2_26
REMARK   12  A    between atoms: C21_32  and  C22_33
ROOT
HETATM    1  C9  UNL     1      61.658  84.050  63.521  1.00  0.00     0.090 A
HETATM    2  C10 UNL     1      61.012  83.456  64.591  1.00  0.00     0.026 A
HETATM    3  C11 UNL     1      59.652  83.276  64.550  1.00  0.00     0.002 A
HETATM    4  C12 UNL     1      58.921  83.680  63.457  1.00  0.00     0.001 A
HETATM    5  C13 UNL     1      59.571  84.269  62.398  1.00  0.00     0.014 A
HETATM    6  C14 UNL     1      60.961  84.456  62.429  1.00  0.00    -0.003 A
ENDROOT
BRANCH   6   7
HETATM    7  C15 UNL     1      61.560  85.058  61.264  1.00  0.00    -0.024 A
HETATM    8  C16 UNL     1      61.866  86.382  61.087  1.00  0.00     0.013 A
HETATM    9  C17 UNL     1      62.432  86.860  59.916  1.00  0.00     0.010 A
HETATM   10  C18 UNL     1      62.730  86.017  58.833  1.00  0.00    -0.038 A
HETATM   11  C26 UNL     1      62.429  84.705  59.008  1.00  0.00     0.010 A
HETATM   12  C27 UNL     1      61.859  84.227  60.187  1.00  0.00     0.013 A
BRANCH  10  13
HETATM   13  C19 UNL     1      63.303  86.625  57.625  1.00  0.00     0.189 C
BRANCH  13  14
HETATM   14  N2  UNL     1      63.600  85.665  56.584  1.00  0.00    -0.270 N
HETATM   15  N3  UNL     1      64.836  85.089  56.533  1.00  0.00    -0.292 N
HETATM   16  C20 UNL     1      64.898  84.279  55.489  1.00  0.00     0.199 A
ATOM     17  H3  UNL     1      65.592  85.256  57.197  1.00  0.00     0.188 HD
HETATM   18  N4  UNL     1      63.712  84.344  54.886  1.00  0.00    -0.335 N
HETATM   19  C21 UNL     1      62.887  85.217  55.573  1.00  0.00     0.140 A
ATOM     20  H4  UNL     1      63.452  83.829  54.045  1.00  0.00     0.168 HD
BRANCH  19  21
HETATM   21  C22 UNL     1      61.511  85.475  55.180  1.00  0.00     0.050 A
HETATM   22  C23 UNL     1      60.448  86.027  55.789  1.00  0.00     0.023 A
HETATM   23  C24 UNL     1      59.277  86.099  55.125  1.00  0.00     0.009 A
HETATM   24  C25 UNL     1      59.246  85.600  53.856  1.00  0.00     0.050 A
HETATM   25  S2  UNL     1      60.836  85.050  53.629  1.00  0.00    -0.098 SA
ENDBRANCH  19  21
ENDBRANCH  13  14
ENDBRANCH  10  13
ENDBRANCH   6   7
BRANCH   1  26
HETATM   26  S1  UNL     1      63.366  84.284  63.651  1.00  0.00     0.266 S
HETATM   27  O2  UNL     1      64.031  83.723  62.406  1.00  0.00    -0.200 OA
HETATM   28  O3  UNL     1      63.750  85.735  63.732  1.00  0.00    -0.200 OA
BRANCH  26  29
HETATM   29  N1  UNL     1      64.026  83.454  65.027  1.00  0.00    -0.250 N
HETATM   30  C8  UNL     1      65.457  83.459  65.221  1.00  0.00     0.231 C
HETATM   31  O1  UNL     1      66.152  84.062  64.392  1.00  0.00    -0.273 OA
ATOM     32  H1  UNL     1      63.414  82.973  65.685  1.00  0.00     0.181 HD
BRANCH  30  33
HETATM   33  C7  UNL     1      65.993  82.753  66.378  1.00  0.00     0.103 C
BRANCH  33  34
HETATM   34  C6  UNL     1      65.132  81.650  66.870  1.00  0.00     0.009 C
BRANCH  34  35
HETATM   35  C5  UNL     1      65.520  80.336  66.299  1.00  0.00     0.000 C
BRANCH  35  36
HETATM   36  C4  UNL     1      64.387  79.709  65.502  1.00  0.00     0.000 C
BRANCH  36  37
HETATM   37  C3  UNL     1      64.813  79.265  64.133  1.00  0.00    -0.000 C
BRANCH  37  38
HETATM   38  C2  UNL     1      64.691  80.342  63.097  1.00  0.00    -0.005 C
HETATM   39  C1  UNL     1      66.078  80.641  62.581  1.00  0.00     0.005 C
ENDBRANCH  37  38
ENDBRANCH  36  37
ENDBRANCH  35  36
ENDBRANCH  34  35
ENDBRANCH  33  34
ENDBRANCH  30  33
ENDBRANCH  26  29
ENDBRANCH   1  26
TORSDOF 12
ENDMDL