MODEL 4
REMARK VINA RESULT: -9.246882409      2.448      4.531
REMARK  13 active torsions:
REMARK  status: ('A' for Active; 'I' for Inactive)
REMARK    1  A    between atoms: C2_3  and  S1_4
REMARK    2  A    between atoms: S1_4  and  C3_5
REMARK    3  A    between atoms: C3_5  and  C4_6
REMARK    4  A    between atoms: C4_6  and  S2_7
REMARK    5  A    between atoms: S2_7  and  S3_8
REMARK    6  A    between atoms: S3_8  and  C5_9
REMARK    7  A    between atoms: C5_9  and  C6_10
REMARK    8  A    between atoms: C6_10  and  C7_11
REMARK    9  A    between atoms: C7_11  and  N2_12
REMARK       I    between atoms: N2_12  and  C8_14
REMARK   10  A    between atoms: C8_14  and  C9_16
REMARK   11  A    between atoms: C12_19  and  O2_20
REMARK   12  A    between atoms: O2_20  and  C13_21
REMARK   13  A    between atoms: C13_21  and  C14_22
ROOT
HETATM    1  C7  UNL     1      58.815  82.275  63.916  1.00  0.00     0.123 C
ENDROOT
BRANCH   1   2
HETATM    2  C6  UNL     1      58.400  80.904  63.559  1.00  0.00     0.031 C
BRANCH   2   3
HETATM    3  C5  UNL     1      57.068  80.489  64.089  1.00  0.00     0.088 C
BRANCH   3   4
HETATM    4  S3  UNL     1      57.146  78.975  65.030  1.00  0.00    -0.098 SA
BRANCH   4   5
HETATM    5  S2  UNL     1      58.941  78.797  66.112  1.00  0.00    -0.097 SA
BRANCH   5   6
HETATM    6  C4  UNL     1      60.133  77.903  65.040  1.00  0.00     0.097 C
BRANCH   6   7
HETATM    7  C3  UNL     1      61.319  78.822  64.855  1.00  0.00     0.093 C
BRANCH   7   8
HETATM    8  S1  UNL     1      61.339  80.157  66.061  1.00  0.00    -0.093 SA
BRANCH   8   9
HETATM    9  C2  UNL     1      62.215  81.544  65.349  1.00  0.00     0.147 A
HETATM   10  N1  UNL     1      62.049  82.844  65.693  1.00  0.00    -0.330 N
HETATM   11  C1  UNL     1      61.123  83.280  66.715  1.00  0.00     0.158 C
HETATM   12  C27 UNL     1      62.877  83.585  64.933  1.00  0.00     0.063 A
HETATM   13  C22 UNL     1      63.579  82.758  64.094  1.00  0.00     0.061 A
HETATM   14  C26 UNL     1      63.096  84.958  64.888  1.00  0.00     0.032 A
HETATM   15  N3  UNL     1      63.152  81.514  64.373  1.00  0.00    -0.335 N
HETATM   16  C23 UNL     1      64.478  83.305  63.236  1.00  0.00     0.032 A
ATOM     17  H3  UNL     1      63.486  80.667  63.913  1.00  0.00     0.168 HD
HETATM   18  C24 UNL     1      64.732  84.663  63.151  1.00  0.00     0.002 A
HETATM   19  C25 UNL     1      64.017  85.479  64.002  1.00  0.00     0.002 A
ENDBRANCH   8   9
ENDBRANCH   7   8
ENDBRANCH   6   7
ENDBRANCH   5   6
ENDBRANCH   4   5
ENDBRANCH   3   4
ENDBRANCH   2   3
ENDBRANCH   1   2
BRANCH   1  20
HETATM   20  N2  UNL     1      59.699  82.861  62.917  1.00  0.00    -0.357 N
HETATM   21  C8  UNL     1      60.050  84.232  62.926  1.00  0.00     0.251 C
HETATM   22  O1  UNL     1      59.587  84.999  63.831  1.00  0.00    -0.268 OA
ATOM     23  H2  UNL     1      60.079  82.262  62.184  1.00  0.00     0.162 HD
BRANCH  21  24
HETATM   24  C9  UNL     1      60.940  84.766  61.902  1.00  0.00     0.032 A
HETATM   25  C10 UNL     1      61.206  86.098  61.710  1.00  0.00     0.020 A
HETATM   26  C11 UNL     1      62.071  86.513  60.719  1.00  0.00     0.038 A
HETATM   27  C12 UNL     1      62.708  85.621  59.872  1.00  0.00     0.069 A
HETATM   28  C20 UNL     1      62.448  84.288  60.055  1.00  0.00     0.038 A
HETATM   29  C21 UNL     1      61.588  83.871  61.043  1.00  0.00     0.020 A
BRANCH  27  30
HETATM   30  O2  UNL     1      63.574  86.113  58.884  1.00  0.00    -0.347 OA
BRANCH  30  31
HETATM   31  C13 UNL     1      63.222  86.947  57.838  1.00  0.00     0.214 C
BRANCH  31  32
HETATM   32  C14 UNL     1      62.386  86.336  56.784  1.00  0.00    -0.034 A
HETATM   33  C15 UNL     1      61.042  86.676  56.761  1.00  0.00     0.009 A
HETATM   34  C16 UNL     1      60.228  86.141  55.789  1.00  0.00     0.001 A
HETATM   35  C17 UNL     1      60.706  85.285  54.849  1.00  0.00     0.000 A
HETATM   36  C18 UNL     1      62.024  84.943  54.859  1.00  0.00     0.001 A
HETATM   37  C19 UNL     1      62.859  85.467  55.823  1.00  0.00     0.009 A
ENDBRANCH  31  32
ENDBRANCH  30  31
ENDBRANCH  27  30
ENDBRANCH  21  24
ENDBRANCH   1  20
TORSDOF 13
ENDMDL