MODEL 2
REMARK VINA RESULT: -9.990336778      3.561      8.763
REMARK  14 active torsions:
REMARK  status: ('A' for Active; 'I' for Inactive)
REMARK    1  A    between atoms: C2_2  and  O1_3
REMARK    2  A    between atoms: O1_3  and  C3_4
REMARK    3  A    between atoms: C3_4  and  C4_6
REMARK    4  A    between atoms: C4_6  and  C5_7
REMARK    5  A    between atoms: C9_13  and  N2_14
REMARK       I    between atoms: N2_14  and  C10_16
REMARK    6  A    between atoms: C10_16  and  C11_18
REMARK    7  A    between atoms: C11_18  and  C12_19
REMARK    8  A    between atoms: C12_19  and  C13_20
REMARK    9  A    between atoms: C13_20  and  C14_21
REMARK   10  A    between atoms: C14_21  and  C15_22
REMARK   11  A    between atoms: C15_22  and  N3_23
REMARK   12  A    between atoms: C16_24  and  S1_25
REMARK   13  A    between atoms: S1_25  and  C17_26
REMARK   14  A    between atoms: C17_26  and  C18_27
ROOT
HETATM    1  C13 UNL     1      59.231  84.968  61.418  1.00  0.00    -0.029 C
ENDROOT
BRANCH   1   2
HETATM    2  C12 UNL     1      59.351  84.535  62.800  1.00  0.00    -0.022 C
BRANCH   2   3
HETATM    3  C11 UNL     1      58.810  83.254  63.294  1.00  0.00     0.130 C
BRANCH   3   4
HETATM    4  C10 UNL     1      59.471  82.667  64.471  1.00  0.00     0.226 C
HETATM    5  N2  UNL     1      59.431  81.308  64.735  1.00  0.00    -0.312 N
ATOM      6  H2  UNL     1      59.886  81.034  65.605  1.00  0.00     0.170 HD
HETATM    7  O3  UNL     1      60.082  83.444  65.247  1.00  0.00    -0.273 OA
BRANCH   5   8
HETATM    8  C9  UNL     1      58.874  80.250  64.017  1.00  0.00     0.114 A
HETATM    9  C5  UNL     1      59.577  79.587  63.044  1.00  0.00    -0.005 A
HETATM   10  C6  UNL     1      58.952  78.557  62.343  1.00  0.00     0.013 A
HETATM   11  C7  UNL     1      57.651  78.188  62.601  1.00  0.00     0.018 A
HETATM   12  C8  UNL     1      56.977  78.871  63.579  1.00  0.00     0.089 A
HETATM   13  N1  UNL     1      57.599  79.863  64.245  1.00  0.00    -0.352 N
ATOM     14  H1  UNL     1      57.074  80.355  64.968  1.00  0.00     0.166 HD
BRANCH   9  15
HETATM   15  C4  UNL     1      60.976  79.953  62.782  1.00  0.00     0.153 C
BRANCH  15  16
HETATM   16  C3  UNL     1      61.836  78.954  63.469  1.00  0.00     0.263 C
HETATM   17  O2  UNL     1      61.752  78.885  64.737  1.00  0.00    -0.265 OA
BRANCH  16  18
HETATM   18  O1  UNL     1      62.716  78.099  62.847  1.00  0.00    -0.322 OA
BRANCH  18  19
HETATM   19  C2  UNL     1      64.097  78.143  63.259  1.00  0.00     0.174 C
HETATM   20  C1  UNL     1      64.723  79.447  62.796  1.00  0.00     0.034 C
ENDBRANCH  18  19
ENDBRANCH  16  18
ENDBRANCH  15  16
ENDBRANCH   9  15
ENDBRANCH   5   8
ENDBRANCH   3   4
ENDBRANCH   2   3
ENDBRANCH   1   2
BRANCH   1  21
HETATM   21  C14 UNL     1      60.375  85.462  60.625  1.00  0.00     0.047 C
BRANCH  21  22
HETATM   22  C15 UNL     1      61.515  84.534  60.537  1.00  0.00     0.135 C
BRANCH  22  23
HETATM   23  N3  UNL     1      62.689  85.010  61.281  1.00  0.00    -0.325 N
HETATM   24  C16 UNL     1      63.435  86.104  61.043  1.00  0.00     0.147 A
HETATM   25  N4  UNL     1      64.400  86.120  62.002  1.00  0.00    -0.335 N
HETATM   26  C24 UNL     1      64.249  85.054  62.817  1.00  0.00     0.061 A
ATOM     27  H4  UNL     1      65.126  86.830  62.092  1.00  0.00     0.168 HD
HETATM   28  C25 UNL     1      64.918  84.578  63.921  1.00  0.00     0.032 A
HETATM   29  C29 UNL     1      63.157  84.353  62.349  1.00  0.00     0.063 A
HETATM   30  C26 UNL     1      64.521  83.430  64.560  1.00  0.00     0.002 A
HETATM   31  C27 UNL     1      63.434  82.710  64.114  1.00  0.00     0.002 A
HETATM   32  C28 UNL     1      62.770  83.182  63.015  1.00  0.00     0.032 A
BRANCH  24  33
HETATM   33  S1  UNL     1      63.176  87.269  59.701  1.00  0.00    -0.089 SA
BRANCH  33  34
HETATM   34  C17 UNL     1      63.957  86.630  58.172  1.00  0.00     0.121 C
BRANCH  34  35
HETATM   35  C18 UNL     1      62.916  86.271  57.180  1.00  0.00    -0.049 A
HETATM   36  C19 UNL     1      63.149  85.546  56.032  1.00  0.00     0.008 A
HETATM   37  C20 UNL     1      62.132  85.250  55.142  1.00  0.00     0.001 A
HETATM   38  C21 UNL     1      60.829  85.685  55.392  1.00  0.00     0.000 A
HETATM   39  C22 UNL     1      60.592  86.410  56.540  1.00  0.00     0.001 A
HETATM   40  C23 UNL     1      61.621  86.695  57.417  1.00  0.00     0.008 A
ENDBRANCH  34  35
ENDBRANCH  33  34
ENDBRANCH  24  33
ENDBRANCH  22  23
ENDBRANCH  21  22
ENDBRANCH   1  21
TORSDOF 14
ENDMDL