MODEL 5
REMARK VINA RESULT: -5.670478751      2.431      4.582
REMARK  4 active torsions:
REMARK  status: ('A' for Active; 'I' for Inactive)
REMARK    1  A    between atoms: C5_5  and  N1_6
REMARK    2  A    between atoms: C5_5  and  C7_11
REMARK       I    between atoms: N1_6  and  C6_8
REMARK    3  A    between atoms: N4_14  and  S1_15
REMARK    4  A    between atoms: S1_15  and  N5_16
ROOT
HETATM    1  C1  UNL     1       2.513  17.621  24.932  1.00  0.00     0.033 C
HETATM    2  C2  UNL     1       3.269  18.849  24.407  1.00  0.00     0.096 C
HETATM    3  C3  UNL     1       2.385  20.035  24.727  1.00  0.00     0.030 C
HETATM    4  C4  UNL     1       1.556  20.151  23.478  1.00  0.00     0.067 C
HETATM    5  C5  UNL     1       2.540  19.803  22.389  1.00  0.00     0.200 C
HETATM    6  N4  UNL     1       3.400  18.853  23.013  1.00  0.00    -0.253 N
ENDROOT
BRANCH   5   7
HETATM    7  N1  UNL     1       1.880  19.120  21.284  1.00  0.00    -0.310 N
HETATM    8  C6  UNL     1       0.659  18.426  21.401  1.00  0.00     0.331 C
HETATM    9  N2  UNL     1       0.083  17.793  20.279  1.00  0.00    -0.040 NA
HETATM   10  O1  UNL     1       0.087  18.374  22.509  1.00  0.00    -0.251 OA
ATOM     11  H1  UNL     1       2.330  19.145  20.368  1.00  0.00     0.166 HD
ENDBRANCH   5   7
BRANCH   5  12
HETATM   12  C7  UNL     1       3.194  21.016  21.912  1.00  0.00     0.281 C
HETATM   13  N3  UNL     1       3.172  21.426  20.557  1.00  0.00    -0.058 NA
HETATM   14  O2  UNL     1       3.811  21.747  22.718  1.00  0.00    -0.272 OA
ENDBRANCH   5  12
BRANCH   6  15
HETATM   15  S1  UNL     1       4.826  18.437  22.281  1.00  0.00     0.317 S
HETATM   16  O3  UNL     1       4.671  18.493  20.783  1.00  0.00    -0.183 OA
HETATM   17  O4  UNL     1       6.040  19.228  22.661  1.00  0.00    -0.183 OA
BRANCH  15  18
HETATM   18  N5  UNL     1       5.225  16.773  22.648  1.00  0.00    -0.311 N
ATOM     19  H52 UNL     1       4.604  16.129  23.137  1.00  0.00     0.170 HD
ATOM     20  H51 UNL     1       6.159  16.553  22.302  1.00  0.00     0.170 HD
ENDBRANCH  15  18
ENDBRANCH   6  15
TORSDOF 4
ENDMDL