MODEL 4
REMARK VINA RESULT: -6.029746382      5.297      6.818
REMARK  5 active torsions:
REMARK  status: ('A' for Active; 'I' for Inactive)
REMARK    1  A    between atoms: C2_2  and  C5_14
REMARK    2  A    between atoms: N1_3  and  N2_5
REMARK       I    between atoms: C3_7  and  N4_9
REMARK    3  A    between atoms: N7_16  and  C7_18
REMARK    4  A    between atoms: C7_18  and  N8_20
REMARK    5  A    between atoms: N8_20  and  O1_22
ROOT
HETATM    1  C1  UNL     1       2.405  18.227  23.472  1.00  0.00     0.072 C
HETATM    2  C2  UNL     1       3.542  18.635  22.638  1.00  0.00     0.044 C
HETATM    3  N1  UNL     1       3.332  19.019  21.427  1.00  0.00    -0.301 N
ATOM      4  H1  UNL     1       4.141  19.298  20.872  1.00  0.00     0.186 HD
ENDROOT
BRANCH   2   5
HETATM    5  C5  UNL     1       4.922  18.631  23.110  1.00  0.00     0.031 C
HETATM    6  C6  UNL     1       5.425  19.580  24.126  1.00  0.00     0.070 C
HETATM    7  N7  UNL     1       5.710  17.752  22.598  1.00  0.00    -0.334 N
ATOM      8  H7  UNL     1       5.361  17.099  21.897  1.00  0.00     0.168 HD
BRANCH   7   9
HETATM    9  C7  UNL     1       7.068  17.692  23.012  1.00  0.00     0.196 C
HETATM   10  S1  UNL     1       8.198  18.530  22.155  1.00  0.00    -0.039 SA
BRANCH   9  11
HETATM   11  N8  UNL     1       7.444  16.934  24.128  1.00  0.00    -0.243 N
ATOM     12  H8  UNL     1       7.934  17.376  24.906  1.00  0.00     0.196 HD
BRANCH  11  13
HETATM   13  O1  UNL     1       7.159  15.626  24.171  1.00  0.00    -0.288 OA
ATOM     14  H1  UNL     1       7.598  15.027  23.579  1.00  0.00     0.244 HD
ENDBRANCH  11  13
ENDBRANCH   9  11
ENDBRANCH   7   9
ENDBRANCH   2   5
BRANCH   3  15
HETATM   15  N2  UNL     1       2.092  19.081  20.828  1.00  0.00    -0.273 N
HETATM   16  C3  UNL     1       1.489  20.189  20.538  1.00  0.00     0.209 C
HETATM   17  N3  UNL     1       2.029  21.465  20.798  1.00  0.00    -0.062 NA
HETATM   18  N4  UNL     1       0.208  20.128  19.920  1.00  0.00    -0.306 N
HETATM   19  C4  UNL     1       0.152  20.037  18.622  1.00  0.00     0.203 C
ATOM     20  H4  UNL     1      -0.645  20.155  20.480  1.00  0.00     0.170 HD
HETATM   21  N5  UNL     1      -1.140  19.978  18.045  1.00  0.00    -0.066 NA
HETATM   22  N6  UNL     1       1.331  19.999  17.819  1.00  0.00    -0.066 NA
ATOM     23  H2  UNL     1       1.622  18.204  20.600  1.00  0.00     0.189 HD
ENDBRANCH   3  15
TORSDOF 5
ENDMDL