MODEL 1
REMARK VINA RESULT: -6.731676910      0.000      0.000
REMARK  4 active torsions:
REMARK  status: ('A' for Active; 'I' for Inactive)
REMARK    1  A    between atoms: C1_2  and  C2_4
REMARK    2  A    between atoms: C2_4  and  N2_5
REMARK       I    between atoms: N2_5  and  C3_7
REMARK    3  A    between atoms: C3_7  and  C4_9
REMARK       I    between atoms: C4_9  and  N3_11
REMARK    4  A    between atoms: C5_13  and  N4_14
ROOT
HETATM    1  N2  UNL     1       4.504  19.675  22.968  1.00  0.00    -0.335 N
ATOM      2  H2  UNL     1       4.453  20.643  23.285  1.00  0.00     0.164 HD
HETATM    3  C3  UNL     1       4.464  19.429  21.583  1.00  0.00     0.310 C
HETATM    4  O2  UNL     1       4.529  18.218  21.180  1.00  0.00    -0.262 OA
ENDROOT
BRANCH   3   5
HETATM    5  C4  UNL     1       4.353  20.487  20.594  1.00  0.00     0.314 C
HETATM    6  O3  UNL     1       3.534  21.410  20.755  1.00  0.00    -0.262 OA
HETATM    7  N3  UNL     1       5.174  20.464  19.454  1.00  0.00    -0.315 N
HETATM    8  C5  UNL     1       5.677  21.576  19.043  1.00  0.00     0.185 C
ATOM      9  H3  UNL     1       5.367  19.590  18.965  1.00  0.00     0.170 HD
BRANCH   8  10
HETATM   10  N4  UNL     1       6.508  21.571  17.893  1.00  0.00    -0.329 N
HETATM   11  C6  UNL     1       7.709  21.166  18.008  1.00  0.00     0.201 C
HETATM   12  N5  UNL     1       8.203  20.732  19.253  1.00  0.00    -0.066 NA
HETATM   13  N6  UNL     1       8.559  21.150  16.879  1.00  0.00    -0.066 NA
ATOM     14  H4  UNL     1       6.149  21.885  16.992  1.00  0.00     0.168 HD
ENDBRANCH   8  10
ENDBRANCH   3   5
BRANCH   1  15
HETATM   15  C2  UNL     1       4.611  18.639  23.963  1.00  0.00     0.112 C
HETATM   16  C7  UNL     1       3.544  17.605  23.854  1.00  0.00     0.040 C
HETATM   17  C8  UNL     1       2.908  17.461  25.206  1.00  0.00     0.003 C
HETATM   18  C9  UNL     1       3.860  18.131  26.160  1.00  0.00     0.003 C
HETATM   19  C10 UNL     1       4.479  19.223  25.342  1.00  0.00     0.040 C
BRANCH  15  20
HETATM   20  C1  UNL     1       5.987  18.015  23.904  1.00  0.00     0.259 C
HETATM   21  N1  UNL     1       6.205  16.638  23.796  1.00  0.00    -0.060 NA
HETATM   22  O1  UNL     1       6.956  18.842  23.959  1.00  0.00    -0.274 OA
ENDBRANCH  15  20
ENDBRANCH   1  15
TORSDOF 4
ENDMDL