MODEL 4
REMARK VINA RESULT: -6.524692869      1.793      3.149
REMARK  7 active torsions:
REMARK  status: ('A' for Active; 'I' for Inactive)
REMARK    1  A    between atoms: C2_2  and  N1_4
REMARK    2  A    between atoms: N1_4  and  C4_6
REMARK    3  A    between atoms: C4_6  and  N2_8
REMARK    4  A    between atoms: N2_8  and  N3_10
REMARK       I    between atoms: N3_10  and  C5_11
REMARK    5  A    between atoms: C5_11  and  C6_13
REMARK       I    between atoms: C6_13  and  N4_15
REMARK    6  A    between atoms: N4_15  and  C7_17
REMARK    7  A    between atoms: C7_17  and  C8_18
ROOT
HETATM    1  N3  UNL     1       2.614  18.295  23.620  1.00  0.00    -0.274 NA
HETATM    2  C5  UNL     1       3.061  18.470  22.401  1.00  0.00     0.403 C
HETATM    3  O1  UNL     1       2.348  18.559  21.335  1.00  0.00    -0.244 OA
ENDROOT
BRANCH   1   4
HETATM    4  N2  UNL     1       2.117  18.112  24.869  1.00  0.00    -0.205 N
ATOM      5  H2  UNL     1       1.121  17.910  24.956  1.00  0.00     0.204 HD
BRANCH   4   6
HETATM    6  C4  UNL     1       2.901  18.184  26.096  1.00  0.00     0.197 C
HETATM    7  S1  UNL     1       3.819  19.441  26.507  1.00  0.00    -0.039 SA
BRANCH   6   8
HETATM    8  N1  UNL     1       2.847  17.043  27.015  1.00  0.00    -0.361 N
ATOM      9  H1  UNL     1       3.714  16.708  27.436  1.00  0.00     0.162 HD
BRANCH   8  10
HETATM   10  C2  UNL     1       1.633  16.390  27.339  1.00  0.00     0.076 C
HETATM   11  C1  UNL     1       1.166  16.632  28.709  1.00  0.00     0.032 C
HETATM   12  C3  UNL     1       1.817  14.877  27.146  1.00  0.00     0.032 C
ENDBRANCH   8  10
ENDBRANCH   6   8
ENDBRANCH   4   6
ENDBRANCH   1   4
BRANCH   2  13
HETATM   13  C6  UNL     1       4.521  18.603  21.992  1.00  0.00     0.330 C
HETATM   14  O2  UNL     1       4.889  18.619  20.833  1.00  0.00    -0.261 OA
HETATM   15  N4  UNL     1       5.386  18.694  23.085  1.00  0.00    -0.323 N
ATOM     16  H4  UNL     1       4.997  18.662  24.027  1.00  0.00     0.168 HD
BRANCH  15  17
HETATM   17  C7  UNL     1       6.830  18.834  22.920  1.00  0.00     0.162 C
BRANCH  17  18
HETATM   18  C8  UNL     1       7.561  17.618  22.939  1.00  0.00     0.270 C
HETATM   19  N5  UNL     1       7.144  16.442  23.638  1.00  0.00    -0.057 NA
HETATM   20  O3  UNL     1       8.678  17.509  22.314  1.00  0.00    -0.270 OA
ENDBRANCH  17  18
ENDBRANCH  15  17
ENDBRANCH   2  13
TORSDOF 7
ENDMDL