MODEL 3
REMARK VINA RESULT: -7.357884153      1.963      4.677
REMARK  2 active torsions:
REMARK  status: ('A' for Active; 'I' for Inactive)
REMARK       I    between atoms: C1_2  and  N2_4
REMARK       I    between atoms: N2_4  and  C2_6
REMARK       I    between atoms: C2_6  and  N3_8
REMARK    1  A    between atoms: C7_13  and  C8_14
REMARK       I    between atoms: C8_14  and  N4_16
REMARK    2  A    between atoms: N4_16  and  N5_18
ROOT
HETATM    1  N1  UNL     1       7.862  17.092  23.394  1.00  0.00    -0.040 NA
HETATM    2  C1  UNL     1       7.462  18.432  23.496  1.00  0.00     0.336 C
HETATM    3  O1  UNL     1       8.249  19.346  23.176  1.00  0.00    -0.251 OA
HETATM    4  N2  UNL     1       6.161  18.748  23.963  1.00  0.00    -0.263 N
ATOM      5  H2  UNL     1       5.876  19.724  24.034  1.00  0.00     0.174 HD
HETATM    6  C2  UNL     1       5.261  17.739  24.329  1.00  0.00     0.330 C
HETATM    7  O2  UNL     1       5.675  16.521  24.274  1.00  0.00    -0.246 OA
HETATM    8  N3  UNL     1       3.963  17.952  24.751  1.00  0.00    -0.298 N
HETATM    9  C3  UNL     1       3.232  16.746  25.284  1.00  0.00     0.134 C
HETATM   10  C4  UNL     1       2.480  17.304  26.497  1.00  0.00     0.021 C
HETATM   11  C5  UNL     1       3.273  18.419  27.105  1.00  0.00     0.008 C
HETATM   12  C6  UNL     1       3.219  19.688  26.219  1.00  0.00     0.063 C
HETATM   13  C7  UNL     1       3.199  19.168  24.784  1.00  0.00     0.085 C
ENDROOT
BRANCH  13  14
HETATM   14  C8  UNL     1       3.322  20.116  23.740  1.00  0.00     0.282 C
HETATM   15  O3  UNL     1       4.293  20.953  23.750  1.00  0.00    -0.265 OA
HETATM   16  N4  UNL     1       2.438  20.246  22.628  1.00  0.00    -0.263 N
ATOM     17  H4  UNL     1       1.662  19.583  22.611  1.00  0.00     0.190 HD
BRANCH  16  18
HETATM   18  N5  UNL     1       2.473  21.110  21.601  1.00  0.00    -0.273 N
HETATM   19  C9  UNL     1       3.050  21.242  20.519  1.00  0.00     0.215 C
HETATM   20  N6  UNL     1       2.711  22.419  19.747  1.00  0.00    -0.065 NA
HETATM   21  N7  UNL     1       3.982  20.368  19.972  1.00  0.00    -0.065 NA
ATOM     22  H5  UNL     1       1.833  21.887  21.764  1.00  0.00     0.189 HD
ENDBRANCH  16  18
ENDBRANCH  13  14
TORSDOF 2
ENDMDL