MODEL 1
REMARK VINA RESULT: -7.017356533      0.000      0.000
REMARK  3 active torsions:
REMARK  status: ('A' for Active; 'I' for Inactive)
REMARK       I    between atoms: C2_2  and  N1_4
REMARK    1  A    between atoms: N1_4  and  S1_6
REMARK    2  A    between atoms: S1_6  and  N2_9
REMARK    3  A    between atoms: C5_12  and  N3_13
REMARK       I    between atoms: N3_13  and  C6_15
ROOT
HETATM    1  N2  UNL     1       3.514  18.788  23.798  1.00  0.00    -0.273 N
HETATM    2  C3  UNL     1       2.725  19.567  24.656  1.00  0.00     0.144 C
HETATM    3  C4  UNL     1       2.996  19.237  26.139  1.00  0.00     0.046 C
HETATM    4  C5  UNL     1       2.686  17.760  26.260  1.00  0.00     0.090 C
HETATM    5  C7  UNL     1       3.752  17.029  25.484  1.00  0.00     0.070 C
HETATM    6  C8  UNL     1       3.615  17.414  24.030  1.00  0.00     0.079 C
ENDROOT
BRANCH   1   7
HETATM    7  S1  UNL     1       4.167  19.470  22.418  1.00  0.00     0.327 S
HETATM    8  O2  UNL     1       3.207  19.185  21.265  1.00  0.00    -0.182 OA
HETATM    9  O3  UNL     1       4.248  20.985  22.550  1.00  0.00    -0.182 OA
BRANCH   7  10
HETATM   10  N1  UNL     1       5.700  18.831  21.958  1.00  0.00    -0.237 N
HETATM   11  C2  UNL     1       6.793  18.891  22.862  1.00  0.00     0.228 C
HETATM   12  C1  UNL     1       8.122  18.326  22.445  1.00  0.00     0.118 C
HETATM   13  O1  UNL     1       6.686  19.400  24.003  1.00  0.00    -0.273 OA
ATOM     14  H1  UNL     1       5.822  18.410  21.038  1.00  0.00     0.183 HD
ENDBRANCH   7  10
ENDBRANCH   1   7
BRANCH   4  15
HETATM   15  N3  UNL     1       2.611  17.333  27.640  1.00  0.00    -0.360 N
HETATM   16  C6  UNL     1       1.486  16.677  28.197  1.00  0.00     0.182 C
HETATM   17  N4  UNL     1       1.049  15.619  27.620  1.00  0.00    -0.374 N
HETATM   18  N5  UNL     1       0.880  17.202  29.358  1.00  0.00    -0.064 NA
ATOM     19  H42 UNL     1       1.487  15.240  26.781  1.00  0.00     0.158 HD
ATOM     20  H41 UNL     1       0.238  15.146  28.021  1.00  0.00     0.158 HD
ATOM     21  H3  UNL     1       3.412  17.515  28.244  1.00  0.00     0.162 HD
ENDBRANCH   4  15
TORSDOF 3
ENDMDL