MODEL 4
REMARK VINA RESULT: -6.991385706      2.560      6.017
REMARK  7 active torsions:
REMARK  status: ('A' for Active; 'I' for Inactive)
REMARK    1  A    between atoms: C2_2  and  N1_3
REMARK    2  A    between atoms: C2_2  and  C3_7
REMARK    3  A    between atoms: C3_7  and  N2_8
REMARK    4  A    between atoms: C3_7  and  C5_15
REMARK       I    between atoms: N2_8  and  C4_10
REMARK       I    between atoms: C5_15  and  N5_17
REMARK    5  A    between atoms: N5_17  and  C6_19
REMARK    6  A    between atoms: C6_19  and  O2_20
REMARK    7  A    between atoms: C6_19  and  N6_22
ROOT
HETATM    1  C3  UNL     1       4.249  17.309  24.481  1.00  0.00     0.206 C
ENDROOT
BRANCH   1   2
HETATM    2  C2  UNL     1       3.699  17.364  25.837  1.00  0.00     0.211 C
HETATM    3  C1  UNL     1       2.591  16.475  26.239  1.00  0.00     0.042 C
BRANCH   2   4
HETATM    4  N1  UNL     1       3.406  18.771  26.188  1.00  0.00    -0.073 N
ATOM      5  H13 UNL     1       3.674  18.983  27.148  1.00  0.00     0.274 HD
ATOM      6  H12 UNL     1       4.032  19.417  25.705  1.00  0.00     0.274 HD
ATOM      7  H11 UNL     1       2.426  18.996  26.013  1.00  0.00     0.274 HD
ENDBRANCH   2   4
ENDBRANCH   1   2
BRANCH   1   8
HETATM    8  N2  UNL     1       5.716  17.520  24.615  1.00  0.00    -0.349 N
HETATM    9  C4  UNL     1       6.661  16.754  23.918  1.00  0.00     0.182 C
HETATM   10  N3  UNL     1       7.540  16.084  24.612  1.00  0.00    -0.374 N
HETATM   11  N4  UNL     1       6.722  16.659  22.501  1.00  0.00    -0.064 NA
ATOM     12  H32 UNL     1       7.496  16.152  25.629  1.00  0.00     0.158 HD
ATOM     13  H31 UNL     1       8.227  15.526  24.105  1.00  0.00     0.158 HD
ATOM     14  H2  UNL     1       6.048  18.254  25.241  1.00  0.00     0.163 HD
ENDBRANCH   1   8
BRANCH   1  15
HETATM   15  C5  UNL     1       3.794  18.206  23.419  1.00  0.00     0.249 C
HETATM   16  O1  UNL     1       2.505  18.265  23.343  1.00  0.00    -0.271 OA
HETATM   17  N5  UNL     1       4.546  18.950  22.542  1.00  0.00    -0.291 N
ATOM     18  H5  UNL     1       5.545  18.825  22.703  1.00  0.00     0.172 HD
BRANCH  17  19
HETATM   19  C6  UNL     1       4.300  19.836  21.487  1.00  0.00     0.222 C
BRANCH  19  20
HETATM   20  O2  UNL     1       4.869  19.449  20.316  1.00  0.00    -0.332 OA
ATOM     21  H2  UNL     1       5.132  20.178  19.765  1.00  0.00     0.220 HD
ENDBRANCH  19  20
BRANCH  19  22
HETATM   22  N6  UNL     1       3.624  21.021  21.302  1.00  0.00    -0.343 N
HETATM   23  C7  UNL     1       3.079  21.879  22.307  1.00  0.00     0.152 C
HETATM   24  C8  UNL     1       2.456  23.136  21.601  1.00  0.00     0.187 C
HETATM   25  O3  UNL     1       3.542  23.683  20.918  1.00  0.00    -0.388 OA
HETATM   26  C9  UNL     1       3.654  22.943  19.740  1.00  0.00     0.187 C
HETATM   27  C10 UNL     1       3.411  21.482  19.904  1.00  0.00     0.152 C
ENDBRANCH  19  22
ENDBRANCH  17  19
ENDBRANCH   1  15
TORSDOF 7
ENDMDL