MODEL 5
REMARK VINA RESULT: -6.222071834      2.658      5.655
REMARK  3 active torsions:
REMARK  status: ('A' for Active; 'I' for Inactive)
REMARK    1  A    between atoms: C2_2  and  C3_3
REMARK       I    between atoms: C3_3  and  N1_5
REMARK       I    between atoms: C4_7  and  N2_8
REMARK       I    between atoms: C4_7  and  N4_15
REMARK    2  A    between atoms: N2_8  and  S1_10
REMARK    3  A    between atoms: S1_10  and  N3_11
REMARK       I    between atoms: N4_15  and  C5_17
REMARK       I    between atoms: C5_17  and  N5_19
REMARK       I    between atoms: N5_19  and  C6_21
ROOT
HETATM    1  C3  UNL     1       3.072  17.686  24.416  1.00  0.00     0.258 C
HETATM    2  O1  UNL     1       1.898  18.132  24.297  1.00  0.00    -0.268 OA
HETATM    3  N1  UNL     1       4.119  17.858  23.526  1.00  0.00    -0.155 N
ATOM      4  H1  UNL     1       4.977  17.404  23.837  1.00  0.00     0.187 HD
HETATM    5  C4  UNL     1       4.267  18.495  22.330  1.00  0.00     0.698 C
HETATM    6  N2  UNL     1       5.582  18.335  21.870  1.00  0.00    -0.121 N
ATOM      7  H2  UNL     1       5.835  18.764  20.980  1.00  0.00     0.196 HD
HETATM    8  N4  UNL     1       3.599  19.250  21.386  1.00  0.00    -0.140 N
ATOM      9  H4  UNL     1       4.226  19.487  20.617  1.00  0.00     0.189 HD
HETATM   10  C5  UNL     1       2.342  19.785  21.158  1.00  0.00     0.342 C
HETATM   11  O3  UNL     1       1.377  19.648  21.941  1.00  0.00    -0.246 OA
HETATM   12  N5  UNL     1       2.034  20.553  19.990  1.00  0.00    -0.263 N
ATOM     13  H5  UNL     1       1.071  20.887  19.947  1.00  0.00     0.174 HD
HETATM   14  C6  UNL     1       2.818  20.920  18.907  1.00  0.00     0.336 C
HETATM   15  N6  UNL     1       2.183  21.721  17.866  1.00  0.00    -0.040 NA
HETATM   16  O4  UNL     1       4.005  20.653  18.707  1.00  0.00    -0.251 OA
ENDROOT
BRANCH   6  17
HETATM   17  S1  UNL     1       6.770  17.472  22.707  1.00  0.00     0.229 S
HETATM   18  O2  UNL     1       6.429  16.052  23.065  1.00  0.00    -0.212 OA
BRANCH  17  19
HETATM   19  N3  UNL     1       8.358  17.617  21.985  1.00  0.00    -0.332 NA
ATOM     20  H32 UNL     1       8.695  16.733  21.603  1.00  0.00     0.168 HD
ATOM     21  H31 UNL     1       8.447  18.431  21.378  1.00  0.00     0.168 HD
ENDBRANCH  17  19
ENDBRANCH   6  17
BRANCH   1  22
HETATM   22  C2  UNL     1       3.254  16.903  25.682  1.00  0.00     0.065 C
HETATM   23  C1  UNL     1       2.259  16.567  26.417  1.00  0.00     0.017 C
ENDBRANCH   1  22
TORSDOF 3
ENDMDL