MODEL 3
REMARK VINA RESULT: -7.384619610      2.680      5.989
REMARK  2 active torsions:
REMARK  status: ('A' for Active; 'I' for Inactive)
REMARK       I    between atoms: C1_4  and  N3_6
REMARK    1  A    between atoms: N3_6  and  S1_8
REMARK    2  A    between atoms: S1_8  and  N4_11
REMARK       I    between atoms: N5_15  and  C5_16
ROOT
HETATM    1  N4  UNL     1       4.654  18.510  24.755  1.00  0.00    -0.251 N
HETATM    2  C2  UNL     1       3.957  19.721  24.802  1.00  0.00     0.084 C
HETATM    3  C3  UNL     1       2.578  19.681  25.371  1.00  0.00     0.066 C
HETATM    4  C4  UNL     1       2.541  19.367  26.848  1.00  0.00     0.131 C
HETATM    5  N5  UNL     1       2.572  17.922  26.975  1.00  0.00    -0.351 N
HETATM    6  C5  UNL     1       1.711  17.365  27.950  1.00  0.00     0.184 C
HETATM    7  N6  UNL     1       1.198  16.172  27.780  1.00  0.00    -0.374 N
ATOM      8  H61 UNL     1       0.578  15.771  28.484  1.00  0.00     0.158 HD
ATOM      9  H62 UNL     1       1.401  15.616  26.949  1.00  0.00     0.158 HD
HETATM   10  N7  UNL     1       1.429  18.135  29.101  1.00  0.00    -0.064 NA
HETATM   11  C6  UNL     1       3.389  17.011  26.209  1.00  0.00     0.171 C
HETATM   12  C7  UNL     1       4.690  17.706  25.908  1.00  0.00     0.102 C
ENDROOT
BRANCH   1  13
HETATM   13  S1  UNL     1       4.808  17.740  23.271  1.00  0.00     0.330 S
HETATM   14  O1  UNL     1       3.543  17.638  22.479  1.00  0.00    -0.182 OA
HETATM   15  O2  UNL     1       5.290  16.324  23.499  1.00  0.00    -0.182 OA
BRANCH  13  16
HETATM   16  N3  UNL     1       6.008  18.517  22.302  1.00  0.00    -0.241 N
HETATM   17  C1  UNL     1       7.390  18.476  22.641  1.00  0.00     0.196 C
HETATM   18  N1  UNL     1       8.149  17.615  22.057  1.00  0.00    -0.373 N
HETATM   19  N2  UNL     1       7.981  19.346  23.598  1.00  0.00    -0.063 NA
ATOM     20  H12 UNL     1       9.140  17.586  22.300  1.00  0.00     0.158 HD
ATOM     21  H11 UNL     1       7.725  16.991  21.370  1.00  0.00     0.158 HD
ATOM     22  H3  UNL     1       5.719  19.019  21.463  1.00  0.00     0.183 HD
ENDBRANCH  13  16
ENDBRANCH   1  13
TORSDOF 2
ENDMDL