MODEL 4
REMARK VINA RESULT: -9.397719664      2.741      3.419
REMARK  10 active torsions:
REMARK  status: ('A' for Active; 'I' for Inactive)
REMARK    1  A    between atoms: C7_12  and  N4_13
REMARK    2  A    between atoms: N4_13  and  N5_15
REMARK    3  A    between atoms: N5_15  and  C8_17
REMARK    4  A    between atoms: C8_17  and  C9_18
REMARK    5  A    between atoms: C9_18  and  C10_19
REMARK    6  A    between atoms: C10_19  and  N6_20
REMARK    7  A    between atoms: N6_20  and  C11_22
REMARK    8  A    between atoms: C12_25  and  O1_26
REMARK    9  A    between atoms: O1_26  and  C13_27
REMARK   10  A    between atoms: N9_34  and  N10_35
ROOT
HETATM    1  N6  UNL     1      24.341  45.292   7.915  1.00  0.00    -0.225 N
ATOM      2  H6  UNL     1      24.619  46.150   8.390  1.00  0.00     0.177 HD
ENDROOT
BRANCH   1   3
HETATM    3  C10 UNL     1      24.537  45.122   6.493  1.00  0.00     0.140 C
BRANCH   3   4
HETATM    4  C9  UNL     1      23.979  46.360   5.818  1.00  0.00     0.041 C
BRANCH   4   5
HETATM    5  C8  UNL     1      22.454  46.292   5.925  1.00  0.00     0.141 C
BRANCH   5   6
HETATM    6  N5  UNL     1      22.059  47.454   6.711  1.00  0.00    -0.335 N
ATOM      7  H5  UNL     1      21.229  47.404   7.300  1.00  0.00     0.180 HD
BRANCH   6   8
HETATM    8  N4  UNL     1      22.785  48.610   6.670  1.00  0.00    -0.289 N
ATOM      9  H4  UNL     1      23.615  48.621   7.264  1.00  0.00     0.188 HD
BRANCH   8  10
HETATM   10  C7  UNL     1      22.585  49.674   6.005  1.00  0.00     0.130 A
HETATM   11  C4  UNL     1      23.306  50.835   6.148  1.00  0.00     0.033 A
HETATM   12  C3  UNL     1      24.423  51.211   7.016  1.00  0.00     0.066 C
HETATM   13  C5  UNL     1      23.019  51.960   5.364  1.00  0.00     0.114 A
HETATM   14  C2  UNL     1      24.337  52.720   7.069  1.00  0.00     0.129 C
HETATM   15  N1  UNL     1      23.915  53.023   5.717  1.00  0.00    -0.371 N
HETATM   16  C1  UNL     1      24.289  54.126   4.889  1.00  0.00     0.151 C
HETATM   17  N2  UNL     1      22.025  51.880   4.472  1.00  0.00    -0.338 N
HETATM   18  C6  UNL     1      21.320  50.738   4.336  1.00  0.00     0.183 A
ATOM     19  H2  UNL     1      21.799  52.688   3.891  1.00  0.00     0.168 HD
HETATM   20  N3  UNL     1      21.599  49.658   5.092  1.00  0.00    -0.337 N
ATOM     21  H3  UNL     1      21.050  48.808   4.969  1.00  0.00     0.168 HD
ENDBRANCH   8  10
ENDBRANCH   6   8
ENDBRANCH   5   6
ENDBRANCH   4   5
ENDBRANCH   3   4
ENDBRANCH   1   3
BRANCH   1  22
HETATM   22  C11 UNL     1      23.792  44.299   8.567  1.00  0.00     0.697 A
HETATM   23  N7  UNL     1      23.472  43.093   8.075  1.00  0.00    -0.151 N
HETATM   24  C12 UNL     1      22.927  42.345   9.049  1.00  0.00     0.276 A
ATOM     25  H7  UNL     1      23.620  42.791   7.112  1.00  0.00     0.188 HD
HETATM   26  N9  UNL     1      22.925  43.135  10.160  1.00  0.00    -0.147 N
HETATM   27  N11 UNL     1      23.448  44.308   9.856  1.00  0.00    -0.108 N
ATOM     28  H11 UNL     1      23.568  45.091  10.499  1.00  0.00     0.208 HD
BRANCH  24  29
HETATM   29  O1  UNL     1      22.459  41.040   8.970  1.00  0.00    -0.312 OA
BRANCH  29  30
HETATM   30  C13 UNL     1      21.167  40.829   8.440  1.00  0.00     0.159 C
HETATM   31  C14 UNL     1      21.006  39.319   8.235  1.00  0.00     0.061 C
HETATM   32  C15 UNL     1      19.597  39.085   8.700  1.00  0.00     0.235 C
HETATM   33  N8  UNL     1      19.392  40.027   9.800  1.00  0.00    -0.073 N
HETATM   34  C16 UNL     1      20.089  41.228   9.424  1.00  0.00     0.264 C
ATOM     35  H82 UNL     1      18.409  40.181  10.028  1.00  0.00     0.277 HD
ATOM     36  H81 UNL     1      19.673  39.660  10.710  1.00  0.00     0.277 HD
ENDBRANCH  29  30
ENDBRANCH  24  29
BRANCH  26  37
HETATM   37  N10 UNL     1      22.442  42.741  11.397  1.00  0.00    -0.320 N
ATOM     38 2H10 UNL     1      21.463  42.695  11.683  1.00  0.00     0.179 HD
ATOM     39 1H10 UNL     1      23.031  42.448  12.177  1.00  0.00     0.179 HD
ENDBRANCH  26  37
ENDBRANCH   1  22
TORSDOF 10
ENDMDL