MODEL 5
REMARK VINA RESULT: -7.581150199      1.532      1.849
REMARK  11 active torsions:
REMARK  status: ('A' for Active; 'I' for Inactive)
REMARK    1  A    between atoms: N1_1  and  C1_5
REMARK    2  A    between atoms: C1_5  and  C2_6
REMARK    3  A    between atoms: C2_6  and  N2_7
REMARK    4  A    between atoms: N2_7  and  C3_9
REMARK    5  A    between atoms: N3_13  and  C6_14
REMARK    6  A    between atoms: C6_14  and  O2_15
REMARK    7  A    between atoms: O2_15  and  C7_16
REMARK    8  A    between atoms: C7_16  and  N4_17
REMARK    9  A    between atoms: C8_20  and  N5_21
REMARK   10  A    between atoms: N5_21  and  C9_23
REMARK   11  A    between atoms: N8_31  and  O5_32
ROOT
HETATM    1  C3  UNL     1      23.633  51.996   6.710  1.00  0.00     0.122 A
HETATM    2  C4  UNL     1      22.503  52.188   5.945  1.00  0.00     0.123 A
HETATM    3  C5  UNL     1      21.948  51.121   5.270  1.00  0.00     0.267 A
HETATM    4  O1  UNL     1      20.903  51.262   4.553  1.00  0.00    -0.267 OA
HETATM    5  N3  UNL     1      22.478  49.887   5.338  1.00  0.00    -0.125 N
HETATM    6  C8  UNL     1      23.584  49.719   6.093  1.00  0.00     0.691 A
HETATM    7  N9  UNL     1      24.144  50.744   6.758  1.00  0.00    -0.176 N
ATOM      8  H9  UNL     1      24.979  50.572   7.317  1.00  0.00     0.186 HD
ENDROOT
BRANCH   6   9
HETATM    9  N5  UNL     1      24.085  48.539   6.151  1.00  0.00    -0.191 N
ATOM     10  H5  UNL     1      24.877  48.320   5.545  1.00  0.00     0.184 HD
BRANCH   9  11
HETATM   11  C9  UNL     1      23.596  47.522   7.012  1.00  0.00     0.051 A
HETATM   12  C10 UNL     1      22.937  47.839   8.175  1.00  0.00     0.032 A
HETATM   13  C11 UNL     1      22.444  46.887   9.044  1.00  0.00     0.036 A
HETATM   14  C12 UNL     1      22.626  45.555   8.724  1.00  0.00     0.080 A
HETATM   15  N6  UNL     1      22.290  44.381   9.315  1.00  0.00    -0.282 N
HETATM   16  C13 UNL     1      23.282  45.184   7.568  1.00  0.00     0.113 A
HETATM   17  N7  UNL     1      22.716  43.366   8.565  1.00  0.00    -0.215 N
ATOM     18  H6  UNL     1      21.789  44.289  10.199  1.00  0.00     0.188 HD
HETATM   19  N8  UNL     1      23.316  43.830   7.507  1.00  0.00    -0.147 N
ATOM     20  H7  UNL     1      22.591  42.378   8.785  1.00  0.00     0.211 HD
HETATM   21  C14 UNL     1      23.764  46.176   6.717  1.00  0.00     0.066 A
BRANCH  19  22
HETATM   22  O5  UNL     1      23.913  43.150   6.456  1.00  0.00    -0.266 OA
ATOM     23  H5  UNL     1      23.997  43.397   5.542  1.00  0.00     0.247 HD
ENDBRANCH  19  22
ENDBRANCH   9  11
ENDBRANCH   6   9
BRANCH   5  24
HETATM   24  C6  UNL     1      21.874  48.793   4.622  1.00  0.00     0.323 C
BRANCH  24  25
HETATM   25  O2  UNL     1      20.916  48.188   5.427  1.00  0.00    -0.346 OA
BRANCH  25  26
HETATM   26  C7  UNL     1      19.752  47.901   4.745  1.00  0.00     0.371 C
BRANCH  26  27
HETATM   27  N4  UNL     1      18.670  47.812   5.707  1.00  0.00    -0.131 N
HETATM   28  O3  UNL     1      18.618  48.550   6.710  1.00  0.00    -0.535 OA
HETATM   29  O4  UNL     1      17.642  46.898   5.553  1.00  0.00    -0.535 OA
ENDBRANCH  26  27
ENDBRANCH  25  26
ENDBRANCH  24  25
ENDBRANCH   5  24
BRANCH   1  30
HETATM   30  N2  UNL     1      24.255  53.059   7.432  1.00  0.00    -0.374 N
ATOM     31  H2  UNL     1      24.695  52.898   8.338  1.00  0.00     0.161 HD
BRANCH  30  32
HETATM   32  C2  UNL     1      24.236  54.383   6.826  1.00  0.00     0.148 C
BRANCH  32  33
HETATM   33  C1  UNL     1      24.324  55.427   7.900  1.00  0.00     0.249 C
BRANCH  33  34
HETATM   34  N1  UNL     1      23.935  54.841   9.169  1.00  0.00    -0.078 N
ATOM     35  H13 UNL     1      24.573  54.103   9.467  1.00  0.00     0.274 HD
ATOM     36  H12 UNL     1      24.080  55.480   9.951  1.00  0.00     0.274 HD
ATOM     37  H11 UNL     1      22.970  54.518   9.108  1.00  0.00     0.274 HD
ENDBRANCH  33  34
ENDBRANCH  32  33
ENDBRANCH  30  32
ENDBRANCH   1  30
TORSDOF 11
ENDMDL