MODEL 5
REMARK VINA RESULT: -6.094619315      3.302      5.572
REMARK  15 active torsions:
REMARK  status: ('A' for Active; 'I' for Inactive)
REMARK    1  A    between atoms: C2_2  and  O2_4
REMARK    2  A    between atoms: O2_4  and  C3_5
REMARK    3  A    between atoms: C3_5  and  N1_6
REMARK    4  A    between atoms: C3_5  and  C8_16
REMARK    5  A    between atoms: C3_5  and  C14_22
REMARK       I    between atoms: N1_6  and  C4_8
REMARK    6  A    between atoms: C4_8  and  O4_10
REMARK    7  A    between atoms: O4_10  and  C5_11
REMARK    8  A    between atoms: C5_11  and  O5_14
REMARK    9  A    between atoms: C14_22  and  O6_23
REMARK   10  A    between atoms: C14_22  and  C15_25
REMARK   11  A    between atoms: C15_25  and  O7_26
REMARK   12  A    between atoms: C15_25  and  C16_28
REMARK   13  A    between atoms: C16_28  and  O8_29
REMARK   14  A    between atoms: C16_28  and  C17_31
REMARK   15  A    between atoms: C17_31  and  O9_32
ROOT
HETATM    1  C3  UNL     1      22.303  43.908   8.845  1.00  0.00     0.204 C
ENDROOT
BRANCH   1   2
HETATM    2  O2  UNL     1      23.593  43.410   8.748  1.00  0.00    -0.282 OA
BRANCH   2   3
HETATM    3  C2  UNL     1      24.351  43.202   7.670  1.00  0.00     0.257 C
HETATM    4  C1  UNL     1      25.117  44.329   6.973  1.00  0.00     0.126 C
HETATM    5  O1  UNL     1      24.451  42.046   7.193  1.00  0.00    -0.266 OA
ENDBRANCH   2   3
ENDBRANCH   1   2
BRANCH   1   6
HETATM    6  N1  UNL     1      22.033  43.926  10.292  1.00  0.00    -0.298 N
HETATM    7  C4  UNL     1      22.668  43.080  11.241  1.00  0.00     0.365 C
HETATM    8  O3  UNL     1      23.496  42.209  10.917  1.00  0.00    -0.238 OA
ATOM      9  H1  UNL     1      21.342  44.591  10.637  1.00  0.00     0.168 HD
BRANCH   7  10
HETATM   10  O4  UNL     1      22.353  43.227  12.567  1.00  0.00    -0.267 OA
BRANCH  10  11
HETATM   11  C5  UNL     1      21.621  42.335  13.360  1.00  0.00     0.165 C
HETATM   12  C6  UNL     1      22.467  41.429  14.227  1.00  0.00     0.079 C
HETATM   13  C7  UNL     1      20.829  43.219  14.349  1.00  0.00     0.079 C
BRANCH  11  14
HETATM   14  O5  UNL     1      20.748  41.561  12.614  1.00  0.00    -0.365 OA
ATOM     15  H5  UNL     1      19.849  41.860  12.686  1.00  0.00     0.213 HD
ENDBRANCH  11  14
ENDBRANCH  10  11
ENDBRANCH   7  10
ENDBRANCH   1   6
BRANCH   1  16
HETATM   16  C8  UNL     1      22.137  45.267   8.272  1.00  0.00     0.000 A
HETATM   17  C9  UNL     1      22.622  46.383   8.887  1.00  0.00     0.012 A
HETATM   18  C10 UNL     1      22.502  47.681   8.355  1.00  0.00     0.001 A
HETATM   19  C11 UNL     1      21.868  47.857   7.159  1.00  0.00     0.000 A
HETATM   20  C12 UNL     1      21.362  46.750   6.508  1.00  0.00     0.001 A
HETATM   21  C13 UNL     1      21.489  45.489   7.044  1.00  0.00     0.012 A
ENDBRANCH   1  16
BRANCH   1  22
HETATM   22  C14 UNL     1      21.336  42.954   8.258  1.00  0.00     0.210 C
BRANCH  22  23
HETATM   23  O6  UNL     1      21.665  42.779   6.885  1.00  0.00    -0.388 OA
ATOM     24  H6  UNL     1      21.848  41.858   6.742  1.00  0.00     0.210 HD
ENDBRANCH  22  23
BRANCH  22  25
HETATM   25  C15 UNL     1      20.953  41.682   8.872  1.00  0.00     0.182 C
BRANCH  25  26
HETATM   26  O7  UNL     1      19.723  42.021   9.587  1.00  0.00    -0.390 OA
ATOM     27  H7  UNL     1      19.482  41.198   9.996  1.00  0.00     0.210 HD
ENDBRANCH  25  26
BRANCH  25  28
HETATM   28  C16 UNL     1      20.392  40.620   7.903  1.00  0.00     0.173 C
BRANCH  28  29
HETATM   29  O8  UNL     1      19.015  40.607   7.880  1.00  0.00    -0.391 OA
ATOM     30  H8  UNL     1      18.669  39.883   7.373  1.00  0.00     0.210 HD
ENDBRANCH  28  29
BRANCH  28  31
HETATM   31  C17 UNL     1      20.741  39.272   8.607  1.00  0.00     0.198 C
BRANCH  31  32
HETATM   32  O9  UNL     1      19.924  39.211   9.734  1.00  0.00    -0.398 OA
ATOM     33  H9  UNL     1      20.102  38.369  10.136  1.00  0.00     0.209 HD
ENDBRANCH  31  32
ENDBRANCH  28  31
ENDBRANCH  25  28
ENDBRANCH  22  25
ENDBRANCH   1  22
TORSDOF 15
ENDMDL