MODEL 5
REMARK VINA RESULT: -5.568507172      1.430      6.011
REMARK  10 active torsions:
REMARK  status: ('A' for Active; 'I' for Inactive)
REMARK    1  A    between atoms: C2_2  and  N1_3
REMARK    2  A    between atoms: C4_8  and  N3_9
REMARK    3  A    between atoms: N3_9  and  C5_10
REMARK    4  A    between atoms: N3_9  and  C7_14
REMARK    5  A    between atoms: C5_10  and  C6_11
REMARK    6  A    between atoms: C6_11  and  O1_12
REMARK    7  A    between atoms: C7_14  and  C8_15
REMARK    8  A    between atoms: C8_15  and  O2_16
REMARK    9  A    between atoms: C10_21  and  N5_22
REMARK   10  A    between atoms: C15_31  and  N8_32
ROOT
HETATM    1  N1  UNL     1      24.164  54.246   9.423  1.00  0.00    -0.374 N
ATOM      2  H1  UNL     1      23.851  53.401   9.902  1.00  0.00     0.161 HD
HETATM    3  C3  UNL     1      24.193  54.191   8.155  1.00  0.00     0.146 A
HETATM    4  N2  UNL     1      23.810  53.020   7.537  1.00  0.00    -0.174 N
ATOM      5  H2  UNL     1      23.509  52.232   8.109  1.00  0.00     0.186 HD
HETATM    6  C4  UNL     1      23.825  52.893   6.220  1.00  0.00     0.686 A
HETATM    7  N4  UNL     1      24.205  53.877   5.409  1.00  0.00    -0.185 N
ATOM      8  H4  UNL     1      24.206  53.754   4.396  1.00  0.00     0.184 HD
HETATM    9  C9  UNL     1      24.589  55.044   5.970  1.00  0.00     0.124 A
HETATM   10  C10 UNL     1      24.980  56.079   5.159  1.00  0.00     0.150 A
HETATM   11  N7  UNL     1      25.358  57.260   5.735  1.00  0.00    -0.175 N
ATOM     12  H7  UNL     1      25.652  58.044   5.153  1.00  0.00     0.186 HD
HETATM   13  C15 UNL     1      25.340  57.378   7.053  1.00  0.00     0.678 A
HETATM   14  N9  UNL     1      24.971  56.404   7.874  1.00  0.00    -0.186 N
ATOM     15  H9  UNL     1      24.977  56.549   8.884  1.00  0.00     0.184 HD
HETATM   16  C16 UNL     1      24.591  55.228   7.359  1.00  0.00     0.124 A
ENDROOT
BRANCH   6  17
HETATM   17  N3  UNL     1      23.390  51.572   5.670  1.00  0.00    -0.193 N
BRANCH  17  18
HETATM   18  C5  UNL     1      24.276  50.541   6.002  1.00  0.00     0.108 C
BRANCH  18  19
HETATM   19  C6  UNL     1      23.901  49.397   6.855  1.00  0.00     0.209 C
BRANCH  19  20
HETATM   20  O1  UNL     1      23.472  49.902   8.141  1.00  0.00    -0.396 OA
ATOM     21  H1  UNL     1      22.568  50.184   8.068  1.00  0.00     0.209 HD
ENDBRANCH  19  20
ENDBRANCH  18  19
ENDBRANCH  17  18
BRANCH  17  22
HETATM   22  C7  UNL     1      22.192  51.699   4.935  1.00  0.00     0.172 C
BRANCH  22  23
HETATM   23  C8  UNL     1      21.619  50.463   4.362  1.00  0.00     0.185 C
BRANCH  23  24
HETATM   24  O2  UNL     1      20.281  50.275   4.492  1.00  0.00    -0.399 OA
ATOM     25  H2  UNL     1      19.771  50.191   3.696  1.00  0.00     0.209 HD
ENDBRANCH  23  24
ENDBRANCH  22  23
ENDBRANCH  17  22
ENDBRANCH   6  17
BRANCH   1  26
HETATM   26  C2  UNL     1      24.510  55.328  10.242  1.00  0.00     0.116 C
HETATM   27  C1  UNL     1      23.203  56.133  10.500  1.00  0.00     0.026 C
ENDBRANCH   1  26
BRANCH  10  28
HETATM   28  N5  UNL     1      25.052  55.981   3.738  1.00  0.00    -0.349 N
HETATM   29  C11 UNL     1      26.303  55.486   3.168  1.00  0.00     0.154 C
HETATM   30  C12 UNL     1      26.302  55.857   1.690  1.00  0.00     0.213 C
HETATM   31  O3  UNL     1      25.737  57.099   1.527  1.00  0.00    -0.301 OA
HETATM   32  N6  UNL     1      24.428  57.160   1.746  1.00  0.00    -0.183 NA
HETATM   33  C13 UNL     1      23.897  58.485   1.805  1.00  0.00     0.145 C
HETATM   34  C14 UNL     1      23.990  56.323   2.845  1.00  0.00     0.245 C
ENDBRANCH  10  28
BRANCH  13  35
HETATM   35  N8  UNL     1      25.707  58.485   7.598  1.00  0.00    -0.234 N
ATOM     36  H82 UNL     1      26.172  59.162   6.992  1.00  0.00     0.174 HD
ATOM     37  H81 UNL     1      25.519  58.648   8.587  1.00  0.00     0.174 HD
ENDBRANCH  13  35
TORSDOF 10
ENDMDL