MODEL 1
REMARK VINA RESULT: -8.458308311      0.000      0.000
REMARK  12 active torsions:
REMARK  status: ('A' for Active; 'I' for Inactive)
REMARK    1  A    between atoms: O1_2  and  C2_3
REMARK    2  A    between atoms: C2_3  and  C3_5
REMARK    3  A    between atoms: C3_5  and  N1_6
REMARK    4  A    between atoms: C3_5  and  C4_10
REMARK    5  A    between atoms: C4_10  and  O3_11
REMARK    6  A    between atoms: C4_10  and  C5_13
REMARK    7  A    between atoms: C5_13  and  C6_14
REMARK    8  A    between atoms: C5_13  and  N2_25
REMARK    9  A    between atoms: C6_14  and  O5_16
REMARK   10  A    between atoms: O5_16  and  C7_17
REMARK   11  A    between atoms: C7_17  and  C9_19
REMARK   12  A    between atoms: C15_28  and  N4_29
ROOT
HETATM    1  C5  UNL     1      22.714  47.312   6.133  1.00  0.00     0.244 C
ENDROOT
BRANCH   1   2
HETATM    2  C4  UNL     1      22.807  46.158   7.058  1.00  0.00     0.193 C
BRANCH   2   3
HETATM    3  C3  UNL     1      24.154  45.522   7.192  1.00  0.00     0.313 C
BRANCH   3   4
HETATM    4  C2  UNL     1      23.915  44.105   7.654  1.00  0.00     0.291 C
HETATM    5  O2  UNL     1      24.084  43.128   6.865  1.00  0.00    -0.263 OA
BRANCH   4   6
HETATM    6  O1  UNL     1      23.505  43.802   8.943  1.00  0.00    -0.325 OA
HETATM    7  C1  UNL     1      23.060  42.503   9.294  1.00  0.00     0.213 C
ENDBRANCH   4   6
ENDBRANCH   3   4
BRANCH   3   8
HETATM    8  N1  UNL     1      24.739  45.398   5.846  1.00  0.00    -0.063 N
ATOM      9  H13 UNL     1      25.035  46.287   5.444  1.00  0.00     0.275 HD
ATOM     10  H12 UNL     1      25.655  44.951   5.836  1.00  0.00     0.275 HD
ATOM     11  H11 UNL     1      24.037  44.910   5.290  1.00  0.00     0.275 HD
ENDBRANCH   3   8
ENDBRANCH   2   3
BRANCH   2  12
HETATM   12  O3  UNL     1      21.917  45.123   6.705  1.00  0.00    -0.390 OA
ATOM     13  H3  UNL     1      21.638  44.724   7.521  1.00  0.00     0.210 HD
ENDBRANCH   2  12
ENDBRANCH   1   2
BRANCH   1  14
HETATM   14  C6  UNL     1      23.163  48.594   6.712  1.00  0.00     0.287 C
HETATM   15  O4  UNL     1      23.309  48.738   7.947  1.00  0.00    -0.263 OA
BRANCH  14  16
HETATM   16  O5  UNL     1      23.448  49.711   5.935  1.00  0.00    -0.310 OA
BRANCH  16  17
HETATM   17  C7  UNL     1      22.571  50.798   5.805  1.00  0.00     0.160 C
HETATM   18  C8  UNL     1      21.741  50.715   4.539  1.00  0.00     0.045 C
BRANCH  17  19
HETATM   19  C9  UNL     1      23.243  52.103   5.942  1.00  0.00    -0.029 A
HETATM   20  C10 UNL     1      23.637  52.594   7.165  1.00  0.00     0.010 A
HETATM   21  C11 UNL     1      24.267  53.818   7.283  1.00  0.00     0.001 A
HETATM   22  C12 UNL     1      24.524  54.596   6.176  1.00  0.00     0.000 A
HETATM   23  C13 UNL     1      24.135  54.117   4.945  1.00  0.00     0.001 A
HETATM   24  C14 UNL     1      23.504  52.887   4.839  1.00  0.00     0.010 A
ENDBRANCH  17  19
ENDBRANCH  16  17
ENDBRANCH  14  16
ENDBRANCH   1  14
BRANCH   1  25
HETATM   25  N2  UNL     1      21.290  47.492   5.813  1.00  0.00    -0.211 N
HETATM   26  N3  UNL     1      20.380  47.898   6.680  1.00  0.00    -0.125 N
HETATM   27  C15 UNL     1      19.178  47.970   6.122  1.00  0.00     0.694 A
ATOM     28  H3  UNL     1      20.577  48.128   7.654  1.00  0.00     0.206 HD
HETATM   29  N5  UNL     1      19.327  47.593   4.845  1.00  0.00    -0.139 N
HETATM   30  C16 UNL     1      20.648  47.298   4.665  1.00  0.00     0.356 A
ATOM     31  H5  UNL     1      18.592  47.537   4.141  1.00  0.00     0.189 HD
HETATM   32  O6  UNL     1      21.164  46.909   3.598  1.00  0.00    -0.244 OA
BRANCH  27  33
HETATM   33  N4  UNL     1      18.099  48.339   6.732  1.00  0.00    -0.233 N
ATOM     34  H42 UNL     1      17.755  48.046   7.646  1.00  0.00     0.174 HD
ATOM     35  H41 UNL     1      17.417  49.001   6.363  1.00  0.00     0.174 HD
ENDBRANCH  27  33
ENDBRANCH   1  25
TORSDOF 12
ENDMDL