MODEL 1
REMARK VINA RESULT: -9.288174181      0.000      0.000
REMARK  7 active torsions:
REMARK  status: ('A' for Active; 'I' for Inactive)
REMARK       I    between atoms: C1_4  and  N2_5
REMARK       I    between atoms: C1_4  and  N7_27
REMARK    1  A    between atoms: N2_5  and  C2_7
REMARK    2  A    between atoms: C2_7  and  C3_8
REMARK    3  A    between atoms: C3_8  and  C4_9
REMARK    4  A    between atoms: C4_9  and  C5_10
REMARK    5  A    between atoms: N5_20  and  C10_21
REMARK    6  A    between atoms: C10_21  and  C11_22
REMARK    7  A    between atoms: N7_27  and  N8_29
ROOT
HETATM    1  C5  UNL     1      22.645  47.767   6.148  1.00  0.00     0.205 C
HETATM    2  C6  UNL     1      21.501  47.449   7.031  1.00  0.00     0.242 C
HETATM    3  O1  UNL     1      21.654  46.963   8.155  1.00  0.00    -0.271 OA
HETATM    4  N3  UNL     1      20.151  47.684   6.647  1.00  0.00    -0.358 N
ATOM      5  H3  UNL     1      19.455  47.564   7.383  1.00  0.00     0.162 HD
HETATM    6  C7  UNL     1      19.633  48.071   5.349  1.00  0.00     0.144 C
HETATM    7  C8  UNL     1      20.253  49.247   4.725  1.00  0.00     0.174 C
HETATM    8  N4  UNL     1      21.515  49.701   5.171  1.00  0.00    -0.234 N
HETATM    9  C9  UNL     1      21.859  51.014   4.999  1.00  0.00     0.347 A
HETATM   10  O2  UNL     1      21.133  51.885   4.466  1.00  0.00    -0.245 OA
HETATM   11  N5  UNL     1      23.070  51.234   5.476  1.00  0.00    -0.248 N
HETATM   12  C12 UNL     1      23.542  50.062   5.971  1.00  0.00     0.348 A
HETATM   13  O3  UNL     1      24.688  49.893   6.516  1.00  0.00    -0.245 OA
HETATM   14  N6  UNL     1      22.582  49.166   5.771  1.00  0.00    -0.222 N
ENDROOT
BRANCH   1  15
HETATM   15  C4  UNL     1      23.967  47.291   6.604  1.00  0.00     0.039 C
BRANCH  15  16
HETATM   16  C3  UNL     1      24.395  45.976   5.994  1.00  0.00     0.023 C
BRANCH  16  17
HETATM   17  C2  UNL     1      24.264  44.868   7.052  1.00  0.00     0.138 C
BRANCH  17  18
HETATM   18  N2  UNL     1      23.002  44.201   6.892  1.00  0.00    -0.225 N
HETATM   19  C1  UNL     1      22.298  43.705   8.016  1.00  0.00     0.691 C
HETATM   20  N1  UNL     1      22.334  44.359   9.113  1.00  0.00    -0.233 N
HETATM   21  N7  UNL     1      21.563  42.480   7.888  1.00  0.00    -0.072 N
ATOM     22  H12 UNL     1      22.856  45.230   9.204  1.00  0.00     0.174 HD
ATOM     23  H11 UNL     1      21.827  44.002   9.923  1.00  0.00     0.174 HD
ATOM     24  H7  UNL     1      20.640  42.490   7.453  1.00  0.00     0.212 HD
ATOM     25  H2  UNL     1      22.609  44.084   5.958  1.00  0.00     0.177 HD
BRANCH  21  26
HETATM   26  N8  UNL     1      22.089  41.283   8.345  1.00  0.00    -0.024 N
HETATM   27  O4  UNL     1      23.313  41.179   8.516  1.00  0.00    -0.516 OA
HETATM   28  O5  UNL     1      21.230  40.237   8.598  1.00  0.00    -0.516 OA
ENDBRANCH  21  26
ENDBRANCH  17  18
ENDBRANCH  16  17
ENDBRANCH  15  16
ENDBRANCH   1  15
BRANCH  11  29
HETATM   29  C10 UNL     1      23.867  52.446   5.526  1.00  0.00     0.150 C
BRANCH  29  30
HETATM   30  C11 UNL     1      23.920  53.062   6.890  1.00  0.00     0.106 C
HETATM   31  S1  UNL     1      24.361  54.816   6.778  1.00  0.00    -0.096 SA
ENDBRANCH  29  30
ENDBRANCH  11  29
TORSDOF 7
ENDMDL