MODEL 2
REMARK VINA RESULT: -6.247971485      1.001      1.188
REMARK  11 active torsions:
REMARK  status: ('A' for Active; 'I' for Inactive)
REMARK    1  A    between atoms: C2_2  and  C3_3
REMARK    2  A    between atoms: C3_3  and  C5_5
REMARK    3  A    between atoms: C5_5  and  C6_7
REMARK    4  A    between atoms: C6_7  and  O1_8
REMARK    5  A    between atoms: C6_7  and  C7_10
REMARK    6  A    between atoms: C8_11  and  O2_12
REMARK    7  A    between atoms: O2_12  and  N2_13
REMARK    8  A    between atoms: C9_18  and  S1_19
REMARK    9  A    between atoms: S1_19  and  N4_20
REMARK   10  A    between atoms: N5_25  and  N6_26
REMARK   11  A    between atoms: N6_26  and  S2_28
ROOT
HETATM    1  C7  UNL     1      22.871  46.107   6.988  1.00  0.00     0.148 A
HETATM    2  C8  UNL     1      24.199  46.050   6.485  1.00  0.00     0.203 A
HETATM    3  N3  UNL     1      24.634  47.249   6.230  1.00  0.00    -0.307 N
ATOM      4  H3  UNL     1      25.555  47.486   5.862  1.00  0.00     0.170 HD
HETATM    5  C9  UNL     1      23.651  48.127   6.536  1.00  0.00     0.248 A
HETATM    6  N5  UNL     1      22.598  47.420   6.983  1.00  0.00    -0.212 N
ENDROOT
BRANCH   1   7
HETATM    7  C6  UNL     1      22.046  44.954   7.282  1.00  0.00     0.123 C
BRANCH   7   8
HETATM    8  C5  UNL     1      22.398  44.084   8.444  1.00  0.00     0.084 C
HETATM    9  N1  UNL     1      22.174  44.635   9.700  1.00  0.00    -0.099 NA
BRANCH   8  10
HETATM   10  C3  UNL     1      22.057  42.659   8.295  1.00  0.00    -0.057 C
HETATM   11  C4  UNL     1      23.251  41.764   8.430  1.00  0.00     0.045 C
BRANCH  10  12
HETATM   12  C2  UNL     1      20.850  42.091   8.933  1.00  0.00     0.031 C
HETATM   13  C1  UNL     1      20.621  40.625   8.570  1.00  0.00     0.010 C
ENDBRANCH  10  12
ENDBRANCH   8  10
ENDBRANCH   7   8
BRANCH   7  14
HETATM   14  O1  UNL     1      21.486  44.304   6.191  1.00  0.00    -0.357 OA
ATOM     15  H1  UNL     1      20.835  43.642   6.395  1.00  0.00     0.218 HD
ENDBRANCH   7  14
ENDBRANCH   1   7
BRANCH   2  16
HETATM   16  O2  UNL     1      24.853  44.870   6.328  1.00  0.00    -0.224 OA
BRANCH  16  17
HETATM   17  N2  UNL     1      26.129  44.589   6.655  1.00  0.00    -0.303 N
ATOM     18  H22 UNL     1      26.649  45.362   7.071  1.00  0.00     0.184 HD
ATOM     19  H21 UNL     1      26.622  43.704   6.534  1.00  0.00     0.184 HD
ENDBRANCH  16  17
ENDBRANCH   2  16
BRANCH   6  20
HETATM   20  N6  UNL     1      21.330  48.048   7.193  1.00  0.00    -0.218 N
ATOM     21  H6  UNL     1      21.123  48.515   8.076  1.00  0.00     0.200 HD
BRANCH  20  22
HETATM   22  S2  UNL     1      20.154  48.005   5.929  1.00  0.00     0.240 S
HETATM   23  C10 UNL     1      20.341  49.370   4.817  1.00  0.00     0.187 C
HETATM   24  O5  UNL     1      20.201  46.768   5.087  1.00  0.00    -0.205 OA
HETATM   25  O6  UNL     1      18.769  48.168   6.596  1.00  0.00    -0.205 OA
ENDBRANCH  20  22
ENDBRANCH   6  20
BRANCH   5  26
HETATM   26  S1  UNL     1      23.881  49.875   6.359  1.00  0.00     0.290 S
HETATM   27  O3  UNL     1      25.240  50.199   5.840  1.00  0.00    -0.198 OA
HETATM   28  O4  UNL     1      22.864  50.508   5.490  1.00  0.00    -0.198 OA
BRANCH  26  29
HETATM   29  N4  UNL     1      23.696  50.606   7.924  1.00  0.00    -0.322 N
ATOM     30  H42 UNL     1      23.593  50.096   8.801  1.00  0.00     0.169 HD
ATOM     31  H41 UNL     1      23.710  51.619   7.805  1.00  0.00     0.169 HD
ENDBRANCH  26  29
ENDBRANCH   5  26
TORSDOF 11
ENDMDL