MODEL 3
REMARK VINA RESULT: -7.102886990      2.387      6.025
REMARK  10 active torsions:
REMARK  status: ('A' for Active; 'I' for Inactive)
REMARK    1  A    between atoms: O1_2  and  C2_3
REMARK    2  A    between atoms: C2_3  and  C4_6
REMARK    3  A    between atoms: C4_6  and  C6_9
REMARK    4  A    between atoms: C6_9  and  N3_10
REMARK    5  A    between atoms: C6_9  and  C12_21
REMARK    6  A    between atoms: C7_12  and  C8_13
REMARK    7  A    between atoms: C8_13  and  C9_15
REMARK    8  A    between atoms: C9_15  and  C10_16
REMARK    9  A    between atoms: C10_16  and  C11_18
REMARK   10  A    between atoms: C13_22  and  O6_23
ROOT
HETATM    1  C2  UNL     1      21.504  49.545   4.719  1.00  0.00     0.172 C
HETATM    2  C3  UNL     1      20.293  49.282   3.898  1.00  0.00     0.126 C
HETATM    3  N1  UNL     1      19.330  49.051   3.258  1.00  0.00    -0.189 NA
ENDROOT
BRANCH   1   4
HETATM    4  O1  UNL     1      21.882  50.860   4.540  1.00  0.00    -0.345 OA
HETATM    5  C1  UNL     1      21.155  51.987   4.933  1.00  0.00     0.211 C
ENDBRANCH   1   4
BRANCH   1   6
HETATM    6  C4  UNL     1      21.966  48.576   5.409  1.00  0.00     0.116 C
HETATM    7  C5  UNL     1      21.441  47.268   4.658  1.00  0.00     0.105 C
HETATM    8  N2  UNL     1      21.070  46.319   4.046  1.00  0.00    -0.191 NA
BRANCH   6   9
HETATM    9  C6  UNL     1      22.967  48.126   6.292  1.00  0.00     0.076 C
BRANCH   9  10
HETATM   10  N3  UNL     1      23.792  49.059   6.721  1.00  0.00    -0.360 N
HETATM   11  C7  UNL     1      23.861  50.196   7.420  1.00  0.00     0.139 C
ATOM     12  H3  UNL     1      24.731  48.826   6.400  1.00  0.00     0.165 HD
BRANCH  11  13
HETATM   13  C8  UNL     1      24.589  51.311   6.668  1.00  0.00     0.172 C
HETATM   14  O2  UNL     1      25.722  51.004   6.298  1.00  0.00    -0.291 OA
BRANCH  13  15
HETATM   15  C9  UNL     1      24.042  52.633   6.386  1.00  0.00     0.175 C
BRANCH  15  16
HETATM   16  C10 UNL     1      24.246  53.502   7.576  1.00  0.00     0.232 C
HETATM   17  O3  UNL     1      24.397  53.033   8.739  1.00  0.00    -0.285 OA
BRANCH  16  18
HETATM   18  C11 UNL     1      24.280  54.966   7.451  1.00  0.00     0.247 C
HETATM   19  O4  UNL     1      25.095  55.462   6.602  1.00  0.00    -0.642 OA
HETATM   20  O5  UNL     1      23.500  55.806   8.183  1.00  0.00    -0.642 OA
ENDBRANCH  16  18
ENDBRANCH  15  16
ENDBRANCH  13  15
ENDBRANCH  11  13
ENDBRANCH   9  10
BRANCH   9  21
HETATM   21  C12 UNL     1      23.205  46.867   6.986  1.00  0.00     0.111 A
HETATM   22  C13 UNL     1      22.541  46.550   8.191  1.00  0.00     0.162 A
HETATM   23  N4  UNL     1      22.760  45.396   8.869  1.00  0.00    -0.288 N
HETATM   24  C14 UNL     1      23.636  44.503   8.392  1.00  0.00     0.329 A
ATOM     25  H4  UNL     1      22.258  45.209   9.737  1.00  0.00     0.172 HD
HETATM   26  O7  UNL     1      23.856  43.419   9.007  1.00  0.00    -0.247 OA
HETATM   27  N5  UNL     1      24.303  44.725   7.259  1.00  0.00    -0.275 N
HETATM   28  C15 UNL     1      24.073  45.910   6.572  1.00  0.00     0.266 A
ATOM     29  H5  UNL     1      24.969  44.038   6.904  1.00  0.00     0.173 HD
HETATM   30  O8  UNL     1      24.717  46.049   5.526  1.00  0.00    -0.267 OA
BRANCH  22  31
HETATM   31  O6  UNL     1      21.630  47.468   8.676  1.00  0.00    -0.345 OA
ATOM     32  H6  UNL     1      21.617  47.617   9.614  1.00  0.00     0.219 HD
ENDBRANCH  22  31
ENDBRANCH   9  21
ENDBRANCH   6   9
ENDBRANCH   1   6
TORSDOF 10
ENDMDL