MODEL 2
REMARK VINA RESULT: -8.444337116      3.317      9.092
REMARK  11 active torsions:
REMARK  status: ('A' for Active; 'I' for Inactive)
REMARK    1  A    between atoms: C2_2  and  O1_3
REMARK    2  A    between atoms: C2_2  and  C3_5
REMARK    3  A    between atoms: C3_5  and  O2_7
REMARK    4  A    between atoms: C3_5  and  C5_9
REMARK    5  A    between atoms: C5_9  and  C6_10
REMARK    6  A    between atoms: C7_13  and  S1_14
REMARK    7  A    between atoms: S1_14  and  N2_17
REMARK    8  A    between atoms: N2_17  and  C9_19
REMARK    9  A    between atoms: C9_19  and  N3_20
REMARK   10  A    between atoms: N3_20  and  N4_22
REMARK   11  A    between atoms: N4_22  and  C10_24
ROOT
HETATM    1  C6  UNL     1      24.002  44.966   7.075  1.00  0.00     0.100 A
HETATM    2  N1  UNL     1      23.530  46.157   7.517  1.00  0.00    -0.319 N
ATOM      3  H1  UNL     1      23.019  46.317   8.385  1.00  0.00     0.169 HD
HETATM    4  C7  UNL     1      23.855  47.089   6.607  1.00  0.00     0.240 A
HETATM    5  N7  UNL     1      24.516  46.442   5.632  1.00  0.00    -0.273 N
ATOM      6  H7  UNL     1      24.895  46.883   4.794  1.00  0.00     0.189 HD
HETATM    7  N8  UNL     1      24.606  45.169   5.909  1.00  0.00    -0.287 N
ATOM      8  H8  UNL     1      25.058  44.458   5.334  1.00  0.00     0.188 HD
ENDROOT
BRANCH   4   9
HETATM    9  S1  UNL     1      23.517  48.810   6.624  1.00  0.00     0.298 S
HETATM   10  O3  UNL     1      23.207  49.276   8.017  1.00  0.00    -0.197 OA
HETATM   11  O4  UNL     1      24.696  49.567   6.072  1.00  0.00    -0.197 OA
BRANCH   9  12
HETATM   12  N2  UNL     1      22.118  49.048   5.653  1.00  0.00    -0.269 N
HETATM   13  C8  UNL     1      21.109  48.005   5.646  1.00  0.00     0.170 C
BRANCH  12  14
HETATM   14  C9  UNL     1      21.996  50.239   4.901  1.00  0.00     0.210 C
BRANCH  14  15
HETATM   15  N3  UNL     1      22.092  51.371   5.498  1.00  0.00    -0.293 N
ATOM     16  H3  UNL     1      21.321  51.711   6.072  1.00  0.00     0.187 HD
BRANCH  15  17
HETATM   17  N4  UNL     1      23.237  52.126   5.363  1.00  0.00    -0.271 N
ATOM     18  H4  UNL     1      23.712  52.180   4.463  1.00  0.00     0.190 HD
BRANCH  17  19
HETATM   19  C10 UNL     1      23.752  52.828   6.483  1.00  0.00     0.190 C
HETATM   20  N5  UNL     1      23.871  52.353   7.676  1.00  0.00    -0.360 N
HETATM   21  C11 UNL     1      24.430  53.341   8.558  1.00  0.00     0.142 C
ATOM     22  H5  UNL     1      23.606  51.409   7.955  1.00  0.00     0.162 HD
HETATM   23  C12 UNL     1      24.222  54.637   7.814  1.00  0.00     0.142 C
HETATM   24  N6  UNL     1      24.209  54.174   6.449  1.00  0.00    -0.360 N
ATOM     25  H6  UNL     1      24.474  54.708   5.621  1.00  0.00     0.162 HD
ENDBRANCH  17  19
ENDBRANCH  15  17
ENDBRANCH  14  15
ENDBRANCH  12  14
ENDBRANCH   9  12
ENDBRANCH   4   9
BRANCH   1  26
HETATM   26  C5  UNL     1      23.882  43.643   7.748  1.00  0.00     0.118 C
BRANCH  26  27
HETATM   27  C3  UNL     1      22.408  43.322   8.015  1.00  0.00     0.086 C
HETATM   28  C4  UNL     1      21.980  43.979   9.293  1.00  0.00     0.049 C
BRANCH  27  29
HETATM   29  C2  UNL     1      22.181  41.844   8.006  1.00  0.00     0.148 C
HETATM   30  C1  UNL     1      21.054  41.420   8.906  1.00  0.00     0.042 C
BRANCH  29  31
HETATM   31  O1  UNL     1      23.343  41.226   8.485  1.00  0.00    -0.393 OA
ATOM     32  H1  UNL     1      23.513  41.584   9.349  1.00  0.00     0.210 HD
ENDBRANCH  29  31
ENDBRANCH  27  29
BRANCH  27  33
HETATM   33  O2  UNL     1      21.682  43.900   6.976  1.00  0.00    -0.387 OA
ATOM     34  H2  UNL     1      20.778  43.614   7.034  1.00  0.00     0.210 HD
ENDBRANCH  27  33
ENDBRANCH  26  27
ENDBRANCH   1  26
TORSDOF 11
ENDMDL