MODEL 2
REMARK VINA RESULT: -8.587555188      3.124      5.486
REMARK  12 active torsions:
REMARK  status: ('A' for Active; 'I' for Inactive)
REMARK    1  A    between atoms: O1_2  and  C2_3
REMARK    2  A    between atoms: C2_3  and  C3_5
REMARK    3  A    between atoms: C3_5  and  C4_6
REMARK    4  A    between atoms: C3_5  and  S1_23
REMARK    5  A    between atoms: C4_6  and  O3_7
REMARK    6  A    between atoms: C4_6  and  C5_9
REMARK    7  A    between atoms: C5_9  and  O4_10
REMARK    8  A    between atoms: C5_9  and  C6_12
REMARK    9  A    between atoms: C6_12  and  O5_13
REMARK   10  A    between atoms: C8_16  and  O6_17
REMARK   11  A    between atoms: S1_23  and  O9_26
REMARK   12  A    between atoms: O9_26  and  C10_27
ROOT
HETATM    1  C4  UNL     1      22.188  45.599   6.780  1.00  0.00     0.182 C
ENDROOT
BRANCH   1   2
HETATM    2  C3  UNL     1      22.341  46.711   5.815  1.00  0.00     0.267 C
BRANCH   2   3
HETATM    3  C2  UNL     1      21.091  47.272   5.266  1.00  0.00     0.282 C
HETATM    4  O2  UNL     1      20.084  47.406   6.016  1.00  0.00    -0.264 OA
BRANCH   3   5
HETATM    5  O1  UNL     1      20.946  47.668   3.950  1.00  0.00    -0.325 OA
HETATM    6  C1  UNL     1      20.472  48.946   3.561  1.00  0.00     0.213 C
ENDBRANCH   3   5
ENDBRANCH   2   3
BRANCH   2   7
HETATM    7  S1  UNL     1      23.322  48.074   6.397  1.00  0.00     0.286 S
HETATM    8  O7  UNL     1      24.784  47.896   6.137  1.00  0.00    -0.197 OA
HETATM    9  O8  UNL     1      23.194  48.018   7.922  1.00  0.00    -0.197 OA
BRANCH   7  10
HETATM   10  O9  UNL     1      22.710  49.570   5.943  1.00  0.00    -0.232 OA
BRANCH  10  11
HETATM   11  C10 UNL     1      23.267  50.790   6.283  1.00  0.00     0.089 A
HETATM   12  C11 UNL     1      23.902  51.005   7.497  1.00  0.00     0.038 A
HETATM   13  C12 UNL     1      24.456  52.229   7.833  1.00  0.00     0.003 A
HETATM   14  C13 UNL     1      24.390  53.286   6.948  1.00  0.00     0.000 A
HETATM   15  C14 UNL     1      23.759  53.079   5.736  1.00  0.00     0.003 A
HETATM   16  C15 UNL     1      23.204  51.860   5.398  1.00  0.00     0.038 A
ENDBRANCH  10  11
ENDBRANCH   7  10
ENDBRANCH   2   7
ENDBRANCH   1   2
BRANCH   1  17
HETATM   17  O3  UNL     1      21.314  44.605   6.350  1.00  0.00    -0.391 OA
ATOM     18  H3  UNL     1      20.739  44.284   7.034  1.00  0.00     0.210 HD
ENDBRANCH   1  17
BRANCH   1  19
HETATM   19  C5  UNL     1      23.461  44.996   7.300  1.00  0.00     0.212 C
BRANCH  19  20
HETATM   20  O4  UNL     1      23.852  43.875   6.575  1.00  0.00    -0.388 OA
ATOM     21  H4  UNL     1      24.345  43.256   7.102  1.00  0.00     0.210 HD
ENDBRANCH  19  20
BRANCH  19  22
HETATM   22  C6  UNL     1      23.267  44.526   8.750  1.00  0.00     0.255 C
HETATM   23  C7  UNL     1      23.835  43.143   8.942  1.00  0.00     0.105 C
HETATM   24  C8  UNL     1      22.861  42.535   9.930  1.00  0.00     0.148 C
HETATM   25  C9  UNL     1      21.538  43.118   9.418  1.00  0.00     0.267 C
HETATM   26  N1  UNL     1      21.866  44.471   9.028  1.00  0.00    -0.038 N
ATOM     27  H12 UNL     1      21.574  45.162   9.719  1.00  0.00     0.281 HD
ATOM     28  H11 UNL     1      21.296  44.805   8.251  1.00  0.00     0.281 HD
BRANCH  22  29
HETATM   29  O5  UNL     1      23.900  45.375   9.642  1.00  0.00    -0.363 OA
ATOM     30  H5  UNL     1      23.354  45.547  10.400  1.00  0.00     0.212 HD
ENDBRANCH  22  29
BRANCH  24  31
HETATM   31  O6  UNL     1      23.101  42.914  11.232  1.00  0.00    -0.394 OA
ATOM     32  H6  UNL     1      22.306  43.077  11.726  1.00  0.00     0.210 HD
ENDBRANCH  24  31
ENDBRANCH  19  22
ENDBRANCH   1  19
TORSDOF 12
ENDMDL