MODEL 4
REMARK VINA RESULT: -5.905558121      2.079      3.227
REMARK  6 active torsions:
REMARK  status: ('A' for Active; 'I' for Inactive)
REMARK    1  A    between atoms: C3_4  and  C4_5
REMARK    2  A    between atoms: C8_10  and  O3_11
REMARK    3  A    between atoms: C9_13  and  O4_14
REMARK    4  A    between atoms: C10_16  and  O5_17
REMARK    5  A    between atoms: C11_19  and  O6_20
REMARK    6  A    between atoms: C12_22  and  O7_23
ROOT
HETATM    1  C4  UNL     1      -0.506  27.489  -2.227  1.00  0.00     0.185 C
HETATM    2  O2  UNL     1       0.367  28.510  -2.492  1.00  0.00    -0.368 OA
HETATM    3  C5  UNL     1       1.176  28.875  -1.443  1.00  0.00     0.083 C
HETATM    4  C6  UNL     1       2.238  29.820  -1.997  1.00  0.00     0.048 C
HETATM    5  C7  UNL     1       0.399  29.665  -0.381  1.00  0.00     0.048 C
HETATM    6  C8  UNL     1       1.894  27.705  -0.809  1.00  0.00     0.183 C
HETATM    7  C9  UNL     1       1.602  26.399  -1.477  1.00  0.00     0.181 C
HETATM    8  C10 UNL     1       0.164  26.198  -1.826  1.00  0.00     0.181 C
ENDROOT
BRANCH   1   9
HETATM    9  C3  UNL     1      -1.315  27.228  -3.484  1.00  0.00     0.185 C
HETATM   10  O1  UNL     1      -0.725  27.750  -4.605  1.00  0.00    -0.373 OA
HETATM   11  C2  UNL     1      -0.924  26.915  -5.664  1.00  0.00     0.149 C
HETATM   12  C1  UNL     1       0.406  26.544  -6.306  1.00  0.00     0.042 C
HETATM   13  C12 UNL     1      -1.634  25.685  -5.202  1.00  0.00     0.178 C
HETATM   14  C11 UNL     1      -1.417  25.717  -3.720  1.00  0.00     0.180 C
BRANCH  13  15
HETATM   15  O7  UNL     1      -3.011  25.742  -5.474  1.00  0.00    -0.390 OA
ATOM     16  H7  UNL     1      -3.191  26.149  -6.314  1.00  0.00     0.210 HD
ENDBRANCH  13  15
BRANCH  14  17
HETATM   17  O6  UNL     1      -2.419  25.139  -2.984  1.00  0.00    -0.390 OA
ATOM     18  H6  UNL     1      -3.281  25.316  -3.342  1.00  0.00     0.210 HD
ENDBRANCH  14  17
ENDBRANCH   1   9
BRANCH   8  19
HETATM   19  O5  UNL     1      -0.478  25.604  -0.719  1.00  0.00    -0.390 OA
ATOM     20  H5  UNL     1      -0.555  24.663  -0.824  1.00  0.00     0.210 HD
ENDBRANCH   8  19
BRANCH   7  21
HETATM   21  O4  UNL     1       2.366  26.201  -2.636  1.00  0.00    -0.390 OA
ATOM     22  H4  UNL     1       3.154  25.696  -2.474  1.00  0.00     0.210 HD
ENDBRANCH   7  21
BRANCH   6  23
HETATM   23  O3  UNL     1       1.605  27.619   0.572  1.00  0.00    -0.390 OA
ATOM     24  H3  UNL     1       0.876  27.030   0.733  1.00  0.00     0.210 HD
ENDBRANCH   6  23
TORSDOF 6
ENDMDL