MODEL 2
REMARK VINA RESULT: -6.441950289      2.316      5.160
REMARK  7 active torsions:
REMARK  status: ('A' for Active; 'I' for Inactive)
REMARK    1  A    between atoms: N1_2  and  C2_4
REMARK    2  A    between atoms: C2_4  and  N2_6
REMARK    3  A    between atoms: N2_6  and  C3_8
REMARK    4  A    between atoms: C5_10  and  N3_11
REMARK    5  A    between atoms: C8_18  and  O1_19
REMARK    6  A    between atoms: C9_21  and  O2_22
REMARK    7  A    between atoms: C10_24  and  O3_25
ROOT
HETATM    1  C3  UNL     1      -0.624  27.250  -3.201  1.00  0.00     0.041 C
HETATM    2  C4  UNL     1       0.368  27.705  -3.960  1.00  0.00     0.029 C
HETATM    3  C5  UNL     1       1.766  27.757  -3.475  1.00  0.00     0.147 C
HETATM    4  C8  UNL     1       1.885  28.078  -2.018  1.00  0.00     0.176 C
HETATM    5  C9  UNL     1       0.678  27.807  -1.177  1.00  0.00     0.183 C
HETATM    6  C10 UNL     1      -0.274  26.812  -1.860  1.00  0.00     0.198 C
ENDROOT
BRANCH   1   7
HETATM    7  N2  UNL     1      -1.916  27.233  -3.728  1.00  0.00    -0.335 N
ATOM      8  H2  UNL     1      -2.545  27.959  -3.386  1.00  0.00     0.168 HD
BRANCH   7   9
HETATM    9  C2  UNL     1      -2.460  26.344  -4.669  1.00  0.00     0.171 C
HETATM   10  S1  UNL     1      -2.738  24.809  -4.242  1.00  0.00    -0.041 SA
BRANCH   9  11
HETATM   11  N1  UNL     1      -2.769  26.766  -5.977  1.00  0.00    -0.371 N
HETATM   12  C1  UNL     1      -4.128  26.807  -6.494  1.00  0.00     0.148 C
ATOM     13  H1  UNL     1      -2.006  27.055  -6.588  1.00  0.00     0.161 HD
ENDBRANCH   9  11
ENDBRANCH   7   9
ENDBRANCH   1   7
BRANCH   6  14
HETATM   14  O3  UNL     1       0.322  25.551  -1.864  1.00  0.00    -0.387 OA
ATOM     15  H3  UNL     1      -0.315  24.858  -1.743  1.00  0.00     0.210 HD
ENDBRANCH   6  14
BRANCH   3  16
HETATM   16  N3  UNL     1       2.512  28.659  -4.316  1.00  0.00    -0.326 N
HETATM   17  C6  UNL     1       2.196  29.913  -4.682  1.00  0.00     0.201 A
HETATM   18  N4  UNL     1       3.160  30.419  -5.477  1.00  0.00    -0.295 N
HETATM   19  N5  UNL     1       4.067  29.475  -5.598  1.00  0.00    -0.295 N
ATOM     20  H4  UNL     1       3.182  31.347  -5.900  1.00  0.00     0.187 HD
HETATM   21  C7  UNL     1       3.689  28.394  -4.898  1.00  0.00     0.201 A
ATOM     22  H5  UNL     1       4.927  29.552  -6.142  1.00  0.00     0.187 HD
ENDBRANCH   3  16
BRANCH   5  23
HETATM   23  O2  UNL     1       0.000  28.959  -0.791  1.00  0.00    -0.390 OA
ATOM     24  H2  UNL     1      -0.903  28.983  -1.082  1.00  0.00     0.210 HD
ENDBRANCH   5  23
BRANCH   4  25
HETATM   25  O1  UNL     1       2.214  29.441  -1.889  1.00  0.00    -0.390 OA
ATOM     26  H1  UNL     1       3.016  29.509  -1.385  1.00  0.00     0.210 HD
ENDBRANCH   4  25
TORSDOF 7
ENDMDL