MODEL 2
REMARK VINA RESULT: -6.973180196      1.128      1.167
REMARK  4 active torsions:
REMARK  status: ('A' for Active; 'I' for Inactive)
REMARK    1  A    between atoms: C2_3  and  C3_4
REMARK    2  A    between atoms: C7_10  and  O1_11
REMARK    3  A    between atoms: C8_15  and  N5_16
REMARK    4  A    between atoms: C9_19  and  N6_20
REMARK       I    between atoms: N6_20  and  C10_22
REMARK       I    between atoms: C10_22  and  N8_26
ROOT
HETATM    1  C3  UNL     1       3.312  28.712  -4.844  1.00  0.00     0.068 C
HETATM    2  C4  UNL     1       3.554  29.778  -5.540  1.00  0.00     0.127 C
HETATM    3  C5  UNL     1       2.604  30.776  -5.891  1.00  0.00     0.111 C
HETATM    4  N2  UNL     1       1.837  31.595  -6.207  1.00  0.00    -0.191 NA
HETATM    5  C6  UNL     1       4.923  29.983  -6.013  1.00  0.00     0.111 C
HETATM    6  N3  UNL     1       5.992  30.150  -6.396  1.00  0.00    -0.191 NA
ENDROOT
BRANCH   1   7
HETATM    7  C2  UNL     1       2.017  28.343  -4.286  1.00  0.00     0.089 A
HETATM    8  N1  UNL     1       1.197  27.590  -5.046  1.00  0.00    -0.331 N
HETATM    9  C1  UNL     1       1.667  27.242  -6.396  1.00  0.00     0.158 C
HETATM   10  C9  UNL     1      -0.005  27.158  -4.622  1.00  0.00     0.167 A
HETATM   11  C8  UNL     1      -0.418  27.503  -3.345  1.00  0.00     0.146 A
HETATM   12  N4  UNL     1       0.382  28.250  -2.570  1.00  0.00    -0.319 N
HETATM   13  C7  UNL     1       1.589  28.670  -3.029  1.00  0.00     0.169 A
ATOM     14  H4  UNL     1       0.081  28.506  -1.630  1.00  0.00     0.169 HD
BRANCH  10  15
HETATM   15  N6  UNL     1      -0.675  26.460  -5.434  1.00  0.00    -0.172 N
HETATM   16  C10 UNL     1      -1.768  26.810  -6.231  1.00  0.00     0.686 C
HETATM   17  N7  UNL     1      -1.565  27.216  -7.431  1.00  0.00    -0.234 N
HETATM   18  N8  UNL     1      -3.106  26.734  -5.771  1.00  0.00    -0.126 N
ATOM     19  H72 UNL     1      -0.603  27.270  -7.762  1.00  0.00     0.174 HD
ATOM     20  H71 UNL     1      -2.363  27.470  -8.013  1.00  0.00     0.174 HD
HETATM   21  C11 UNL     1      -4.184  26.726  -6.660  1.00  0.00     0.196 C
ATOM     22  H8  UNL     1      -3.286  26.684  -4.768  1.00  0.00     0.197 HD
HETATM   23  N9  UNL     1      -5.081  26.702  -7.404  1.00  0.00    -0.171 NA
ATOM     24  H6  UNL     1      -0.370  25.491  -5.521  1.00  0.00     0.186 HD
ENDBRANCH  10  15
BRANCH  11  25
HETATM   25  N5  UNL     1      -1.576  27.091  -2.929  1.00  0.00    -0.382 N
ATOM     26  H52 UNL     1      -2.380  27.712  -3.020  1.00  0.00     0.157 HD
ATOM     27  H51 UNL     1      -1.697  26.167  -2.515  1.00  0.00     0.157 HD
ENDBRANCH  11  25
BRANCH  13  28
HETATM   28  O1  UNL     1       2.407  29.435  -2.215  1.00  0.00    -0.344 OA
ATOM     29  H1  UNL     1       2.030  30.159  -1.730  1.00  0.00     0.219 HD
ENDBRANCH  13  28
ENDBRANCH   1   7
TORSDOF 4
ENDMDL