MODEL 4
REMARK VINA RESULT: -4.961933960      2.684      4.701
REMARK  6 active torsions:
REMARK  status: ('A' for Active; 'I' for Inactive)
REMARK    1  A    between atoms: N1_2  and  C2_4
REMARK    2  A    between atoms: C2_4  and  O1_5
REMARK    3  A    between atoms: C3_7  and  N2_8
REMARK    4  A    between atoms: C6_16  and  O4_17
REMARK    5  A    between atoms: C8_19  and  O5_20
REMARK    6  A    between atoms: C9_22  and  O6_23
ROOT
HETATM    1  C2  UNL     1       1.448  28.579  -5.732  1.00  0.00     0.166 C
HETATM    2  C3  UNL     1       2.394  27.415  -5.775  1.00  0.00     0.262 C
HETATM    3  C4  UNL     1       2.744  27.056  -4.366  1.00  0.00     0.209 C
HETATM    4  O2  UNL     1       1.758  26.955  -3.485  1.00  0.00    -0.350 OA
HETATM    5  C5  UNL     1       0.563  27.526  -3.655  1.00  0.00     0.203 C
HETATM    6  O3  UNL     1       0.404  28.471  -2.608  1.00  0.00    -0.319 OA
HETATM    7  C6  UNL     1       0.704  27.704  -1.509  1.00  0.00     0.294 C
HETATM    8  C8  UNL     1      -0.187  26.492  -1.688  1.00  0.00     0.207 C
HETATM    9  C9  UNL     1      -0.485  26.502  -3.194  1.00  0.00     0.214 C
HETATM   10  C10 UNL     1       0.232  28.160  -4.940  1.00  0.00     0.104 C
HETATM   11  C11 UNL     1      -0.678  27.332  -5.828  1.00  0.00     0.021 C
ENDROOT
BRANCH   9  12
HETATM   12  O6  UNL     1      -1.765  26.908  -3.457  1.00  0.00    -0.387 OA
ATOM     13  H6  UNL     1      -2.266  26.251  -3.925  1.00  0.00     0.210 HD
ENDBRANCH   9  12
BRANCH   7  14
HETATM   14  O4  UNL     1       0.353  28.292  -0.300  1.00  0.00    -0.363 OA
HETATM   15  C7  UNL     1       1.309  29.205   0.131  1.00  0.00     0.204 C
ENDBRANCH   7  14
BRANCH   8  16
HETATM   16  O5  UNL     1       0.569  25.375  -1.337  1.00  0.00    -0.388 OA
ATOM     17  H5  UNL     1       0.434  24.724  -2.016  1.00  0.00     0.210 HD
ENDBRANCH   8  16
BRANCH   1  18
HETATM   18  N1  UNL     1       1.178  29.039  -7.033  1.00  0.00    -0.394 N
HETATM   19  C1  UNL     1       2.189  29.769  -7.691  1.00  0.00     0.143 C
ATOM     20  H1  UNL     1       0.283  28.851  -7.485  1.00  0.00     0.155 HD
ENDBRANCH   1  18
BRANCH   1  21
HETATM   21  O1  UNL     1       2.070  29.600  -5.003  1.00  0.00    -0.368 OA
ATOM     22  H1  UNL     1       2.988  29.384  -4.884  1.00  0.00     0.212 HD
ENDBRANCH   1  21
BRANCH   2  23
HETATM   23  N2  UNL     1       1.928  26.309  -6.555  1.00  0.00    -0.068 N
ATOM     24  H23 UNL     1       2.253  26.389  -7.519  1.00  0.00     0.275 HD
ATOM     25  H22 UNL     1       2.408  25.451  -6.281  1.00  0.00     0.275 HD
ATOM     26  H21 UNL     1       0.917  26.175  -6.529  1.00  0.00     0.275 HD
ENDBRANCH   2  23
TORSDOF 6
ENDMDL