MODEL 4
REMARK VINA RESULT: -5.852963990      3.196      6.556
REMARK  8 active torsions:
REMARK  status: ('A' for Active; 'I' for Inactive)
REMARK    1  A    between atoms: C2_2  and  O1_3
REMARK    2  A    between atoms: C2_2  and  C3_5
REMARK    3  A    between atoms: C3_5  and  O2_6
REMARK    4  A    between atoms: O2_6  and  C4_7
REMARK    5  A    between atoms: C7_12  and  O5_13
REMARK    6  A    between atoms: C8_15  and  O6_16
REMARK    7  A    between atoms: C9_18  and  O7_20
REMARK    8  A    between atoms: C11_22  and  O8_23
ROOT
HETATM    1  C4  UNL     1      -1.053  25.889  -4.857  1.00  0.00     0.414 C
HETATM    2  O3  UNL     1      -0.413  26.558  -3.822  1.00  0.00    -0.336 OA
HETATM    3  C5  UNL     1       0.041  27.711  -4.504  1.00  0.00     0.217 C
HETATM    4  C6  UNL     1       0.497  27.125  -5.804  1.00  0.00     0.144 C
HETATM    5  O4  UNL     1      -0.061  25.837  -5.829  1.00  0.00    -0.320 OA
HETATM    6  C7  UNL     1       1.989  27.104  -5.970  1.00  0.00     0.189 C
HETATM    7  C8  UNL     1       2.349  28.473  -6.489  1.00  0.00     0.186 C
HETATM    8  C9  UNL     1       1.218  28.776  -7.425  1.00  0.00     0.111 C
HETATM    9  C10 UNL     1       1.688  28.424  -8.834  1.00  0.00     0.051 C
HETATM   10  C11 UNL     1       0.051  27.931  -7.007  1.00  0.00     0.194 C
ENDROOT
BRANCH   6  11
HETATM   11  O5  UNL     1       2.671  26.777  -4.813  1.00  0.00    -0.390 OA
ATOM     12  H5  UNL     1       3.212  27.483  -4.478  1.00  0.00     0.210 HD
ENDBRANCH   6  11
BRANCH  10  13
HETATM   13  O8  UNL     1      -0.293  27.068  -8.065  1.00  0.00    -0.389 OA
ATOM     14  H8  UNL     1      -0.459  26.194  -7.731  1.00  0.00     0.210 HD
ENDBRANCH  10  13
BRANCH   1  15
HETATM   15  O2  UNL     1      -1.580  24.684  -4.522  1.00  0.00    -0.337 OA
BRANCH  15  16
HETATM   16  C3  UNL     1      -2.900  24.650  -4.183  1.00  0.00     0.204 C
BRANCH  16  17
HETATM   17  C2  UNL     1      -3.776  25.608  -4.933  1.00  0.00     0.138 C
HETATM   18  C1  UNL     1      -5.049  24.971  -5.432  1.00  0.00     0.041 C
BRANCH  17  19
HETATM   19  O1  UNL     1      -4.142  26.655  -4.076  1.00  0.00    -0.394 OA
ATOM     20  H1  UNL     1      -3.506  27.351  -4.194  1.00  0.00     0.210 HD
ENDBRANCH  17  19
ENDBRANCH  16  17
ENDBRANCH  15  16
ENDBRANCH   1  15
BRANCH   7  21
HETATM   21  O6  UNL     1       2.427  29.421  -5.474  1.00  0.00    -0.390 OA
ATOM     22  H6  UNL     1       1.830  30.147  -5.611  1.00  0.00     0.210 HD
ENDBRANCH   7  21
BRANCH   8  23
HETATM   23  O7  UNL     1       0.898  30.128  -7.368  1.00  0.00    -0.385 OA
ATOM     24  H7  UNL     1       0.687  30.378  -6.477  1.00  0.00     0.210 HD
ENDBRANCH   8  23
TORSDOF 8
ENDMDL