MODEL 1
REMARK VINA RESULT: -6.507850016      0.000      0.000
REMARK  9 active torsions:
REMARK  status: ('A' for Active; 'I' for Inactive)
REMARK    1  A    between atoms: C2_2  and  O1_5
REMARK    2  A    between atoms: O1_5  and  C5_6
REMARK    3  A    between atoms: C5_6  and  O2_7
REMARK    4  A    between atoms: C6_10  and  C7_11
REMARK    5  A    between atoms: C7_11  and  C8_13
REMARK    6  A    between atoms: C9_14  and  N1_15
REMARK    7  A    between atoms: C10_18  and  O5_19
REMARK    8  A    between atoms: C11_21  and  O6_22
REMARK    9  A    between atoms: C12_24  and  O7_25
ROOT
HETATM    1  C5  UNL     1       1.475  28.349  -5.773  1.00  0.00     0.311 C
HETATM    2  O3  UNL     1       0.750  28.325  -4.615  1.00  0.00    -0.314 OA
HETATM    3  C6  UNL     1       0.032  27.202  -4.368  1.00  0.00     0.241 C
HETATM    4  C10 UNL     1      -0.820  26.735  -5.524  1.00  0.00     0.187 C
HETATM    5  C11 UNL     1      -0.079  26.810  -6.819  1.00  0.00     0.186 C
HETATM    6  C12 UNL     1       0.495  28.206  -6.947  1.00  0.00     0.242 C
ENDROOT
BRANCH   1   7
HETATM    7  O1  UNL     1       2.066  29.574  -5.901  1.00  0.00    -0.321 OA
BRANCH   7   8
HETATM    8  C2  UNL     1       3.140  29.831  -5.116  1.00  0.00     0.056 C
HETATM    9  C1  UNL     1       2.863  29.963  -3.649  1.00  0.00     0.045 C
HETATM   10  C3  UNL     1       3.704  31.191  -5.563  1.00  0.00     0.045 C
HETATM   11  C4  UNL     1       4.250  28.830  -5.350  1.00  0.00     0.045 C
ENDBRANCH   7   8
ENDBRANCH   1   7
BRANCH   1  12
HETATM   12  O2  UNL     1       2.346  27.275  -5.925  1.00  0.00    -0.341 OA
ATOM     13  H2  UNL     1       2.975  27.379  -6.628  1.00  0.00     0.215 HD
ENDBRANCH   1  12
BRANCH   6  14
HETATM   14  O7  UNL     1       1.281  28.227  -8.102  1.00  0.00    -0.385 OA
ATOM     15  H7  UNL     1       1.158  29.089  -8.482  1.00  0.00     0.210 HD
ENDBRANCH   6  14
BRANCH   3  16
HETATM   16  C7  UNL     1      -0.882  27.430  -3.223  1.00  0.00     0.235 C
HETATM   17  O4  UNL     1      -2.115  27.283  -3.397  1.00  0.00    -0.280 OA
BRANCH  16  18
HETATM   18  C8  UNL     1      -0.399  27.811  -1.926  1.00  0.00    -0.003 C
HETATM   19  C9  UNL     1      -0.007  28.124  -0.822  1.00  0.00     0.011 C
BRANCH  19  20
HETATM   20  N1  UNL     1       0.440  28.489   0.449  1.00  0.00    -0.359 N
ATOM     21  H12 UNL     1       0.069  28.002  -0.368  1.00  0.00     0.166 HD
ATOM     22  H11 UNL     1       0.767  28.761   1.376  1.00  0.00     0.166 HD
ENDBRANCH  19  20
ENDBRANCH  16  18
ENDBRANCH   3  16
BRANCH   5  23
HETATM   23  O6  UNL     1      -0.894  26.472  -7.873  1.00  0.00    -0.390 OA
ATOM     24  H6  UNL     1      -0.399  26.416  -8.682  1.00  0.00     0.210 HD
ENDBRANCH   5  23
BRANCH   4  25
HETATM   25  O5  UNL     1      -1.156  25.397  -5.261  1.00  0.00    -0.390 OA
ATOM     26  H5  UNL     1      -2.090  25.380  -5.085  1.00  0.00     0.210 HD
ENDBRANCH   4  25
TORSDOF 9
ENDMDL