MODEL 1
REMARK VINA RESULT: -6.612550694      0.000      0.000
REMARK  7 active torsions:
REMARK  status: ('A' for Active; 'I' for Inactive)
REMARK    1  A    between atoms: N1_4  and  C4_6
REMARK    2  A    between atoms: C5_7  and  O1_8
REMARK    3  A    between atoms: C6_10  and  O2_11
REMARK    4  A    between atoms: C7_13  and  O3_14
REMARK    5  A    between atoms: C8_16  and  O4_17
REMARK    6  A    between atoms: C9_19  and  O5_20
REMARK    7  A    between atoms: C9_19  and  C10_22
ROOT
HETATM    1  C4  UNL     1       2.013  28.838  -2.865  1.00  0.00     0.158 C
HETATM    2  C5  UNL     1       1.574  29.626  -1.582  1.00  0.00     0.175 C
HETATM    3  C6  UNL     1       1.643  28.680  -0.437  1.00  0.00     0.180 C
HETATM    4  C7  UNL     1       0.632  27.565  -0.572  1.00  0.00     0.181 C
HETATM    5  C8  UNL     1      -0.019  27.688  -1.921  1.00  0.00     0.194 C
HETATM    6  C9  UNL     1       1.120  27.692  -2.964  1.00  0.00     0.173 C
ENDROOT
BRANCH   6   7
HETATM    7  O5  UNL     1       1.879  26.529  -2.579  1.00  0.00    -0.377 OA
ATOM      8  H5  UNL     1       1.288  25.785  -2.617  1.00  0.00     0.211 HD
ENDBRANCH   6   7
BRANCH   6   9
HETATM    9  C10 UNL     1       0.490  27.372  -4.241  1.00  0.00     0.162 A
HETATM   10  N2  UNL     1      -0.745  27.449  -4.720  1.00  0.00    -0.346 N
HETATM   11  C11 UNL     1      -0.745  27.003  -5.992  1.00  0.00     0.114 A
ATOM     12  H2  UNL     1      -1.559  27.790  -4.210  1.00  0.00     0.167 HD
HETATM   13  C12 UNL     1       0.537  26.656  -6.271  1.00  0.00     0.161 A
HETATM   14  O6  UNL     1       1.232  26.883  -5.227  1.00  0.00    -0.305 OA
ENDBRANCH   6   9
BRANCH   1  15
HETATM   15  N1  UNL     1       2.177  29.762  -3.866  1.00  0.00    -0.386 N
HETATM   16  C2  UNL     1       2.990  29.824  -4.835  1.00  0.00    -0.025 C
HETATM   17  C1  UNL     1       3.979  28.720  -5.003  1.00  0.00     0.062 C
HETATM   18  C3  UNL     1       2.993  30.990  -5.795  1.00  0.00     0.062 C
ATOM     19  H1  UNL     1       1.524  30.544  -3.821  1.00  0.00     0.159 HD
ENDBRANCH   1  15
BRANCH   5  20
HETATM   20  O4  UNL     1      -0.666  26.443  -2.165  1.00  0.00    -0.389 OA
ATOM     21  H4  UNL     1      -0.141  25.994  -2.818  1.00  0.00     0.210 HD
ENDBRANCH   5  20
BRANCH   2  22
HETATM   22  O1  UNL     1       2.527  30.618  -1.458  1.00  0.00    -0.391 OA
ATOM     23  H1  UNL     1       2.057  31.338  -1.055  1.00  0.00     0.210 HD
ENDBRANCH   2  22
BRANCH   4  24
HETATM   24  O3  UNL     1      -0.351  27.638   0.418  1.00  0.00    -0.390 OA
ATOM     25  H3  UNL     1      -0.938  26.892   0.384  1.00  0.00     0.210 HD
ENDBRANCH   4  24
BRANCH   3  26
HETATM   26  O2  UNL     1       2.916  28.116  -0.432  1.00  0.00    -0.390 OA
ATOM     27  H2  UNL     1       2.818  27.188  -0.253  1.00  0.00     0.210 HD
ENDBRANCH   3  26
TORSDOF 7
ENDMDL