MODEL 1
REMARK VINA RESULT: -6.928994560      0.000      0.000
REMARK  7 active torsions:
REMARK  status: ('A' for Active; 'I' for Inactive)
REMARK       I    between atoms: C2_2  and  N1_4
REMARK    1  A    between atoms: N1_4  and  C3_6
REMARK    2  A    between atoms: C3_6  and  O2_7
REMARK    3  A    between atoms: O2_7  and  N2_8
REMARK    4  A    between atoms: C4_11  and  O3_12
REMARK    5  A    between atoms: C9_19  and  C10_20
REMARK    6  A    between atoms: N4_21  and  O4_23
REMARK    7  A    between atoms: C11_25  and  O5_26
ROOT
HETATM    1  C3  UNL     1       0.538  27.578  -2.832  1.00  0.00     0.216 C
HETATM    2  C4  UNL     1       1.266  28.264  -3.927  1.00  0.00     0.196 C
HETATM    3  C5  UNL     1       1.230  27.359  -5.146  1.00  0.00     0.131 C
HETATM    4  C6  UNL     1       1.836  28.152  -6.246  1.00  0.00     0.067 C
HETATM    5  N3  UNL     1       2.309  28.760  -7.105  1.00  0.00    -0.197 NA
HETATM    6  C7  UNL     1      -0.093  26.825  -5.510  1.00  0.00     0.013 C
HETATM    7  C8  UNL     1      -0.502  27.209  -6.943  1.00  0.00     0.012 C
HETATM    8  C9  UNL     1      -1.223  27.119  -4.613  1.00  0.00     0.065 C
HETATM    9  C11 UNL     1      -0.953  27.556  -3.244  1.00  0.00     0.188 C
ENDROOT
BRANCH   2  10
HETATM   10  O3  UNL     1       2.606  28.437  -3.646  1.00  0.00    -0.389 OA
ATOM     11  H3  UNL     1       3.134  27.695  -3.917  1.00  0.00     0.210 HD
ENDBRANCH   2  10
BRANCH   1  12
HETATM   12  N1  UNL     1       0.593  28.322  -1.611  1.00  0.00    -0.323 N
HETATM   13  C2  UNL     1       1.537  28.391  -0.590  1.00  0.00     0.216 C
HETATM   14  C1  UNL     1       1.283  29.307   0.595  1.00  0.00     0.117 C
HETATM   15  O1  UNL     1       2.598  27.763  -0.541  1.00  0.00    -0.274 OA
ATOM     16  H1  UNL     1      -0.219  28.919  -1.458  1.00  0.00     0.165 HD
ENDBRANCH   1  12
BRANCH   1  17
HETATM   17  O2  UNL     1       0.860  26.238  -2.712  1.00  0.00    -0.249 OA
BRANCH  17  18
HETATM   18  N2  UNL     1       0.682  25.718  -1.519  1.00  0.00    -0.308 N
ATOM     19  H22 UNL     1       1.470  25.393  -0.958  1.00  0.00     0.184 HD
ATOM     20  H21 UNL     1      -0.286  25.666  -1.202  1.00  0.00     0.184 HD
ENDBRANCH  17  18
ENDBRANCH   1  17
BRANCH   8  21
HETATM   21  C10 UNL     1      -2.143  25.921  -4.536  1.00  0.00     0.094 C
HETATM   22  N4  UNL     1      -1.667  24.782  -4.238  1.00  0.00    -0.284 N
ATOM     23  H4  UNL     1      -0.668  24.692  -4.054  1.00  0.00     0.192 HD
BRANCH  22  24
HETATM   24  O4  UNL     1      -2.457  23.683  -4.160  1.00  0.00    -0.291 OA
ATOM     25  H4  UNL     1      -2.914  23.346  -4.921  1.00  0.00     0.244 HD
ENDBRANCH  22  24
ENDBRANCH   8  21
BRANCH   9  26
HETATM   26  O5  UNL     1      -1.566  26.760  -2.262  1.00  0.00    -0.390 OA
ATOM     27  H5  UNL     1      -1.073  25.948  -2.284  1.00  0.00     0.210 HD
ENDBRANCH   9  26
TORSDOF 7
ENDMDL