MODEL 2
REMARK VINA RESULT: -5.744017749      1.747      4.889
REMARK  9 active torsions:
REMARK  status: ('A' for Active; 'I' for Inactive)
REMARK    1  A    between atoms: C2_2  and  O1_3
REMARK    2  A    between atoms: C2_2  and  C3_5
REMARK    3  A    between atoms: C3_5  and  O2_6
REMARK    4  A    between atoms: C4_8  and  O3_9
REMARK    5  A    between atoms: C5_11  and  N1_12
REMARK    6  A    between atoms: C6_16  and  O4_17
REMARK    7  A    between atoms: C7_19  and  O5_20
REMARK    8  A    between atoms: O5_20  and  C8_21
REMARK    9  A    between atoms: C12_25  and  O6_26
ROOT
HETATM    1  C3  UNL     1       1.922  27.599  -5.078  1.00  0.00     0.139 C
HETATM    2  C4  UNL     1       0.516  27.104  -5.087  1.00  0.00     0.190 C
HETATM    3  C5  UNL     1      -0.076  26.886  -3.722  1.00  0.00     0.246 C
HETATM    4  C6  UNL     1       1.106  26.502  -2.821  1.00  0.00     0.182 C
HETATM    5  C7  UNL     1       1.838  27.800  -2.559  1.00  0.00     0.185 C
HETATM    6  C12 UNL     1       2.350  28.336  -3.864  1.00  0.00     0.189 C
ENDROOT
BRANCH   1   7
HETATM    7  C2  UNL     1       2.034  28.520  -6.303  1.00  0.00     0.153 C
HETATM    8  C1  UNL     1       1.737  27.769  -7.564  1.00  0.00     0.042 C
BRANCH   7   9
HETATM    9  O1  UNL     1       3.197  29.241  -6.325  1.00  0.00    -0.393 OA
ATOM     10  H1  UNL     1       3.975  28.750  -6.086  1.00  0.00     0.210 HD
ENDBRANCH   7   9
ENDBRANCH   1   7
BRANCH   1  11
HETATM   11  O2  UNL     1       2.841  26.561  -5.375  1.00  0.00    -0.382 OA
ATOM     12  H2  UNL     1       2.305  25.779  -5.316  1.00  0.00     0.211 HD
ENDBRANCH   1  11
BRANCH   2  13
HETATM   13  O3  UNL     1      -0.359  27.885  -5.840  1.00  0.00    -0.390 OA
ATOM     14  H3  UNL     1      -1.160  28.117  -5.386  1.00  0.00     0.210 HD
ENDBRANCH   2  13
BRANCH   6  15
HETATM   15  O6  UNL     1       2.076  29.718  -3.953  1.00  0.00    -0.390 OA
ATOM     16  H6  UNL     1       2.460  30.209  -3.236  1.00  0.00     0.210 HD
ENDBRANCH   6  15
BRANCH   3  17
HETATM   17  N1  UNL     1      -1.104  25.881  -3.695  1.00  0.00    -0.070 N
ATOM     18  H13 UNL     1      -1.899  26.192  -3.136  1.00  0.00     0.274 HD
ATOM     19  H12 UNL     1      -1.557  25.803  -4.606  1.00  0.00     0.274 HD
ATOM     20  H11 UNL     1      -0.775  24.969  -3.378  1.00  0.00     0.274 HD
ENDBRANCH   3  17
BRANCH   5  21
HETATM   21  O5  UNL     1       0.956  28.699  -2.037  1.00  0.00    -0.371 OA
BRANCH  21  22
HETATM   22  C8  UNL     1       1.194  29.174  -0.795  1.00  0.00     0.051 C
HETATM   23  C9  UNL     1       2.293  28.478  -0.021  1.00  0.00     0.045 C
HETATM   24  C10 UNL     1      -0.087  28.954   0.027  1.00  0.00     0.045 C
HETATM   25  C11 UNL     1       1.477  30.656  -0.715  1.00  0.00     0.045 C
ENDBRANCH  21  22
ENDBRANCH   5  21
BRANCH   4  26
HETATM   26  O4  UNL     1       0.574  25.916  -1.704  1.00  0.00    -0.391 OA
ATOM     27  H4  UNL     1       1.296  25.507  -1.240  1.00  0.00     0.210 HD
ENDBRANCH   4  26
TORSDOF 9
ENDMDL