MODEL 3
REMARK VINA RESULT: -6.026673221      1.773      5.130
REMARK  6 active torsions:
REMARK  status: ('A' for Active; 'I' for Inactive)
REMARK    1  A    between atoms: C2_2  and  O1_4
REMARK    2  A    between atoms: O1_4  and  C4_5
REMARK    3  A    between atoms: C5_6  and  O2_7
REMARK    4  A    between atoms: C10_15  and  O5_16
REMARK    5  A    between atoms: C11_18  and  O6_19
REMARK    6  A    between atoms: C12_21  and  O7_22
ROOT
HETATM    1  C4  UNL     1       2.100  28.064  -3.354  1.00  0.00     0.218 C
HETATM    2  C5  UNL     1       2.300  29.589  -3.469  1.00  0.00     0.181 C
HETATM    3  C6  UNL     1       2.549  29.597  -4.987  1.00  0.00     0.152 C
HETATM    4  C7  UNL     1       2.710  30.960  -5.533  1.00  0.00     0.042 C
HETATM    5  O3  UNL     1       1.402  28.942  -5.415  1.00  0.00    -0.343 OA
HETATM    6  C8  UNL     1       1.323  27.799  -4.586  1.00  0.00     0.223 C
HETATM    7  O4  UNL     1       1.879  26.763  -5.337  1.00  0.00    -0.348 OA
HETATM    8  C9  UNL     1       1.381  26.827  -6.623  1.00  0.00     0.206 C
HETATM    9  C10 UNL     1      -0.068  26.423  -6.597  1.00  0.00     0.173 C
HETATM   10  C11 UNL     1      -0.818  27.407  -5.723  1.00  0.00     0.183 C
HETATM   11  C12 UNL     1      -0.160  27.549  -4.362  1.00  0.00     0.214 C
ENDROOT
BRANCH   1  12
HETATM   12  O1  UNL     1       1.554  27.693  -2.165  1.00  0.00    -0.373 OA
BRANCH  12  13
HETATM   13  C2  UNL     1       1.329  28.754  -1.296  1.00  0.00     0.114 C
HETATM   14  C1  UNL     1      -0.125  28.709  -0.878  1.00  0.00     0.039 C
HETATM   15  C3  UNL     1       2.165  28.748  -0.063  1.00  0.00     0.039 C
ENDBRANCH  12  13
ENDBRANCH   1  12
BRANCH  11  16
HETATM   16  O7  UNL     1      -0.401  26.436  -3.588  1.00  0.00    -0.387 OA
ATOM     17  H7  UNL     1       0.388  25.938  -3.407  1.00  0.00     0.210 HD
ENDBRANCH  11  16
BRANCH   2  18
HETATM   18  O2  UNL     1       3.417  30.011  -2.780  1.00  0.00    -0.390 OA
ATOM     19  H2  UNL     1       3.193  30.622  -2.087  1.00  0.00     0.210 HD
ENDBRANCH   2  18
BRANCH  10  20
HETATM   20  O6  UNL     1      -2.120  26.950  -5.530  1.00  0.00    -0.390 OA
ATOM     21  H6  UNL     1      -2.596  27.578  -4.998  1.00  0.00     0.210 HD
ENDBRANCH  10  20
BRANCH   9  22
HETATM   22  O5  UNL     1      -0.173  25.160  -6.026  1.00  0.00    -0.391 OA
ATOM     23  H5  UNL     1      -1.079  25.006  -5.784  1.00  0.00     0.210 HD
ENDBRANCH   9  22
TORSDOF 6
ENDMDL