MODEL 5
REMARK VINA RESULT: -5.405807739      6.374      7.593
REMARK  7 active torsions:
REMARK  status: ('A' for Active; 'I' for Inactive)
REMARK    1  A    between atoms: C4_6  and  O3_7
REMARK    2  A    between atoms: C5_9  and  C6_10
REMARK    3  A    between atoms: C5_9  and  N1_13
REMARK    4  A    between atoms: C6_10  and  O4_11
REMARK    5  A    between atoms: N1_13  and  N2_15
REMARK    6  A    between atoms: C7_21  and  O6_22
REMARK    7  A    between atoms: C8_24  and  O7_25
ROOT
HETATM    1  C1  UNL     1      -3.226  15.650  26.164  1.00  0.00     0.042 C
HETATM    2  C2  UNL     1      -2.750  14.327  25.552  1.00  0.00     0.155 C
HETATM    3  O1  UNL     1      -1.735  14.528  24.660  1.00  0.00    -0.323 OA
HETATM    4  C3  UNL     1      -0.710  13.661  24.918  1.00  0.00     0.317 C
HETATM    5  O2  UNL     1       0.472  14.110  24.391  1.00  0.00    -0.295 OA
HETATM    6  C4  UNL     1       0.586  13.388  23.178  1.00  0.00     0.322 C
HETATM    7  C5  UNL     1       0.140  12.023  23.653  1.00  0.00     0.225 C
HETATM    8  O5  UNL     1      -0.933  12.372  24.488  1.00  0.00    -0.290 OA
HETATM    9  C7  UNL     1      -0.701  13.624  26.445  1.00  0.00     0.242 C
HETATM   10  C8  UNL     1      -2.208  13.508  26.704  1.00  0.00     0.183 C
ENDROOT
BRANCH   7  11
HETATM   11  C6  UNL     1       1.217  11.459  24.527  1.00  0.00     0.232 C
BRANCH  11  12
HETATM   12  O4  UNL     1       2.088  10.621  23.848  1.00  0.00    -0.396 OA
ATOM     13  H4  UNL     1       2.681  10.153  24.424  1.00  0.00     0.209 HD
ENDBRANCH  11  12
ENDBRANCH   7  11
BRANCH   7  14
HETATM   14  N1  UNL     1      -0.292  11.161  22.613  1.00  0.00    -0.281 N
ATOM     15  H1  UNL     1      -1.159  10.635  22.726  1.00  0.00     0.185 HD
BRANCH  14  16
HETATM   16  N2  UNL     1       0.361  11.035  21.572  1.00  0.00    -0.251 N
HETATM   17  N3  UNL     1       1.288  10.683  20.844  1.00  0.00    -0.331 N
ATOM     18  H32 UNL     1       1.851  10.205  21.547  1.00  0.00     0.178 HD
ATOM     19  H31 UNL     1       1.828  10.580  19.984  1.00  0.00     0.178 HD
ATOM     20  H2  UNL     1      -0.237  11.524  20.905  1.00  0.00     0.207 HD
ENDBRANCH  14  16
ENDBRANCH   7  14
BRANCH   6  21
HETATM   21  O3  UNL     1      -0.353  13.964  22.316  1.00  0.00    -0.366 OA
ATOM     22  H3  UNL     1       0.106  14.091  21.494  1.00  0.00     0.212 HD
ENDBRANCH   6  21
BRANCH   9  23
HETATM   23  O6  UNL     1      -0.224  14.789  26.995  1.00  0.00    -0.385 OA
ATOM     24  H6  UNL     1       0.421  15.214  26.442  1.00  0.00     0.210 HD
ENDBRANCH   9  23
BRANCH  10  25
HETATM   25  O7  UNL     1      -2.632  12.196  26.508  1.00  0.00    -0.390 OA
ATOM     26  H7  UNL     1      -2.165  11.656  27.134  1.00  0.00     0.210 HD
ENDBRANCH  10  25
TORSDOF 7
ENDMDL