MODEL 2
REMARK VINA RESULT: -6.729661609      1.671      2.262
REMARK  4 active torsions:
REMARK  status: ('A' for Active; 'I' for Inactive)
REMARK    1  A    between atoms: O1_2  and  N1_3
REMARK    2  A    between atoms: C7_16  and  N4_17
REMARK    3  A    between atoms: N4_17  and  N5_19
REMARK       I    between atoms: C8_21  and  N7_23
REMARK    4  A    between atoms: N7_23  and  N8_25
ROOT
HETATM    1  N1  UNL     1      -4.743  14.556  30.098  1.00  0.00    -0.247 N
ATOM      2  H1  UNL     1      -4.886  15.528  30.374  1.00  0.00     0.196 HD
HETATM    3  C2  UNL     1      -4.030  14.258  29.074  1.00  0.00     0.173 C
HETATM    4  O2  UNL     1      -3.350  15.112  28.182  1.00  0.00    -0.290 OA
HETATM    5  C3  UNL     1      -3.088  14.364  26.981  1.00  0.00     0.289 C
HETATM    6  C4  UNL     1      -3.462  15.200  25.786  1.00  0.00     0.088 C
HETATM    7  N2  UNL     1      -3.913  13.181  27.103  1.00  0.00    -0.022 N
ATOM      8  H21 UNL     1      -3.703  12.422  26.456  1.00  0.00     0.282 HD
ATOM      9  H22 UNL     1      -4.882  13.280  26.799  1.00  0.00     0.282 HD
HETATM   10  C5  UNL     1      -3.714  12.885  28.528  1.00  0.00     0.283 C
HETATM   11  C6  UNL     1      -2.288  12.609  28.877  1.00  0.00     0.163 C
HETATM   12  N3  UNL     1      -1.336  13.079  27.876  1.00  0.00    -0.372 N
ATOM     13  H3  UNL     1      -0.376  12.737  27.907  1.00  0.00     0.161 HD
HETATM   14  C7  UNL     1      -1.674  13.915  26.954  1.00  0.00     0.156 C
ENDROOT
BRANCH  14  15
HETATM   15  N4  UNL     1      -0.721  14.360  26.003  1.00  0.00    -0.283 N
ATOM     16  H4  UNL     1      -0.062  15.068  26.328  1.00  0.00     0.188 HD
BRANCH  15  17
HETATM   17  N5  UNL     1      -0.575  13.959  24.705  1.00  0.00    -0.271 N
HETATM   18  C8  UNL     1       0.373  13.380  24.105  1.00  0.00     0.223 C
HETATM   19  N6  UNL     1       1.612  12.962  24.636  1.00  0.00    -0.060 NA
HETATM   20  N7  UNL     1       0.182  13.100  22.709  1.00  0.00    -0.275 N
HETATM   21  C9  UNL     1       0.166  11.712  22.294  1.00  0.00     0.180 C
ATOM     22  H5  UNL     1      -1.378  14.165  24.112  1.00  0.00     0.189 HD
BRANCH  20  23
HETATM   23  N8  UNL     1       0.021  14.118  21.797  1.00  0.00    -0.341 N
ATOM     24  H82 UNL     1      -0.314  15.037  22.086  1.00  0.00     0.177 HD
ATOM     25  H81 UNL     1       0.231  13.977  20.809  1.00  0.00     0.177 HD
ENDBRANCH  20  23
ENDBRANCH  15  17
ENDBRANCH  14  15
BRANCH   1  26
HETATM   26  O1  UNL     1      -5.300  13.537  30.805  1.00  0.00    -0.283 OA
HETATM   27  C1  UNL     1      -6.068  13.660  31.966  1.00  0.00     0.237 C
ENDBRANCH   1  26
TORSDOF 4
ENDMDL