MODEL 2
REMARK VINA RESULT: -6.461612773      1.777      3.797
REMARK  6 active torsions:
REMARK  status: ('A' for Active; 'I' for Inactive)
REMARK    1  A    between atoms: O1_2  and  N1_3
REMARK    2  A    between atoms: N1_3  and  C2_5
REMARK    3  A    between atoms: C3_8  and  N3_9
REMARK    4  A    between atoms: C4_14  and  S1_15
REMARK    5  A    between atoms: S1_15  and  N5_16
REMARK    6  A    between atoms: S1_15  and  N6_20
ROOT
HETATM    1  N6  UNL     1       0.738  13.901  23.804  1.00  0.00    -0.233 N
ATOM      2  H6  UNL     1       1.706  14.184  23.960  1.00  0.00     0.190 HD
HETATM    3  C5  UNL     1       0.129  13.977  22.531  1.00  0.00     0.191 C
HETATM    4  N7  UNL     1      -0.366  14.053  21.485  1.00  0.00    -0.171 NA
ENDROOT
BRANCH   1   5
HETATM    5  S1  UNL     1      -0.168  13.354  24.957  1.00  0.00     0.163 S
HETATM    6  O2  UNL     1      -0.886  14.533  25.538  1.00  0.00    -0.221 OA
BRANCH   5   7
HETATM    7  C4  UNL     1       0.868  12.596  26.142  1.00  0.00     0.168 A
HETATM    8  N4  UNL     1       0.869  13.004  27.421  1.00  0.00    -0.179 N
HETATM    9  C3  UNL     1       1.650  12.449  28.365  1.00  0.00     0.678 A
ATOM     10  H4  UNL     1       0.249  13.769  27.688  1.00  0.00     0.185 HD
HETATM   11  N2  UNL     1       2.471  11.439  28.020  1.00  0.00    -0.174 N
HETATM   12  C2  UNL     1       2.507  10.993  26.747  1.00  0.00     0.164 A
ATOM     13  H2  UNL     1       3.070  11.008  28.725  1.00  0.00     0.186 HD
HETATM   14  C6  UNL     1       1.706  11.559  25.774  1.00  0.00     0.129 A
HETATM   15  C7  UNL     1       1.720  11.107  24.410  1.00  0.00     0.106 C
HETATM   16  N8  UNL     1       1.726  10.727  23.317  1.00  0.00    -0.191 NA
BRANCH   9  17
HETATM   17  N3  UNL     1       1.593  12.903  29.586  1.00  0.00    -0.234 N
ATOM     18  H32 UNL     1       0.908  12.509  30.231  1.00  0.00     0.174 HD
ATOM     19  H31 UNL     1       2.213  13.642  29.916  1.00  0.00     0.174 HD
ENDBRANCH   9  17
BRANCH  12  20
HETATM   20  N1  UNL     1       3.281  10.026  26.375  1.00  0.00    -0.249 N
ATOM     21  H1  UNL     1       2.881   9.238  25.865  1.00  0.00     0.196 HD
BRANCH  20  22
HETATM   22  O1  UNL     1       4.631  10.031  26.648  1.00  0.00    -0.284 OA
HETATM   23  C1  UNL     1       5.122   9.002  27.480  1.00  0.00     0.237 C
ENDBRANCH  20  22
ENDBRANCH  12  20
ENDBRANCH   5   7
BRANCH   5  24
HETATM   24  N5  UNL     1      -1.266  12.154  24.389  1.00  0.00    -0.339 N
ATOM     25  H52 UNL     1      -1.148  11.598  23.543  1.00  0.00     0.167 HD
ATOM     26  H51 UNL     1      -2.040  12.110  25.052  1.00  0.00     0.167 HD
ENDBRANCH   5  24
ENDBRANCH   1   5
TORSDOF 6
ENDMDL