MODEL 5
REMARK VINA RESULT: -6.050639910      6.180      8.193
REMARK  3 active torsions:
REMARK  status: ('A' for Active; 'I' for Inactive)
REMARK    1  A    between atoms: C2_2  and  C3_3
REMARK    2  A    between atoms: C6_12  and  N2_13
REMARK    3  A    between atoms: N2_13  and  N3_15
ROOT
HETATM    1  C1  UNL     1      -6.246  15.523  28.062  1.00  0.00     0.091 C
HETATM    2  C2  UNL     1      -5.035  16.386  27.973  1.00  0.00     0.370 C
HETATM    3  N1  UNL     1      -4.036  16.070  28.976  1.00  0.00    -0.029 N
ATOM      4  H11 UNL     1      -4.379  16.265  29.917  1.00  0.00     0.280 HD
ATOM      5  H12 UNL     1      -3.260  16.731  28.949  1.00  0.00     0.280 HD
HETATM    6  C4  UNL     1      -3.582  14.732  28.857  1.00  0.00     0.255 C
HETATM    7  C5  UNL     1      -3.780  14.081  27.545  1.00  0.00     0.131 C
HETATM    8  S1  UNL     1      -2.354  13.077  27.025  1.00  0.00    -0.082 SA
HETATM    9  C6  UNL     1      -1.810  14.248  25.787  1.00  0.00     0.161 C
HETATM   10  N4  UNL     1      -2.731  15.071  25.639  1.00  0.00    -0.341 N
ATOM     11  H4  UNL     1      -2.618  15.830  24.967  1.00  0.00     0.163 HD
HETATM   12  C7  UNL     1      -3.915  14.978  26.370  1.00  0.00     0.305 C
HETATM   13  N5  UNL     1      -4.370  16.315  26.693  1.00  0.00    -0.008 N
ATOM     14  H51 UNL     1      -3.602  16.984  26.644  1.00  0.00     0.283 HD
ATOM     15  H52 UNL     1      -4.963  16.689  25.952  1.00  0.00     0.283 HD
ENDROOT
BRANCH   9  16
HETATM   16  N2  UNL     1      -0.525  14.137  25.162  1.00  0.00    -0.220 N
ATOM     17  H2  UNL     1       0.256  14.665  25.552  1.00  0.00     0.195 HD
BRANCH  16  18
HETATM   18  N3  UNL     1      -0.298  13.343  24.048  1.00  0.00    -0.037 N
HETATM   19  O3  UNL     1      -0.414  12.117  24.145  1.00  0.00    -0.516 OA
HETATM   20  O4  UNL     1       0.047  13.938  22.871  1.00  0.00    -0.516 OA
ENDBRANCH  16  18
ENDBRANCH   9  16
BRANCH   2  21
HETATM   21  C3  UNL     1      -5.426  17.803  28.183  1.00  0.00     0.240 C
HETATM   22  O1  UNL     1      -6.559  18.144  28.534  1.00  0.00    -0.645 OA
HETATM   23  O2  UNL     1      -4.453  18.760  27.969  1.00  0.00    -0.645 OA
ENDBRANCH   2  21
TORSDOF 3
ENDMDL