MODEL 1
REMARK VINA RESULT: -6.636928726      0.000      0.000
REMARK  6 active torsions:
REMARK  status: ('A' for Active; 'I' for Inactive)
REMARK    1  A    between atoms: O1_1  and  C1_3
REMARK    2  A    between atoms: C2_7  and  C3_8
REMARK    3  A    between atoms: C3_8  and  O4_9
REMARK    4  A    between atoms: C3_8  and  C4_11
REMARK    5  A    between atoms: C8_16  and  O6_17
REMARK    6  A    between atoms: C9_19  and  O7_20
ROOT
HETATM    1  C1  UNL     1       0.367  11.111  21.817  1.00  0.00     0.304 C
HETATM    2  O2  UNL     1       0.448   9.742  22.046  1.00  0.00    -0.261 OA
HETATM    3  S1  UNL     1       2.096   9.344  22.287  1.00  0.00     0.162 SA
HETATM    4  O3  UNL     1       2.719  10.404  23.485  1.00  0.00    -0.286 OA
HETATM    5  C2  UNL     1       1.719  10.705  24.375  1.00  0.00     0.202 C
HETATM    6  C8  UNL     1       1.030  11.993  24.070  1.00  0.00     0.184 C
HETATM    7  C9  UNL     1      -0.079  11.855  23.057  1.00  0.00     0.205 C
ENDROOT
BRANCH   5   8
HETATM    8  C3  UNL     1       2.230  10.764  25.803  1.00  0.00     0.180 C
BRANCH   8   9
HETATM    9  O4  UNL     1       2.968  11.925  26.006  1.00  0.00    -0.390 OA
ATOM     10  H4  UNL     1       3.884  11.715  26.146  1.00  0.00     0.210 HD
ENDBRANCH   8   9
BRANCH   8  11
HETATM   11  C4  UNL     1       3.115   9.598  26.136  1.00  0.00     0.152 C
HETATM   12  C5  UNL     1       4.392  10.173  26.759  1.00  0.00     0.036 C
HETATM   13  C6  UNL     1       4.948   8.921  27.428  1.00  0.00     0.029 C
HETATM   14  C7  UNL     1       3.681   8.180  27.771  1.00  0.00     0.168 C
HETATM   15  O5  UNL     1       2.634   8.816  27.156  1.00  0.00    -0.383 OA
ENDBRANCH   8  11
ENDBRANCH   5   8
BRANCH   6  16
HETATM   16  O6  UNL     1       1.884  13.015  23.691  1.00  0.00    -0.390 OA
ATOM     17  H6  UNL     1       1.712  13.844  24.121  1.00  0.00     0.210 HD
ENDBRANCH   6  16
BRANCH   7  18
HETATM   18  O7  UNL     1      -0.447  13.144  22.672  1.00  0.00    -0.388 OA
ATOM     19  H7  UNL     1       0.192  13.453  22.041  1.00  0.00     0.210 HD
ENDBRANCH   7  18
BRANCH   1  20
HETATM   20  O1  UNL     1      -0.569  11.392  20.820  1.00  0.00    -0.368 OA
ATOM     21  H1  UNL     1      -1.428  11.546  21.197  1.00  0.00     0.212 HD
ENDBRANCH   1  20
TORSDOF 6
ENDMDL