MODEL 5
REMARK VINA RESULT: -7.081235523      2.251      6.066
REMARK  3 active torsions:
REMARK  status: ('A' for Active; 'I' for Inactive)
REMARK    1  A    between atoms: N1_1  and  C1_4
REMARK    2  A    between atoms: C2_7  and  N3_8
REMARK    3  A    between atoms: C7_16  and  N5_17
ROOT
HETATM    1  C1  UNL     1       1.343  12.336  27.057  1.00  0.00     0.705 A
HETATM    2  N2  UNL     1       1.248  12.191  25.725  1.00  0.00    -0.022 N
ATOM      3  H2  UNL     1       0.622  12.786  25.182  1.00  0.00     0.203 HD
HETATM    4  C2  UNL     1       1.992  11.248  25.121  1.00  0.00     0.709 A
HETATM    5  N4  UNL     1       2.807  10.480  25.866  1.00  0.00    -0.021 N
ATOM      6  H4  UNL     1       3.369   9.766  25.403  1.00  0.00     0.203 HD
HETATM    7  C7  UNL     1       2.905  10.621  27.196  1.00  0.00     0.710 A
HETATM    8  N8  UNL     1       2.167  11.560  27.804  1.00  0.00    -0.021 N
ATOM      9  H8  UNL     1       2.223  11.689  28.815  1.00  0.00     0.203 HD
ENDROOT
BRANCH   7  10
HETATM   10  N5  UNL     1       3.758   9.817  27.974  1.00  0.00    -0.200 N
HETATM   11  C8  UNL     1       3.309   9.277  29.242  1.00  0.00     0.163 C
HETATM   12  C9  UNL     1       4.396   8.511  29.937  1.00  0.00     0.155 C
HETATM   13  N6  UNL     1       5.140   7.639  29.084  1.00  0.00    -0.337 N
HETATM   14  N7  UNL     1       5.278   8.057  27.780  1.00  0.00    -0.126 NA
ATOM     15  H6  UNL     1       5.543   6.764  29.419  1.00  0.00     0.175 HD
HETATM   16  C10 UNL     1       5.111   9.473  27.587  1.00  0.00     0.276 C
ENDBRANCH   7  10
BRANCH   4  17
HETATM   17  N3  UNL     1       1.883  11.104  23.712  1.00  0.00    -0.213 N
HETATM   18  C3  UNL     1       2.333   9.919  23.030  1.00  0.00     0.167 C
HETATM   19  C4  UNL     1       1.271   9.382  22.103  1.00  0.00     0.188 C
HETATM   20  O1  UNL     1       0.407  10.357  21.658  1.00  0.00    -0.388 OA
HETATM   21  C5  UNL     1       0.989  11.607  21.559  1.00  0.00     0.188 C
HETATM   22  C6  UNL     1       1.301  12.179  22.940  1.00  0.00     0.167 C
ENDBRANCH   4  17
BRANCH   1  23
HETATM   23  N1  UNL     1       0.658  13.220  27.694  1.00  0.00    -0.234 N
ATOM     24  H12 UNL     1       0.065  13.827  27.128  1.00  0.00     0.174 HD
ATOM     25  H11 UNL     1       0.705  13.308  28.709  1.00  0.00     0.174 HD
ENDBRANCH   1  23
TORSDOF 3
ENDMDL