MODEL 1
REMARK VINA RESULT: -5.339252604      0.000      0.000
REMARK  6 active torsions:
REMARK  status: ('A' for Active; 'I' for Inactive)
REMARK    1  A    between atoms: S1_2  and  O4_5
REMARK    2  A    between atoms: O4_5  and  C1_6
REMARK    3  A    between atoms: C1_6  and  C2_7
REMARK    4  A    between atoms: C3_10  and  O5_11
REMARK    5  A    between atoms: C4_13  and  O6_14
REMARK    6  A    between atoms: C5_16  and  O7_17
ROOT
HETATM    1  C2  UNL     1       0.788  11.685  24.292  1.00  0.00     0.115 C
HETATM    2  S2  UNL     1       2.150  10.562  23.889  1.00  0.00    -0.085 SA
HETATM    3  S3  UNL     1       1.315   9.496  22.188  1.00  0.00    -0.062 SA
HETATM    4  C3  UNL     1       0.682  10.952  21.234  1.00  0.00     0.221 C
HETATM    5  C4  UNL     1       1.245  12.180  21.841  1.00  0.00     0.187 C
HETATM    6  C5  UNL     1       0.675  12.690  23.119  1.00  0.00     0.166 C
ENDROOT
BRANCH   1   7
HETATM    7  C1  UNL     1       1.279  12.492  25.579  1.00  0.00     0.211 C
BRANCH   7   8
HETATM    8  O4  UNL     1       0.174  12.184  26.418  1.00  0.00    -0.256 OA
BRANCH   8   9
HETATM    9  S1  UNL     1      -0.968  13.293  26.505  1.00  0.00     0.251 S
HETATM   10  O1  UNL     1      -2.057  12.669  25.495  1.00  0.00    -0.572 OA
HETATM   11  O2  UNL     1      -0.570  14.568  25.809  1.00  0.00    -0.572 OA
HETATM   12  O3  UNL     1      -1.715  13.506  27.895  1.00  0.00    -0.572 OA
ENDBRANCH   8   9
ENDBRANCH   7   8
ENDBRANCH   1   7
BRANCH   6  13
HETATM   13  O7  UNL     1      -0.615  13.191  23.067  1.00  0.00    -0.392 OA
ATOM     14  H7  UNL     1      -0.589  14.096  22.780  1.00  0.00     0.210 HD
ENDBRANCH   6  13
BRANCH   5  15
HETATM   15  O6  UNL     1       1.073  13.212  20.916  1.00  0.00    -0.390 OA
ATOM     16  H6  UNL     1       1.537  13.969  21.252  1.00  0.00     0.210 HD
ENDBRANCH   5  15
BRANCH   4  17
HETATM   17  O5  UNL     1      -0.661  10.904  21.072  1.00  0.00    -0.382 OA
ATOM     18  H5  UNL     1      -0.904  10.536  20.231  1.00  0.00     0.211 HD
ENDBRANCH   4  17
TORSDOF 6
ENDMDL