MODEL 4
REMARK VINA RESULT: -6.339327801      2.652      4.623
REMARK  6 active torsions:
REMARK  status: ('A' for Active; 'I' for Inactive)
REMARK    1  A    between atoms: C2_2  and  N1_3
REMARK    2  A    between atoms: C2_2  and  N2_7
REMARK    3  A    between atoms: C3_8  and  N3_9
REMARK    4  A    between atoms: C5_16  and  N6_17
REMARK    5  A    between atoms: C6_22  and  N8_23
REMARK    6  A    between atoms: N9_25  and  N10_27
ROOT
HETATM    1  N2  UNL     1       2.043  11.548  25.439  1.00  0.00    -0.279 N
HETATM    2  C3  UNL     1       2.686  10.356  25.377  1.00  0.00     0.197 A
HETATM    3  C4  UNL     1       2.561   9.827  24.099  1.00  0.00     0.174 A
HETATM    4  N4  UNL     1       1.842  10.697  23.392  1.00  0.00    -0.229 N
HETATM    5  N5  UNL     1       1.456  10.621  22.106  1.00  0.00    -0.124 N
ATOM      6  H5  UNL     1       1.717   9.817  21.536  1.00  0.00     0.206 HD
HETATM    7  C5  UNL     1       0.726  11.613  21.584  1.00  0.00     0.692 A
HETATM    8  N7  UNL     1       0.385  12.658  22.323  1.00  0.00    -0.170 N
ATOM      9  H7  UNL     1      -0.173  13.406  21.910  1.00  0.00     0.186 HD
HETATM   10  C6  UNL     1       0.769  12.750  23.628  1.00  0.00     0.183 A
HETATM   11  C7  UNL     1       1.522  11.735  24.176  1.00  0.00     0.179 A
ENDROOT
BRANCH  10  12
HETATM   12  N8  UNL     1       0.374  13.877  24.374  1.00  0.00    -0.268 N
HETATM   13  N9  UNL     1      -0.654  13.941  25.106  1.00  0.00    -0.248 N
ATOM     14  H9  UNL     1      -0.837  14.814  25.600  1.00  0.00     0.207 HD
ATOM     15  H8  UNL     1       0.964  14.707  24.319  1.00  0.00     0.190 HD
BRANCH  13  16
HETATM   16  N10 UNL     1      -1.557  12.888  25.280  1.00  0.00    -0.331 N
ATOM     17 2H10 UNL     1      -1.840  12.676  26.237  1.00  0.00     0.178 HD
ATOM     18 1H10 UNL     1      -1.940  12.333  24.516  1.00  0.00     0.178 HD
ENDBRANCH  13  16
ENDBRANCH  10  12
BRANCH   7  19
HETATM   19  N6  UNL     1       0.378  11.494  20.336  1.00  0.00    -0.233 N
ATOM     20  H62 UNL     1       1.054  11.329  19.590  1.00  0.00     0.174 HD
ATOM     21  H61 UNL     1      -0.617  11.575  20.124  1.00  0.00     0.174 HD
ENDBRANCH   7  19
BRANCH   1  22
HETATM   22  C2  UNL     1       1.944  12.429  26.579  1.00  0.00     0.287 C
HETATM   23  C1  UNL     1       1.403  11.767  27.820  1.00  0.00     0.063 C
BRANCH  22  24
HETATM   24  N1  UNL     1       3.275  13.027  26.782  1.00  0.00    -0.058 N
ATOM     25  H13 UNL     1       3.291  13.998  26.469  1.00  0.00     0.276 HD
ATOM     26  H12 UNL     1       3.464  13.170  27.775  1.00  0.00     0.276 HD
ATOM     27  H11 UNL     1       4.023  12.490  26.343  1.00  0.00     0.276 HD
ENDBRANCH  22  24
ENDBRANCH   1  22
BRANCH   2  28
HETATM   28  N3  UNL     1       3.386   9.654  26.388  1.00  0.00    -0.096 N
HETATM   29  O1  UNL     1       2.942   8.700  26.994  1.00  0.00    -0.530 OA
HETATM   30  O2  UNL     1       4.676  10.029  26.742  1.00  0.00    -0.530 OA
ENDBRANCH   2  28
TORSDOF 6
ENDMDL