MODEL 1
REMARK VINA RESULT: -6.537662476      0.000      0.000
REMARK  9 active torsions:
REMARK  status: ('A' for Active; 'I' for Inactive)
REMARK    1  A    between atoms: O1_2  and  C2_3
REMARK    2  A    between atoms: C2_3  and  O3_5
REMARK    3  A    between atoms: O3_5  and  C3_6
REMARK    4  A    between atoms: C3_6  and  C4_7
REMARK    5  A    between atoms: C5_8  and  O4_9
REMARK    6  A    between atoms: C6_11  and  O5_12
REMARK    7  A    between atoms: C7_14  and  O6_15
REMARK    8  A    between atoms: C10_19  and  C11_20
REMARK    9  A    between atoms: C11_20  and  O7_21
ROOT
HETATM    1  C4  UNL     1       2.243  10.669  24.402  1.00  0.00     0.036 A
HETATM    2  C5  UNL     1       2.203  10.320  23.016  1.00  0.00     0.115 A
HETATM    3  C6  UNL     1       1.673  11.167  22.083  1.00  0.00     0.135 A
HETATM    4  C7  UNL     1       1.156  12.393  22.449  1.00  0.00     0.129 A
HETATM    5  C9  UNL     1       1.186  12.739  23.761  1.00  0.00     0.095 A
HETATM    6  N1  UNL     1       0.658  14.009  24.194  1.00  0.00    -0.098 NA
HETATM    7  C10 UNL     1       1.726  11.891  24.757  1.00  0.00     0.028 A
ENDROOT
BRANCH   1   8
HETATM    8  C3  UNL     1       2.770   9.784  25.189  1.00  0.00     0.163 C
BRANCH   8   9
HETATM    9  O3  UNL     1       4.035   9.598  25.627  1.00  0.00    -0.267 OA
BRANCH   9  10
HETATM   10  C2  UNL     1       4.340   9.699  27.003  1.00  0.00     0.410 C
HETATM   11  O2  UNL     1       5.460   9.371  27.447  1.00  0.00    -0.229 OA
BRANCH  10  12
HETATM   12  O1  UNL     1       3.383  10.173  27.901  1.00  0.00    -0.303 OA
HETATM   13  C1  UNL     1       2.869   9.393  28.943  1.00  0.00     0.215 C
ENDBRANCH  10  12
ENDBRANCH   9  10
ENDBRANCH   8   9
ENDBRANCH   1   8
BRANCH   2  14
HETATM   14  O4  UNL     1       2.721   9.094  22.652  1.00  0.00    -0.357 OA
ATOM     15  H4  UNL     1       3.311   9.070  21.908  1.00  0.00     0.217 HD
ENDBRANCH   2  14
BRANCH   7  16
HETATM   16  C11 UNL     1       1.678  12.370  25.961  1.00  0.00     0.145 C
BRANCH  16  17
HETATM   17  O7  UNL     1       2.655  12.989  26.681  1.00  0.00    -0.372 OA
ATOM     18  H7  UNL     1       2.858  13.915  26.746  1.00  0.00     0.216 HD
ENDBRANCH  16  17
ENDBRANCH   7  16
BRANCH   3  19
HETATM   19  O5  UNL     1       1.639  10.819  20.738  1.00  0.00    -0.356 OA
ATOM     20  H5  UNL     1       0.884  10.378  20.366  1.00  0.00     0.218 HD
ENDBRANCH   3  19
BRANCH   4  21
HETATM   21  O6  UNL     1       0.621  13.252  21.518  1.00  0.00    -0.351 OA
HETATM   22  C8  UNL     1      -0.710  13.679  21.476  1.00  0.00     0.210 C
ENDBRANCH   4  21
TORSDOF 9
ENDMDL