MODEL 1
REMARK VINA RESULT: -6.785055848      0.000      0.000
REMARK  6 active torsions:
REMARK  status: ('A' for Active; 'I' for Inactive)
REMARK    1  A    between atoms: O1_2  and  C2_3
REMARK    2  A    between atoms: C2_3  and  C3_5
REMARK    3  A    between atoms: C4_6  and  O3_7
REMARK    4  A    between atoms: N1_11  and  O4_12
REMARK    5  A    between atoms: C7_14  and  N2_15
REMARK    6  A    between atoms: C11_21  and  O5_22
ROOT
HETATM    1  C3  UNL     1       1.620  12.015  24.648  1.00  0.00     0.148 C
HETATM    2  C4  UNL     1       0.240  12.614  24.526  1.00  0.00     0.154 C
HETATM    3  C5  UNL     1      -0.525  12.460  25.817  1.00  0.00     0.114 C
HETATM    4  C6  UNL     1      -1.830  13.242  25.648  1.00  0.00     0.031 C
HETATM    5  N1  UNL     1       0.155  13.047  26.938  1.00  0.00    -0.165 NA
HETATM    6  C7  UNL     1       1.519  12.626  27.082  1.00  0.00     0.236 C
HETATM    7  C11 UNL     1       1.997  11.675  26.055  1.00  0.00     0.175 C
ENDROOT
BRANCH   6   8
HETATM    8  N2  UNL     1       1.648  12.002  28.388  1.00  0.00    -0.281 N
HETATM    9  C8  UNL     1       1.642  12.555  29.610  1.00  0.00     0.113 A
HETATM   10  C9  UNL     1       1.802  11.502  30.518  1.00  0.00     0.037 A
HETATM   11  C10 UNL     1       1.900  10.338  29.790  1.00  0.00     0.108 A
HETATM   12  N3  UNL     1       1.803  10.673  28.509  1.00  0.00    -0.308 N
ATOM     13  H3  UNL     1       1.841  10.016  27.730  1.00  0.00     0.186 HD
ENDBRANCH   6   8
BRANCH   5  14
HETATM   14  O4  UNL     1       0.043  14.390  26.887  1.00  0.00    -0.310 OA
ATOM     15  H4  UNL     1       0.692  14.788  27.456  1.00  0.00     0.237 HD
ENDBRANCH   5  14
BRANCH   7  16
HETATM   16  O5  UNL     1       3.407  11.634  26.133  1.00  0.00    -0.391 OA
ATOM     17  H5  UNL     1       3.696  12.391  26.627  1.00  0.00     0.210 HD
ENDBRANCH   7  16
BRANCH   1  18
HETATM   18  C2  UNL     1       1.776  10.797  23.817  1.00  0.00     0.267 C
HETATM   19  O2  UNL     1       2.656   9.944  24.083  1.00  0.00    -0.265 OA
BRANCH  18  20
HETATM   20  O1  UNL     1       0.976  10.530  22.716  1.00  0.00    -0.326 OA
HETATM   21  C1  UNL     1       1.511  10.474  21.386  1.00  0.00     0.213 C
ENDBRANCH  18  20
ENDBRANCH   1  18
BRANCH   2  22
HETATM   22  O3  UNL     1       0.302  13.976  24.241  1.00  0.00    -0.393 OA
ATOM     23  H3  UNL     1      -0.244  14.198  23.495  1.00  0.00     0.210 HD
ENDBRANCH   2  22
TORSDOF 6
ENDMDL