MODEL 1
REMARK VINA RESULT: -7.900676353      0.000      0.000
REMARK  5 active torsions:
REMARK  status: ('A' for Active; 'I' for Inactive)
REMARK    1  A    between atoms: C3_3  and  C4_4
REMARK    2  A    between atoms: C4_4  and  O1_5
REMARK    3  A    between atoms: C5_9  and  N2_10
REMARK    4  A    between atoms: N2_10  and  N3_12
REMARK    5  A    between atoms: C6_14  and  C7_15
ROOT
HETATM    1  C1  UNL     1      12.509  -4.311   1.120  1.00  0.00     0.112 C
HETATM    2  C2  UNL     1      12.593  -3.002   1.764  1.00  0.00    -0.106 C
HETATM    3  C3  UNL     1      12.683  -1.925   2.292  1.00  0.00    -0.040 C
ENDROOT
BRANCH   3   4
HETATM    4  C4  UNL     1      12.768  -0.594   2.944  1.00  0.00     0.255 A
HETATM    5  N1  UNL     1      11.842   0.303   2.329  1.00  0.00    -0.175 N
HETATM    6  C5  UNL     1      10.752   0.925   2.984  1.00  0.00     0.697 A
ATOM      7  H1  UNL     1      11.978   0.512   1.340  1.00  0.00     0.182 HD
HETATM    8  N4  UNL     1      10.545   0.693   4.227  1.00  0.00    -0.179 N
HETATM    9  C8  UNL     1      11.419  -0.188   4.916  1.00  0.00     0.152 A
ATOM     10  H4  UNL     1       9.764   1.134   4.714  1.00  0.00     0.185 HD
HETATM   11  C9  UNL     1      11.204  -0.470   6.336  1.00  0.00     0.119 C
HETATM   12  C10 UNL     1      12.450  -0.802   4.375  1.00  0.00     0.128 A
HETATM   13  N5  UNL     1      11.015  -0.681   7.466  1.00  0.00    -0.190 NA
HETATM   14  C11 UNL     1      13.291  -1.692   5.175  1.00  0.00     0.104 C
HETATM   15  N6  UNL     1      13.969  -2.384   5.807  1.00  0.00    -0.191 NA
BRANCH   4  16
HETATM   16  O1  UNL     1      14.095  -0.190   2.795  1.00  0.00    -0.356 OA
ATOM     17  H1  UNL     1      14.079   0.498   2.141  1.00  0.00     0.214 HD
ENDBRANCH   4  16
BRANCH   6  18
HETATM   18  N2  UNL     1       9.908   1.807   2.219  1.00  0.00    -0.132 N
ATOM     19  H2  UNL     1       9.680   2.745   2.550  1.00  0.00     0.205 HD
BRANCH  18  20
HETATM   20  N3  UNL     1       9.422   1.330   1.021  1.00  0.00    -0.291 N
HETATM   21  C6  UNL     1       9.195   1.997  -0.031  1.00  0.00     0.192 C
ATOM     22  H3  UNL     1       9.223   0.330   0.977  1.00  0.00     0.186 HD
BRANCH  21  23
HETATM   23  C7  UNL     1       9.412   3.427  -0.169  1.00  0.00     0.216 C
HETATM   24  O2  UNL     1      10.420   4.013   0.301  1.00  0.00    -0.643 OA
HETATM   25  O3  UNL     1       8.484   4.208  -0.842  1.00  0.00    -0.643 OA
ENDBRANCH  21  23
ENDBRANCH  18  20
ENDBRANCH   6  18
ENDBRANCH   3   4
TORSDOF 5
ENDMDL