MODEL 5
REMARK VINA RESULT: -5.657140383      2.176      4.753
REMARK  7 active torsions:
REMARK  status: ('A' for Active; 'I' for Inactive)
REMARK    1  A    between atoms: O1_2  and  C2_3
REMARK    2  A    between atoms: C2_3  and  C3_5
REMARK    3  A    between atoms: C6_10  and  O3_11
REMARK    4  A    between atoms: C7_13  and  O4_14
REMARK    5  A    between atoms: C7_13  and  N2_16
REMARK    6  A    between atoms: N2_16  and  O5_17
REMARK    7  A    between atoms: N2_16  and  O6_19
ROOT
HETATM    1  C3  UNL     1      13.129  -2.991   3.316  1.00  0.00     0.190 C
HETATM    2  N1  UNL     1      12.366  -2.517   2.210  1.00  0.00    -0.402 N
ATOM      3  H1  UNL     1      11.989  -3.159   1.512  1.00  0.00     0.154 HD
HETATM    4  C4  UNL     1      12.150  -1.118   2.118  1.00  0.00     0.106 C
HETATM    5  C5  UNL     1      13.359  -0.340   1.657  1.00  0.00     0.034 C
HETATM    6  C6  UNL     1      11.587  -0.606   3.415  1.00  0.00     0.195 C
HETATM    7  C7  UNL     1      12.390  -1.073   4.608  1.00  0.00     0.200 C
HETATM    8  C8  UNL     1      12.572  -2.565   4.655  1.00  0.00     0.034 C
HETATM    9  C9  UNL     1      13.583  -2.848   5.745  1.00  0.00     0.022 C
HETATM   10  C10 UNL     1      11.278  -3.212   4.986  1.00  0.00     0.022 C
ENDROOT
BRANCH   7  11
HETATM   11  O4  UNL     1      13.667  -0.444   4.584  1.00  0.00    -0.368 OA
ATOM     12  H4  UNL     1      14.322  -1.060   4.893  1.00  0.00     0.212 HD
ENDBRANCH   7  11
BRANCH   7  13
HETATM   13  N2  UNL     1      11.762  -0.550   5.788  1.00  0.00    -0.033 NA
BRANCH  13  14
HETATM   14  O5  UNL     1      10.446  -0.331   5.694  1.00  0.00    -0.286 OA
ATOM     15  H5  UNL     1      10.162   0.552   5.897  1.00  0.00     0.239 HD
ENDBRANCH  13  14
BRANCH  13  16
HETATM   16  O6  UNL     1      12.431   0.440   6.379  1.00  0.00    -0.286 OA
ATOM     17  H6  UNL     1      12.295   0.503   7.317  1.00  0.00     0.239 HD
ENDBRANCH  13  16
ENDBRANCH   7  13
BRANCH   6  18
HETATM   18  O3  UNL     1      11.511   0.770   3.470  1.00  0.00    -0.389 OA
ATOM     19  H3  UNL     1      11.283   1.099   4.332  1.00  0.00     0.210 HD
ENDBRANCH   6  18
BRANCH   1  20
HETATM   20  C2  UNL     1      13.329  -4.427   3.185  1.00  0.00     0.281 C
HETATM   21  O2  UNL     1      14.443  -4.936   3.488  1.00  0.00    -0.263 OA
BRANCH  20  22
HETATM   22  O1  UNL     1      12.385  -5.339   2.744  1.00  0.00    -0.325 OA
HETATM   23  C1  UNL     1      12.717  -6.537   2.064  1.00  0.00     0.213 C
ENDBRANCH  20  22
ENDBRANCH   1  20
TORSDOF 7
ENDMDL