MODEL 1
REMARK VINA RESULT: -6.401178944      0.000      0.000
REMARK  5 active torsions:
REMARK  status: ('A' for Active; 'I' for Inactive)
REMARK    1  A    between atoms: N3_7  and  C4_8
REMARK    2  A    between atoms: C4_8  and  C5_9
REMARK    3  A    between atoms: C6_10  and  O1_11
REMARK    4  A    between atoms: N4_14  and  O2_16
REMARK    5  A    between atoms: N5_19  and  O3_20
ROOT
HETATM    1  C5  UNL     1      11.958  -0.453   4.293  1.00  0.00     0.134 C
HETATM    2  C6  UNL     1      12.589  -1.797   4.526  1.00  0.00     0.188 C
HETATM    3  C7  UNL     1      12.332  -1.982   5.998  1.00  0.00     0.055 C
HETATM    4  N4  UNL     1      13.060  -2.540   6.882  1.00  0.00    -0.274 N
ATOM      5  H4  UNL     1      12.738  -2.584   7.849  1.00  0.00     0.193 HD
HETATM    6  C8  UNL     1      10.994  -1.350   6.209  1.00  0.00     0.178 C
HETATM    7  N5  UNL     1      10.888  -0.296   5.225  1.00  0.00    -0.186 NA
ENDROOT
BRANCH   1   8
HETATM    8  C4  UNL     1      11.473  -0.274   2.877  1.00  0.00     0.129 C
BRANCH   8   9
HETATM    9  N3  UNL     1      11.677   1.068   2.404  1.00  0.00    -0.236 NA
HETATM   10  C3  UNL     1      12.443   1.047   1.186  1.00  0.00     0.125 C
HETATM   11  C2  UNL     1      11.673   0.587  -0.006  1.00  0.00     0.155 C
HETATM   12  N2  UNL     1      10.663   1.456  -0.469  1.00  0.00    -0.327 N
HETATM   13  N1  UNL     1      10.179   2.385   0.398  1.00  0.00    -0.260 N
ATOM     14  H2  UNL     1      10.308   1.390  -1.423  1.00  0.00     0.180 HD
HETATM   15  C1  UNL     1      10.580   3.733   0.171  1.00  0.00     0.187 C
HETATM   16  S1  UNL     1      10.167   1.907   2.077  1.00  0.00     0.056 SA
ENDBRANCH   8   9
ENDBRANCH   1   8
BRANCH   2  17
HETATM   17  O1  UNL     1      11.940  -2.815   3.828  1.00  0.00    -0.388 OA
ATOM     18  H1  UNL     1      11.191  -3.157   4.303  1.00  0.00     0.210 HD
ENDBRANCH   2  17
BRANCH   7  19
HETATM   19  O3  UNL     1      10.891   0.920   5.836  1.00  0.00    -0.312 OA
ATOM     20  H3  UNL     1      11.709   1.110   6.279  1.00  0.00     0.237 HD
ENDBRANCH   7  19
BRANCH   4  21
HETATM   21  O2  UNL     1      14.269  -3.079   6.548  1.00  0.00    -0.290 OA
ATOM     22  H2  UNL     1      14.708  -3.682   7.136  1.00  0.00     0.244 HD
ENDBRANCH   4  21
TORSDOF 5
ENDMDL