MODEL 4
REMARK VINA RESULT: -7.804226264      1.830      2.003
REMARK  2 active torsions:
REMARK  status: ('A' for Active; 'I' for Inactive)
REMARK       I    between atoms: C2_2  and  N1_4
REMARK       I    between atoms: N1_4  and  C3_6
REMARK       I    between atoms: C3_6  and  N3_8
REMARK       I    between atoms: N3_8  and  C4_10
REMARK    1  A    between atoms: C4_10  and  C5_12
REMARK    2  A    between atoms: C6_16  and  C7_17
ROOT
HETATM    1  C5  UNL     1      10.354   1.196   3.086  1.00  0.00     0.197 A
HETATM    2  N4  UNL     1      10.008   1.748   4.247  1.00  0.00    -0.238 N
ATOM      3  H4  UNL     1       9.477   2.611   4.358  1.00  0.00     0.197 HD
HETATM    4  O3  UNL     1      10.464   0.998   5.228  1.00  0.00    -0.213 OA
HETATM    5  C6  UNL     1      11.094  -0.023   4.725  1.00  0.00     0.225 A
HETATM    6  N7  UNL     1      11.040   0.079   3.370  1.00  0.00    -0.312 N
ATOM      7  H7  UNL     1      11.444  -0.571   2.697  1.00  0.00     0.170 HD
ENDROOT
BRANCH   1   8
HETATM    8  C4  UNL     1      10.064   1.685   1.689  1.00  0.00     0.293 C
HETATM    9  N3  UNL     1       9.112   1.023   0.933  1.00  0.00    -0.294 N
HETATM   10  C3  UNL     1       8.546   1.106  -0.318  1.00  0.00     0.197 C
ATOM     11  H3  UNL     1       8.712   0.244   1.459  1.00  0.00     0.172 HD
HETATM   12  N1  UNL     1       8.647   1.896  -1.451  1.00  0.00    -0.301 N
HETATM   13  N2  UNL     1       7.580   0.121  -0.560  1.00  0.00    -0.063 NA
HETATM   14  C2  UNL     1       9.352   2.990  -1.906  1.00  0.00     0.220 C
ATOM     15  H1  UNL     1       8.002   1.568  -2.169  1.00  0.00     0.171 HD
HETATM   16  C1  UNL     1       9.066   3.509  -3.340  1.00  0.00     0.117 C
HETATM   17  O1  UNL     1      10.220   3.678  -1.357  1.00  0.00    -0.274 OA
HETATM   18  O2  UNL     1      10.759   2.671   1.398  1.00  0.00    -0.264 OA
ENDBRANCH   1   8
BRANCH   5  19
HETATM   19  C7  UNL     1      11.759  -1.111   5.428  1.00  0.00     0.221 A
HETATM   20  N5  UNL     1      11.143  -1.971   6.241  1.00  0.00    -0.272 N
HETATM   21  N6  UNL     1      12.027  -2.830   6.717  1.00  0.00    -0.243 N
ATOM     22  H5  UNL     1      10.147  -1.966   6.461  1.00  0.00     0.189 HD
HETATM   23  C8  UNL     1      13.217  -2.497   6.187  1.00  0.00     0.386 A
ATOM     24  H6  UNL     1      11.843  -3.598   7.363  1.00  0.00     0.192 HD
HETATM   25  O4  UNL     1      14.328  -3.082   6.396  1.00  0.00    -0.236 OA
HETATM   26  O5  UNL     1      13.018  -1.445   5.407  1.00  0.00    -0.237 OA
ENDBRANCH   5  19
TORSDOF 2
ENDMDL