MODEL 3
REMARK VINA RESULT: -6.632808967      2.930      5.928
REMARK  5 active torsions:
REMARK  status: ('A' for Active; 'I' for Inactive)
REMARK    1  A    between atoms: S1_2  and  C2_3
REMARK    2  A    between atoms: C4_11  and  N4_12
REMARK    3  A    between atoms: N4_12  and  N5_14
REMARK    4  A    between atoms: C5_19  and  N7_20
REMARK    5  A    between atoms: N7_20  and  O1_22
ROOT
HETATM    1  C2  UNL     1      11.688  -0.239   0.989  1.00  0.00     0.106 A
HETATM    2  N1  UNL     1      12.414  -1.358   0.931  1.00  0.00    -0.291 N
ATOM      3  H1  UNL     1      12.671  -1.739   0.021  1.00  0.00     0.187 HD
HETATM    4  N2  UNL     1      12.805  -1.980   2.025  1.00  0.00    -0.283 N
ATOM      5  H2  UNL     1      13.356  -2.832   1.925  1.00  0.00     0.188 HD
HETATM    6  C3  UNL     1      12.520  -1.557   3.245  1.00  0.00     0.151 A
HETATM    7  N3  UNL     1      12.945  -2.228   4.326  1.00  0.00    -0.173 N
ATOM      8  H3  UNL     1      13.496  -3.079   4.221  1.00  0.00     0.186 HD
HETATM    9  C4  UNL     1      12.634  -1.766   5.546  1.00  0.00     0.699 A
HETATM   10  N6  UNL     1      11.909  -0.650   5.699  1.00  0.00    -0.172 N
ATOM     11  H6  UNL     1      11.691  -0.329   6.642  1.00  0.00     0.186 HD
HETATM   12  C5  UNL     1      11.453   0.071   4.635  1.00  0.00     0.156 A
HETATM   13  C6  UNL     1      11.762  -0.389   3.384  1.00  0.00     0.080 A
HETATM   14  C7  UNL     1      11.347   0.267   2.249  1.00  0.00     0.097 A
HETATM   15  C8  UNL     1      10.564   1.476   2.345  1.00  0.00     0.103 C
HETATM   16  N8  UNL     1       9.920   2.471   2.384  1.00  0.00    -0.191 NA
ENDROOT
BRANCH   1  17
HETATM   17  S1  UNL     1      11.108   0.677  -0.424  1.00  0.00    -0.114 SA
HETATM   18  C1  UNL     1       9.490   0.161  -0.983  1.00  0.00     0.097 C
ENDBRANCH   1  17
BRANCH  12  19
HETATM   19  N7  UNL     1      10.773   1.117   4.854  1.00  0.00    -0.252 N
ATOM     20  H7  UNL     1      11.175   2.000   4.540  1.00  0.00     0.196 HD
BRANCH  19  21
HETATM   21  O1  UNL     1       9.568   1.178   5.463  1.00  0.00    -0.288 OA
ATOM     22  H1  UNL     1       9.290   1.825   6.100  1.00  0.00     0.244 HD
ENDBRANCH  19  21
ENDBRANCH  12  19
BRANCH   9  23
HETATM   23  N4  UNL     1      13.023  -2.381   6.597  1.00  0.00    -0.138 N
ATOM     24  H4  UNL     1      12.586  -2.125   7.482  1.00  0.00     0.205 HD
BRANCH  23  25
HETATM   25  N5  UNL     1      13.993  -3.370   6.624  1.00  0.00    -0.331 N
ATOM     26  H52 UNL     1      14.845  -3.185   6.093  1.00  0.00     0.177 HD
ATOM     27  H51 UNL     1      13.914  -4.252   7.130  1.00  0.00     0.177 HD
ENDBRANCH  23  25
ENDBRANCH   9  23
TORSDOF 5
ENDMDL