MODEL 1
REMARK VINA RESULT: -7.200472533      0.000      0.000
REMARK  3 active torsions:
REMARK  status: ('A' for Active; 'I' for Inactive)
REMARK    1  A    between atoms: N1_4  and  C4_5
REMARK    2  A    between atoms: C7_11  and  N3_12
REMARK    3  A    between atoms: C8_19  and  N7_21
ROOT
HETATM    1  C4  UNL     1      12.553  -1.452   3.886  1.00  0.00     0.142 A
HETATM    2  C5  UNL     1      13.429  -2.299   4.536  1.00  0.00     0.125 A
HETATM    3  C6  UNL     1      13.484  -2.364   5.913  1.00  0.00     0.263 A
HETATM    4  O1  UNL     1      14.279  -3.133   6.512  1.00  0.00    -0.268 OA
HETATM    5  N2  UNL     1      12.672  -1.595   6.642  1.00  0.00    -0.156 N
ATOM      6  H2  UNL     1      12.707  -1.640   7.661  1.00  0.00     0.187 HD
HETATM    7  C7  UNL     1      11.814  -0.767   6.040  1.00  0.00     0.680 A
HETATM    8  N4  UNL     1      11.777  -0.718   4.701  1.00  0.00    -0.175 N
ATOM      9  H4  UNL     1      11.111  -0.077   4.269  1.00  0.00     0.186 HD
ENDROOT
BRANCH   1  10
HETATM   10  N1  UNL     1      12.504  -1.383   2.458  1.00  0.00    -0.250 N
HETATM   11  C2  UNL     1      12.202  -0.251   1.622  1.00  0.00     0.093 C
HETATM   12  C1  UNL     1      13.301   0.762   1.778  1.00  0.00     0.044 C
HETATM   13  C3  UNL     1      10.840   0.333   1.910  1.00  0.00     0.044 C
HETATM   14  C8  UNL     1      12.208  -0.864   0.240  1.00  0.00     0.205 C
HETATM   15  N6  UNL     1      11.948  -2.292   0.520  1.00  0.00    -0.085 NA
HETATM   16  C9  UNL     1      13.609  -0.808  -0.379  1.00  0.00     0.069 C
HETATM   17  N5  UNL     1      12.772  -2.458   1.634  1.00  0.00    -0.024 NA
BRANCH  14  18
HETATM   18  N7  UNL     1      11.277  -0.315  -0.680  1.00  0.00    -0.124 N
HETATM   19  O2  UNL     1      11.523   0.777  -1.247  1.00  0.00    -0.535 OA
HETATM   20  O3  UNL     1      10.088  -0.920  -1.002  1.00  0.00    -0.535 OA
ENDBRANCH  14  18
ENDBRANCH   1  10
BRANCH   7  21
HETATM   21  N3  UNL     1      11.015  -0.010   6.762  1.00  0.00    -0.234 N
ATOM     22  H32 UNL     1      11.394   0.724   7.361  1.00  0.00     0.174 HD
ATOM     23  H31 UNL     1      10.006  -0.155   6.725  1.00  0.00     0.174 HD
ENDBRANCH   7  21
TORSDOF 3
ENDMDL