MODEL 3
REMARK VINA RESULT: -5.622670304      1.890      2.289
REMARK  5 active torsions:
REMARK  status: ('A' for Active; 'I' for Inactive)
REMARK    1  A    between atoms: C5_6  and  O2_7
REMARK    2  A    between atoms: O2_7  and  C6_8
REMARK    3  A    between atoms: C8_12  and  O4_13
REMARK    4  A    between atoms: C9_15  and  O5_16
REMARK    5  A    between atoms: C10_18  and  O6_19
ROOT
HETATM    1  C6  UNL     1      13.268  -0.671   3.944  1.00  0.00     0.293 C
HETATM    2  O3  UNL     1      14.164  -1.707   3.992  1.00  0.00    -0.340 OA
HETATM    3  C7  UNL     1      13.477  -2.811   4.431  1.00  0.00     0.228 C
HETATM    4  S1  UNL     1      12.407  -3.393   3.096  1.00  0.00    -0.060 SA
HETATM    5  C8  UNL     1      12.680  -2.252   5.590  1.00  0.00     0.191 C
HETATM    6  C9  UNL     1      12.506  -0.791   5.227  1.00  0.00     0.205 C
ENDROOT
BRANCH   1   7
HETATM    7  O2  UNL     1      12.513  -0.585   2.816  1.00  0.00    -0.348 OA
BRANCH   7   8
HETATM    8  C5  UNL     1      12.671   0.517   2.033  1.00  0.00     0.180 C
HETATM    9  C4  UNL     1      13.883   0.276   1.157  1.00  0.00     0.203 C
HETATM   10  O1  UNL     1      13.457  -0.059  -0.092  1.00  0.00    -0.376 OA
HETATM   11  C2  UNL     1      12.097  -0.063  -0.154  1.00  0.00     0.082 C
HETATM   12  C1  UNL     1      11.532   0.571  -1.410  1.00  0.00     0.048 C
HETATM   13  C3  UNL     1      11.562  -1.488  -0.112  1.00  0.00     0.048 C
HETATM   14  C10 UNL     1      11.608   0.748   1.019  1.00  0.00     0.183 C
BRANCH  14  15
HETATM   15  O6  UNL     1      10.333   0.428   1.419  1.00  0.00    -0.390 OA
ATOM     16  H6  UNL     1      10.280   0.118   2.315  1.00  0.00     0.210 HD
ENDBRANCH  14  15
ENDBRANCH   7   8
ENDBRANCH   1   7
BRANCH   6  17
HETATM   17  O5  UNL     1      13.122  -0.052   6.237  1.00  0.00    -0.388 OA
ATOM     18  H5  UNL     1      12.487   0.217   6.891  1.00  0.00     0.210 HD
ENDBRANCH   6  17
BRANCH   5  19
HETATM   19  O4  UNL     1      13.340  -2.436   6.783  1.00  0.00    -0.389 OA
ATOM     20  H4  UNL     1      12.765  -2.811   7.440  1.00  0.00     0.210 HD
ENDBRANCH   5  19
TORSDOF 5
ENDMDL