MODEL 4
REMARK VINA RESULT: -6.000927647      3.041      3.851
REMARK  8 active torsions:
REMARK  status: ('A' for Active; 'I' for Inactive)
REMARK    1  A    between atoms: O1_2  and  C2_3
REMARK       I    between atoms: C2_3  and  N1_5
REMARK    2  A    between atoms: N1_5  and  C3_6
REMARK    3  A    between atoms: C3_6  and  C4_7
REMARK    4  A    between atoms: C5_9  and  O4_10
REMARK    5  A    between atoms: C6_12  and  O5_13
REMARK    6  A    between atoms: C6_12  and  C7_15
REMARK    7  A    between atoms: C7_15  and  O6_17
REMARK    8  A    between atoms: C9_20  and  O8_21
ROOT
HETATM    1  C4  UNL     1      10.615   0.534   2.977  1.00  0.00     0.231 C
HETATM    2  O3  UNL     1      11.291   0.469   4.161  1.00  0.00    -0.339 OA
HETATM    3  C5  UNL     1      12.005  -0.684   4.371  1.00  0.00     0.323 C
HETATM    4  C6  UNL     1      12.814  -1.149   3.215  1.00  0.00     0.241 C
HETATM    5  O7  UNL     1      12.075  -1.028   2.046  1.00  0.00    -0.316 OA
HETATM    6  C9  UNL     1      11.594   0.263   1.851  1.00  0.00     0.295 C
ENDROOT
BRANCH   1   7
HETATM    7  C3  UNL     1      10.275   2.027   2.801  1.00  0.00     0.198 C
BRANCH   7   8
HETATM    8  N1  UNL     1      10.178   2.621   1.831  1.00  0.00    -0.360 NA
HETATM    9  C2  UNL     1       9.902   3.353   0.767  1.00  0.00     0.438 C
HETATM   10  O2  UNL     1      10.770   4.031   0.076  1.00  0.00    -0.221 OA
BRANCH   9  11
HETATM   11  O1  UNL     1       8.601   3.480   0.253  1.00  0.00    -0.298 OA
HETATM   12  C1  UNL     1       8.429   3.675  -1.127  1.00  0.00     0.216 C
ENDBRANCH   9  11
ENDBRANCH   7   8
ENDBRANCH   1   7
BRANCH   6  13
HETATM   13  O8  UNL     1      12.604   1.220   1.965  1.00  0.00    -0.368 OA
ATOM     14  H8  UNL     1      13.317   0.928   1.409  1.00  0.00     0.212 HD
ENDBRANCH   6  13
BRANCH   3  15
HETATM   15  O4  UNL     1      12.822  -0.451   5.500  1.00  0.00    -0.366 OA
ATOM     16  H4  UNL     1      12.616   0.425   5.805  1.00  0.00     0.212 HD
ENDBRANCH   3  15
BRANCH   4  17
HETATM   17  O5  UNL     1      13.980  -0.409   3.018  1.00  0.00    -0.360 OA
ATOM     18  H5  UNL     1      14.305  -0.446   2.126  1.00  0.00     0.213 HD
ENDBRANCH   4  17
BRANCH   4  19
HETATM   19  C7  UNL     1      13.217  -2.591   3.374  1.00  0.00     0.181 C
HETATM   20  C8  UNL     1      12.024  -3.506   3.514  1.00  0.00     0.045 C
BRANCH  19  21
HETATM   21  O6  UNL     1      13.949  -2.744   4.572  1.00  0.00    -0.390 OA
ATOM     22  H6  UNL     1      13.971  -1.916   5.038  1.00  0.00     0.210 HD
ENDBRANCH  19  21
ENDBRANCH   4  19
TORSDOF 8
ENDMDL