MODEL 4
REMARK VINA RESULT: -5.504820322      1.371      1.438
REMARK  5 active torsions:
REMARK  status: ('A' for Active; 'I' for Inactive)
REMARK    1  A    between atoms: C3_4  and  O2_6
REMARK    2  A    between atoms: C5_8  and  O3_9
REMARK    3  A    between atoms: O3_9  and  C6_10
REMARK    4  A    between atoms: C8_15  and  O4_16
REMARK    5  A    between atoms: C9_18  and  O5_19
ROOT
HETATM    1  C1  UNL     1      12.012  -0.306  -2.518  1.00  0.00     0.042 C
HETATM    2  C2  UNL     1      12.042  -0.264  -1.022  1.00  0.00     0.152 C
HETATM    3  O1  UNL     1      11.345   0.836  -0.565  1.00  0.00    -0.345 OA
HETATM    4  C3  UNL     1      11.219   0.902   0.800  1.00  0.00     0.187 C
HETATM    5  C4  UNL     1      11.459   2.312   1.291  1.00  0.00     0.082 C
HETATM    6  C5  UNL     1      12.048  -0.111   1.542  1.00  0.00     0.217 C
HETATM    7  C8  UNL     1      13.425  -0.287   0.981  1.00  0.00     0.183 C
HETATM    8  C9  UNL     1      13.479  -0.113  -0.508  1.00  0.00     0.178 C
ENDROOT
BRANCH   6   9
HETATM    9  O3  UNL     1      12.126   0.303   2.868  1.00  0.00    -0.346 OA
BRANCH   9  10
HETATM   10  C6  UNL     1      11.672  -0.623   3.763  1.00  0.00     0.295 C
HETATM   11  N1  UNL     1      11.894  -1.984   3.306  1.00  0.00    -0.105 NA
HETATM   12  N2  UNL     1      11.874  -2.814   4.431  1.00  0.00    -0.135 NA
HETATM   13  C7  UNL     1      13.016  -2.455   5.256  1.00  0.00     0.208 C
HETATM   14  S1  UNL     1      12.853  -0.620   5.180  1.00  0.00    -0.102 SA
ENDBRANCH   9  10
ENDBRANCH   6   9
BRANCH   4  15
HETATM   15  O2  UNL     1       9.869   0.609   1.107  1.00  0.00    -0.363 OA
ATOM     16  H2  UNL     1       9.848   0.302   2.007  1.00  0.00     0.213 HD
ENDBRANCH   4  15
BRANCH   7  17
HETATM   17  O4  UNL     1      14.308   0.547   1.661  1.00  0.00    -0.390 OA
ATOM     18  H4  UNL     1      15.139   0.566   1.200  1.00  0.00     0.210 HD
ENDBRANCH   7  17
BRANCH   8  19
HETATM   19  O5  UNL     1      14.235  -1.077  -1.144  1.00  0.00    -0.390 OA
ATOM     20  H5  UNL     1      14.169  -1.867  -0.621  1.00  0.00     0.210 HD
ENDBRANCH   8  19
TORSDOF 5
ENDMDL