MODEL 2
REMARK VINA RESULT: -6.139882067      3.109      4.368
REMARK  6 active torsions:
REMARK  status: ('A' for Active; 'I' for Inactive)
REMARK    1  A    between atoms: O1_2  and  C2_3
REMARK    2  A    between atoms: N1_5  and  O2_7
REMARK    3  A    between atoms: O2_7  and  C4_8
REMARK    4  A    between atoms: C7_13  and  O4_14
REMARK    5  A    between atoms: C8_16  and  O5_17
REMARK    6  A    between atoms: C9_19  and  O6_20
ROOT
HETATM    1  C4  UNL     1      11.932  -1.889   3.694  1.00  0.00     0.322 C
HETATM    2  O3  UNL     1      11.530  -0.731   4.252  1.00  0.00    -0.331 OA
HETATM    3  C5  UNL     1      11.092  -0.684   5.511  1.00  0.00     0.146 C
HETATM    4  C6  UNL     1       9.571  -0.573   5.612  1.00  0.00     0.062 C
HETATM    5  S1  UNL     1      11.733   0.867   6.262  1.00  0.00    -0.053 SA
HETATM    6  C7  UNL     1      11.514  -1.795   6.424  1.00  0.00     0.195 C
HETATM    7  C8  UNL     1      12.896  -2.247   5.942  1.00  0.00     0.184 C
HETATM    8  C9  UNL     1      12.634  -2.860   4.580  1.00  0.00     0.207 C
ENDROOT
BRANCH   1   9
HETATM    9  O2  UNL     1      12.727  -1.544   2.555  1.00  0.00    -0.243 OA
BRANCH   9  10
HETATM   10  N1  UNL     1      12.711  -2.212   1.387  1.00  0.00    -0.246 N
HETATM   11  C2  UNL     1      13.064  -1.755   0.243  1.00  0.00     0.133 C
HETATM   12  C3  UNL     1      13.554  -0.366   0.072  1.00  0.00     0.099 C
ATOM     13  H1  UNL     1      12.387  -3.178   1.416  1.00  0.00     0.196 HD
BRANCH  11  14
HETATM   14  O1  UNL     1      12.975  -2.605  -0.850  1.00  0.00    -0.343 OA
HETATM   15  C1  UNL     1      12.861  -4.026  -0.666  1.00  0.00     0.211 C
ENDBRANCH  11  14
ENDBRANCH   9  10
ENDBRANCH   1   9
BRANCH   8  16
HETATM   16  O6  UNL     1      13.858  -3.287   4.079  1.00  0.00    -0.388 OA
ATOM     17  H6  UNL     1      13.858  -3.423   3.140  1.00  0.00     0.210 HD
ENDBRANCH   8  16
BRANCH   7  18
HETATM   18  O5  UNL     1      13.477  -3.140   6.816  1.00  0.00    -0.390 OA
ATOM     19  H5  UNL     1      13.382  -2.862   7.719  1.00  0.00     0.210 HD
ENDBRANCH   7  18
BRANCH   6  20
HETATM   20  O4  UNL     1      11.564  -1.309   7.714  1.00  0.00    -0.389 OA
ATOM     21  H4  UNL     1      11.662  -2.042   8.310  1.00  0.00     0.210 HD
ENDBRANCH   6  20
TORSDOF 6
ENDMDL