MODEL 4
REMARK VINA RESULT: -5.470484025      1.656      2.405
REMARK  1 active torsions:
REMARK  status: ('A' for Active; 'I' for Inactive)
REMARK    1  A    between atoms: N1_1  and  C1_4
REMARK       I    between atoms: N4_13  and  C4_14
ROOT
HETATM    1  C1  UNL     1      38.873   2.365  40.476  1.00  0.00     0.704 A
HETATM    2  N2  UNL     1      40.172   2.102  40.161  1.00  0.00    -0.150 N
ATOM      3  H2  UNL     1      40.501   2.269  39.210  1.00  0.00     0.188 HD
HETATM    4  C2  UNL     1      41.029   1.624  41.082  1.00  0.00     0.329 A
HETATM    5  O1  UNL     1      42.242   1.370  40.819  1.00  0.00    -0.261 OA
HETATM    6  C3  UNL     1      40.521   1.419  42.350  1.00  0.00     0.329 A
HETATM    7  O2  UNL     1      41.273   0.970  43.268  1.00  0.00    -0.261 OA
HETATM    8  N3  UNL     1      39.231   1.685  42.646  1.00  0.00    -0.237 N
ATOM      9  H3  UNL     1      38.888   1.521  43.592  1.00  0.00     0.191 HD
HETATM   10  N4  UNL     1      38.407   2.153  41.726  1.00  0.00    -0.031 N
HETATM   11  C4  UNL     1      37.045   2.440  42.012  1.00  0.00     0.368 C
HETATM   12  N5  UNL     1      36.122   2.935  41.097  1.00  0.00    -0.037 NA
HETATM   13  O3  UNL     1      36.642   2.229  43.200  1.00  0.00    -0.248 OA
ENDROOT
BRANCH   1  14
HETATM   14  N1  UNL     1      38.047   2.822  39.603  1.00  0.00    -0.233 N
ATOM     15  H12 UNL     1      37.118   3.090  39.929  1.00  0.00     0.174 HD
ATOM     16  H11 UNL     1      38.303   2.914  38.621  1.00  0.00     0.174 HD
ENDBRANCH   1  14
TORSDOF 1
ENDMDL