MODEL 3
REMARK VINA RESULT: -6.784392671      1.148      2.388
REMARK  1 active torsions:
REMARK  status: ('A' for Active; 'I' for Inactive)
REMARK    1  A    between atoms: N1_1  and  C1_4
ROOT
HETATM    1  C1  UNL     1      41.201   2.091  41.078  1.00  0.00     0.706 A
HETATM    2  N2  UNL     1      40.356   1.901  40.051  1.00  0.00    -0.019 N
ATOM      3  H2  UNL     1      40.624   1.571  39.123  1.00  0.00     0.203 HD
HETATM    4  C2  UNL     1      39.094   2.216  40.435  1.00  0.00     0.727 A
HETATM    5  N3  UNL     1      37.900   2.202  39.798  1.00  0.00    -0.138 N
ATOM      6  H3  UNL     1      37.866   1.902  38.824  1.00  0.00     0.189 HD
HETATM    7  C3  UNL     1      36.755   2.568  40.404  1.00  0.00     0.342 A
HETATM    8  O1  UNL     1      35.651   2.546  39.786  1.00  0.00    -0.246 OA
HETATM    9  N4  UNL     1      36.850   2.956  41.689  1.00  0.00    -0.258 N
ATOM     10  H4  UNL     1      36.003   3.241  42.181  1.00  0.00     0.175 HD
HETATM   11  C4  UNL     1      38.023   2.981  42.352  1.00  0.00     0.365 A
HETATM   12  O2  UNL     1      38.068   3.344  43.533  1.00  0.00    -0.244 OA
HETATM   13  N5  UNL     1      39.169   2.607  41.721  1.00  0.00    -0.016 N
HETATM   14  N6  UNL     1      40.437   2.527  42.095  1.00  0.00    -0.106 N
ATOM     15  H6  UNL     1      40.784   2.763  43.024  1.00  0.00     0.207 HD
ENDROOT
BRANCH   1  16
HETATM   16  N1  UNL     1      42.485   1.912  41.139  1.00  0.00    -0.233 N
ATOM     17  H12 UNL     1      43.068   2.145  41.943  1.00  0.00     0.174 HD
ATOM     18  H11 UNL     1      43.123   1.530  40.442  1.00  0.00     0.174 HD
ENDBRANCH   1  16
TORSDOF 1
ENDMDL