MODEL 1
REMARK VINA RESULT: -5.887061803      0.000      0.000
REMARK  1 active torsions:
REMARK  status: ('A' for Active; 'I' for Inactive)
REMARK    1  A    between atoms: N1_1  and  C1_4
REMARK       I    between atoms: N5_12  and  C3_14
ROOT
HETATM    1  C1  UNL     1      40.582   2.056  41.484  1.00  0.00     0.161 A
HETATM    2  N2  UNL     1      40.413   2.529  42.714  1.00  0.00    -0.265 N
ATOM      3  H2  UNL     1      41.234   2.522  43.320  1.00  0.00     0.190 HD
HETATM    4  N3  UNL     1      39.323   2.998  43.232  1.00  0.00    -0.239 N
ATOM      5  H3  UNL     1      39.397   3.316  44.198  1.00  0.00     0.208 HD
HETATM    6  N4  UNL     1      38.137   3.121  42.687  1.00  0.00    -0.265 N
ATOM      7  H4  UNL     1      37.393   3.518  43.260  1.00  0.00     0.190 HD
HETATM    8  C2  UNL     1      37.829   2.763  41.426  1.00  0.00     0.171 A
HETATM    9  N5  UNL     1      36.627   2.926  40.983  1.00  0.00    -0.290 N
ATOM     10  H5  UNL     1      35.923   3.327  41.604  1.00  0.00     0.172 HD
HETATM   11  C3  UNL     1      36.252   2.564  39.663  1.00  0.00     0.334 C
HETATM   12  N6  UNL     1      37.158   2.631  38.573  1.00  0.00    -0.040 NA
HETATM   13  O1  UNL     1      35.083   2.169  39.432  1.00  0.00    -0.251 OA
HETATM   14  S1  UNL     1      39.140   2.111  40.549  1.00  0.00    -0.015 SA
ENDROOT
BRANCH   1  15
HETATM   15  N1  UNL     1      41.727   1.621  41.103  1.00  0.00    -0.378 N
ATOM     16  H12 UNL     1      42.426   1.155  41.681  1.00  0.00     0.158 HD
ATOM     17  H11 UNL     1      42.025   1.723  40.133  1.00  0.00     0.158 HD
ENDBRANCH   1  15
TORSDOF 1
ENDMDL