MODEL 5
REMARK VINA RESULT: -5.696588869      2.129      3.302
REMARK  2 active torsions:
REMARK  status: ('A' for Active; 'I' for Inactive)
REMARK    1  A    between atoms: N1_1  and  N2_4
REMARK    2  A    between atoms: N2_4  and  C1_6
ROOT
HETATM    1  C1  UNL     1      37.792   2.888  42.266  1.00  0.00     0.702 A
HETATM    2  N3  UNL     1      37.117   2.767  41.115  1.00  0.00    -0.140 N
ATOM      3  H3  UNL     1      36.123   2.991  41.087  1.00  0.00     0.189 HD
HETATM    4  C2  UNL     1      37.740   2.350  39.991  1.00  0.00     0.340 A
HETATM    5  O1  UNL     1      37.118   2.230  38.894  1.00  0.00    -0.246 OA
HETATM    6  N4  UNL     1      39.050   2.051  40.014  1.00  0.00    -0.284 N
ATOM      7  H4  UNL     1      39.525   1.736  39.168  1.00  0.00     0.173 HD
HETATM    8  C3  UNL     1      39.719   2.174  41.164  1.00  0.00     0.194 A
HETATM    9  S1  UNL     1      41.308   1.816  41.212  1.00  0.00    -0.040 SA
HETATM   10  N5  UNL     1      39.099   2.593  42.303  1.00  0.00    -0.164 N
ATOM     11  H5  UNL     1      39.624   2.680  43.173  1.00  0.00     0.186 HD
ENDROOT
BRANCH   1  12
HETATM   12  N2  UNL     1      37.203   3.282  43.332  1.00  0.00    -0.138 N
ATOM     13  H2  UNL     1      37.628   4.027  43.884  1.00  0.00     0.205 HD
BRANCH  12  14
HETATM   14  N1  UNL     1      36.003   2.729  43.763  1.00  0.00    -0.331 N
ATOM     15  H12 UNL     1      35.506   3.197  44.520  1.00  0.00     0.177 HD
ATOM     16  H11 UNL     1      35.616   1.881  43.347  1.00  0.00     0.177 HD
ENDBRANCH  12  14
ENDBRANCH   1  12
TORSDOF 2
ENDMDL