MODEL 3
REMARK VINA RESULT: -7.390797160      2.128      4.031
REMARK  1 active torsions:
REMARK  status: ('A' for Active; 'I' for Inactive)
REMARK    1  A    between atoms: N1_1  and  C1_4
ROOT
HETATM    1  C1  UNL     1      36.539   2.444  39.446  1.00  0.00     0.680 A
HETATM    2  N2  UNL     1      36.025   2.421  40.689  1.00  0.00    -0.155 N
ATOM      3  H2  UNL     1      35.012   2.392  40.800  1.00  0.00     0.187 HD
HETATM    4  C2  UNL     1      36.798   2.435  41.791  1.00  0.00     0.279 A
HETATM    5  O1  UNL     1      36.332   2.415  42.956  1.00  0.00    -0.266 OA
HETATM    6  C3  UNL     1      38.160   2.474  41.640  1.00  0.00     0.147 A
HETATM    7  C4  UNL     1      38.988   2.490  42.751  1.00  0.00     0.280 A
HETATM    8  O2  UNL     1      38.490   2.468  43.907  1.00  0.00    -0.266 OA
HETATM    9  N3  UNL     1      40.317   2.528  42.529  1.00  0.00    -0.251 N
ATOM     10  H3  UNL     1      40.957   2.540  43.322  1.00  0.00     0.192 HD
HETATM   11  N4  UNL     1      40.810   2.550  41.284  1.00  0.00    -0.238 N
ATOM     12  H4  UNL     1      41.821   2.578  41.149  1.00  0.00     0.208 HD
HETATM   13  N5  UNL     1      40.017   2.535  40.225  1.00  0.00    -0.269 N
ATOM     14  H5  UNL     1      40.432   2.553  39.293  1.00  0.00     0.190 HD
HETATM   15  C5  UNL     1      38.664   2.496  40.344  1.00  0.00     0.158 A
HETATM   16  N6  UNL     1      37.872   2.482  39.261  1.00  0.00    -0.174 N
ATOM     17  H6  UNL     1      38.270   2.499  38.322  1.00  0.00     0.186 HD
ENDROOT
BRANCH   1  18
HETATM   18  N1  UNL     1      35.722   2.428  38.425  1.00  0.00    -0.234 N
ATOM     19  H12 UNL     1      35.080   1.649  38.282  1.00  0.00     0.174 HD
ATOM     20  H11 UNL     1      35.737   3.212  37.772  1.00  0.00     0.174 HD
ENDBRANCH   1  18
TORSDOF 1
ENDMDL