MODEL 3
REMARK VINA RESULT: -6.288030303      1.762      2.821
REMARK  1 active torsions:
REMARK  status: ('A' for Active; 'I' for Inactive)
REMARK    1  A    between atoms: N1_1  and  C1_4
ROOT
HETATM    1  C1  UNL     1      36.703   2.854  42.961  1.00  0.00     0.681 A
HETATM    2  N2  UNL     1      38.036   3.107  43.111  1.00  0.00    -0.179 N
ATOM      3  H2  UNL     1      38.395   3.372  44.028  1.00  0.00     0.185 HD
HETATM    4  C2  UNL     1      38.883   3.014  42.073  1.00  0.00     0.124 A
HETATM    5  N3  UNL     1      38.371   2.663  40.881  1.00  0.00    -0.268 N
HETATM    6  C3  UNL     1      37.074   2.406  40.685  1.00  0.00     0.343 A
HETATM    7  O1  UNL     1      36.611   2.079  39.567  1.00  0.00    -0.246 OA
HETATM    8  N4  UNL     1      36.235   2.507  41.750  1.00  0.00    -0.141 N
ATOM      9  H4  UNL     1      35.240   2.316  41.629  1.00  0.00     0.189 HD
HETATM   10  C4  UNL     1      39.296   2.569  39.779  1.00  0.00     0.275 C
HETATM   11  N5  UNL     1      40.488   1.932  40.189  1.00  0.00    -0.322 N
ATOM     12  H5  UNL     1      40.954   1.257  39.583  1.00  0.00     0.181 HD
HETATM   13  N6  UNL     1      40.998   2.241  41.406  1.00  0.00    -0.332 N
ATOM     14  H6  UNL     1      41.817   1.757  41.775  1.00  0.00     0.180 HD
HETATM   15  C5  UNL     1      40.345   3.272  42.155  1.00  0.00     0.216 C
ENDROOT
BRANCH   1  16
HETATM   16  N1  UNL     1      35.879   2.937  43.933  1.00  0.00    -0.234 N
ATOM     17  H12 UNL     1      36.242   2.890  44.885  1.00  0.00     0.174 HD
ATOM     18  H11 UNL     1      34.875   3.046  43.789  1.00  0.00     0.174 HD
ENDBRANCH   1  16
TORSDOF 1
ENDMDL