MODEL 2
REMARK VINA RESULT: -7.094501992      1.806      2.768
REMARK  1 active torsions:
REMARK  status: ('A' for Active; 'I' for Inactive)
REMARK    1  A    between atoms: N1_1  and  C1_4
ROOT
HETATM    1  C1  UNL     1      36.791   2.480  39.835  1.00  0.00     0.680 A
HETATM    2  N2  UNL     1      36.163   2.391  41.022  1.00  0.00    -0.154 N
ATOM      3  H2  UNL     1      35.157   2.231  41.034  1.00  0.00     0.187 HD
HETATM    4  C2  UNL     1      36.817   2.504  42.195  1.00  0.00     0.291 A
HETATM    5  O1  UNL     1      36.210   2.416  43.277  1.00  0.00    -0.265 OA
HETATM    6  C3  UNL     1      38.181   2.721  42.215  1.00  0.00     0.164 A
HETATM    7  N3  UNL     1      39.114   2.878  43.179  1.00  0.00    -0.278 N
ATOM      8  H3  UNL     1      38.935   2.857  44.183  1.00  0.00     0.189 HD
HETATM    9  N4  UNL     1      40.298   3.061  42.617  1.00  0.00    -0.240 N
ATOM     10  H4  UNL     1      41.182   3.205  43.105  1.00  0.00     0.208 HD
HETATM   11  N5  UNL     1      40.126   3.023  41.313  1.00  0.00    -0.268 N
ATOM     12  H5  UNL     1      40.873   3.135  40.628  1.00  0.00     0.190 HD
HETATM   13  C4  UNL     1      38.827   2.814  41.001  1.00  0.00     0.170 A
HETATM   14  N6  UNL     1      38.119   2.691  39.872  1.00  0.00    -0.173 N
ATOM     15  H6  UNL     1      38.616   2.762  38.985  1.00  0.00     0.186 HD
ENDROOT
BRANCH   1  16
HETATM   16  N1  UNL     1      36.139   2.366  38.716  1.00  0.00    -0.234 N
ATOM     17  H12 UNL     1      35.427   1.651  38.573  1.00  0.00     0.174 HD
ATOM     18  H11 UNL     1      36.317   2.995  37.933  1.00  0.00     0.174 HD
ENDBRANCH   1  16
TORSDOF 1
ENDMDL