MODEL 4
REMARK VINA RESULT: -6.073609749      2.017      2.567
REMARK  1 active torsions:
REMARK  status: ('A' for Active; 'I' for Inactive)
REMARK    1  A    between atoms: N1_1  and  N2_4
ROOT
HETATM    1  N2  UNL     1      40.119   2.210  40.937  1.00  0.00    -0.145 N
HETATM    2  N3  UNL     1      40.108   2.634  42.185  1.00  0.00    -0.258 N
ATOM      3  H3  UNL     1      40.929   2.815  42.763  1.00  0.00     0.191 HD
HETATM    4  C1  UNL     1      38.815   2.790  42.568  1.00  0.00     0.153 A
HETATM    5  C2  UNL     1      38.008   3.163  43.619  1.00  0.00     0.127 A
HETATM    6  C3  UNL     1      36.704   3.044  43.197  1.00  0.00     0.264 A
HETATM    7  O1  UNL     1      35.648   3.296  43.875  1.00  0.00    -0.267 OA
HETATM    8  N4  UNL     1      36.758   2.611  41.926  1.00  0.00    -0.254 N
ATOM      9  H4  UNL     1      35.944   2.427  41.339  1.00  0.00     0.191 HD
HETATM   10  N5  UNL     1      38.013   2.456  41.542  1.00  0.00    -0.182 N
HETATM   11  C4  UNL     1      38.844   2.101  40.545  1.00  0.00     0.383 A
HETATM   12  O2  UNL     1      38.493   1.717  39.396  1.00  0.00    -0.241 OA
ENDROOT
BRANCH   1  13
HETATM   13  N1  UNL     1      41.242   1.917  40.140  1.00  0.00    -0.320 N
ATOM     14  H12 UNL     1      42.211   2.112  40.394  1.00  0.00     0.179 HD
ATOM     15  H11 UNL     1      41.253   1.480  39.219  1.00  0.00     0.179 HD
ENDBRANCH   1  13
TORSDOF 1
ENDMDL