MODEL 2
REMARK VINA RESULT: -7.235174008      1.130      3.567
REMARK  1 active torsions:
REMARK  status: ('A' for Active; 'I' for Inactive)
REMARK    1  A    between atoms: N1_1  and  C1_4
ROOT
HETATM    1  C1  UNL     1      40.846   2.385  41.235  1.00  0.00     0.694 A
HETATM    2  N2  UNL     1      40.130   2.050  40.142  1.00  0.00    -0.140 N
ATOM      3  H2  UNL     1      40.608   1.749  39.293  1.00  0.00     0.189 HD
HETATM    4  C2  UNL     1      38.781   2.113  40.169  1.00  0.00     0.363 A
HETATM    5  O1  UNL     1      38.155   1.793  39.131  1.00  0.00    -0.245 OA
HETATM    6  N3  UNL     1      38.105   2.505  41.269  1.00  0.00    -0.039 N
HETATM    7  C3  UNL     1      36.790   2.653  41.555  1.00  0.00     0.364 A
HETATM    8  O2  UNL     1      35.863   2.415  40.729  1.00  0.00    -0.244 OA
HETATM    9  N4  UNL     1      36.679   3.074  42.808  1.00  0.00    -0.236 N
ATOM     10  H4  UNL     1      35.812   3.274  43.306  1.00  0.00     0.192 HD
HETATM   11  N5  UNL     1      37.896   3.184  43.284  1.00  0.00    -0.127 N
ATOM     12  H5  UNL     1      38.118   3.490  44.232  1.00  0.00     0.205 HD
HETATM   13  C4  UNL     1      38.816   2.840  42.361  1.00  0.00     0.726 A
HETATM   14  N6  UNL     1      40.159   2.771  42.314  1.00  0.00    -0.020 N
ATOM     15  H6  UNL     1      40.683   3.028  43.150  1.00  0.00     0.203 HD
ENDROOT
BRANCH   1  16
HETATM   16  N1  UNL     1      42.144   2.334  41.237  1.00  0.00    -0.234 N
ATOM     17  H12 UNL     1      42.654   1.684  40.639  1.00  0.00     0.174 HD
ATOM     18  H11 UNL     1      42.700   2.943  41.838  1.00  0.00     0.174 HD
ENDBRANCH   1  16
TORSDOF 1
ENDMDL