MODEL 4
REMARK VINA RESULT: -5.110838513      1.777      2.653
REMARK  1 active torsions:
REMARK  status: ('A' for Active; 'I' for Inactive)
REMARK       I    between atoms: C1_4  and  N3_6
REMARK    1  A    between atoms: C4_14  and  N6_15
ROOT
HETATM    1  N1  UNL     1      40.649   1.441  42.172  1.00  0.00    -0.372 N
ATOM      2  H11 UNL     1      40.163   0.560  42.006  1.00  0.00     0.158 HD
ATOM      3  H12 UNL     1      41.608   1.431  42.521  1.00  0.00     0.158 HD
HETATM    4  C1  UNL     1      40.037   2.538  41.937  1.00  0.00     0.209 C
HETATM    5  N2  UNL     1      40.709   3.758  42.168  1.00  0.00    -0.062 NA
HETATM    6  N3  UNL     1      38.708   2.552  41.453  1.00  0.00    -0.205 N
HETATM    7  N4  UNL     1      37.714   2.776  42.313  1.00  0.00    -0.285 N
ATOM      8  H4  UNL     1      37.933   2.931  43.296  1.00  0.00     0.188 HD
HETATM    9  C2  UNL     1      36.445   2.802  41.919  1.00  0.00     0.201 A
HETATM   10  N5  UNL     1      36.105   2.602  40.634  1.00  0.00    -0.315 N
ATOM     11  H5  UNL     1      35.131   2.621  40.334  1.00  0.00     0.170 HD
HETATM   12  C3  UNL     1      37.102   2.375  39.762  1.00  0.00     0.292 A
HETATM   13  O1  UNL     1      36.873   2.176  38.521  1.00  0.00    -0.264 OA
HETATM   14  C4  UNL     1      38.413   2.346  40.150  1.00  0.00     0.192 A
ENDROOT
BRANCH  14  15
HETATM   15  N6  UNL     1      39.400   2.132  39.344  1.00  0.00    -0.379 N
ATOM     16  H62 UNL     1      40.195   2.761  39.236  1.00  0.00     0.158 HD
ATOM     17  H61 UNL     1      39.372   1.279  38.785  1.00  0.00     0.158 HD
ENDBRANCH  14  15
TORSDOF 1
ENDMDL