MODEL 5
REMARK VINA RESULT: -6.300217027      3.712      6.890
REMARK  18 active torsions:
REMARK  status: ('A' for Active; 'I' for Inactive)
REMARK    1  A    between atoms: N1_2  and  C3_4
REMARK    2  A    between atoms: C3_4  and  C4_5
REMARK    3  A    between atoms: C4_5  and  C5_6
REMARK    4  A    between atoms: C5_6  and  C6_7
REMARK    5  A    between atoms: C6_7  and  C7_8
REMARK    6  A    between atoms: C7_8  and  O1_9
REMARK    7  A    between atoms: O1_9  and  C8_10
REMARK    8  A    between atoms: C10_12  and  N2_13
REMARK    9  A    between atoms: N2_13  and  C11_15
REMARK   10  A    between atoms: C11_15  and  C12_16
REMARK   11  A    between atoms: C12_16  and  C13_17
REMARK   12  A    between atoms: C13_17  and  N3_18
REMARK   13  A    between atoms: C15_25  and  N7_26
REMARK   14  A    between atoms: N7_26  and  C16_28
REMARK   15  A    between atoms: C16_28  and  C17_29
REMARK   16  A    between atoms: C17_29  and  C18_30
REMARK   17  A    between atoms: C18_30  and  C19_31
REMARK   18  A    between atoms: C19_31  and  N8_32
ROOT
HETATM    1  C8  UNL     1      -5.319  55.380  38.801  1.00  0.00     0.161 A
HETATM    2  C9  UNL     1      -6.635  55.024  38.902  1.00  0.00     0.105 A
HETATM    3  C10 UNL     1      -7.640  55.947  39.231  1.00  0.00     0.120 A
HETATM    4  N6  UNL     1      -7.256  57.210  39.444  1.00  0.00    -0.177 N
ATOM      5  H6  UNL     1      -7.966  57.902  39.685  1.00  0.00     0.185 HD
HETATM    6  C15 UNL     1      -5.961  57.610  39.355  1.00  0.00     0.681 A
HETATM    7  N9  UNL     1      -5.043  56.698  39.039  1.00  0.00    -0.171 N
ATOM      8  H9  UNL     1      -4.071  57.002  38.972  1.00  0.00     0.186 HD
ENDROOT
BRANCH   3   9
HETATM    9  N2  UNL     1      -8.882  55.630  39.327  1.00  0.00    -0.376 N
ATOM     10  H2  UNL     1      -9.391  55.807  40.193  1.00  0.00     0.161 HD
BRANCH   9  11
HETATM   11  C11 UNL     1      -9.552  55.021  38.200  1.00  0.00     0.123 C
BRANCH  11  12
HETATM   12  C12 UNL     1     -11.050  55.256  38.252  1.00  0.00     0.039 C
BRANCH  12  13
HETATM   13  C13 UNL     1     -11.725  54.251  37.328  1.00  0.00     0.123 C
BRANCH  13  14
HETATM   14  N3  UNL     1     -12.012  54.780  36.031  1.00  0.00    -0.367 N
HETATM   15  C14 UNL     1     -11.318  54.364  35.024  1.00  0.00     0.196 C
HETATM   16  N4  UNL     1     -10.284  53.416  35.101  1.00  0.00    -0.067 NA
HETATM   17  N5  UNL     1     -11.669  54.945  33.764  1.00  0.00    -0.067 NA
ATOM     18  H3  UNL     1     -12.750  55.472  35.903  1.00  0.00     0.161 HD
ENDBRANCH  13  14
ENDBRANCH  12  13
ENDBRANCH  11  12
ENDBRANCH   9  11
ENDBRANCH   3   9
BRANCH   1  19
HETATM   19  O1  UNL     1      -4.324  54.521  38.492  1.00  0.00    -0.335 OA
BRANCH  19  20
HETATM   20  C7  UNL     1      -4.227  53.160  38.353  1.00  0.00     0.177 C
BRANCH  20  21
HETATM   21  C6  UNL     1      -2.916  52.765  37.769  1.00  0.00     0.027 C
BRANCH  21  22
HETATM   22  C5  UNL     1      -3.001  52.118  36.403  1.00  0.00     0.004 C
BRANCH  22  23
HETATM   23  C4  UNL     1      -2.035  52.823  35.486  1.00  0.00     0.030 C
BRANCH  23  24
HETATM   24  C3  UNL     1      -1.657  54.146  36.127  1.00  0.00     0.271 C
BRANCH  24  25
HETATM   25  N1  UNL     1      -1.892  55.252  35.198  1.00  0.00     0.080 N
HETATM   26  C1  UNL     1      -2.860  56.165  35.780  1.00  0.00     0.309 C
HETATM   27  C2  UNL     1      -2.353  54.754  33.911  1.00  0.00     0.309 C
ENDBRANCH  24  25
ENDBRANCH  23  24
ENDBRANCH  22  23
ENDBRANCH  21  22
ENDBRANCH  20  21
ENDBRANCH  19  20
ENDBRANCH   1  19
BRANCH   6  28
HETATM   28  N7  UNL     1      -5.655  58.847  39.573  1.00  0.00    -0.226 N
ATOM     29  H7  UNL     1      -5.561  59.126  40.549  1.00  0.00     0.177 HD
BRANCH  28  30
HETATM   30  C16 UNL     1      -5.435  59.859  38.602  1.00  0.00     0.138 C
BRANCH  30  31
HETATM   31  C17 UNL     1      -6.409  60.982  38.632  1.00  0.00     0.022 C
BRANCH  31  32
HETATM   32  C18 UNL     1      -6.872  61.230  40.039  1.00  0.00     0.029 C
BRANCH  32  33
HETATM   33  C19 UNL     1      -7.009  62.672  40.393  1.00  0.00     0.229 C
BRANCH  33  34
HETATM   34  N8  UNL     1      -5.880  63.148  41.184  1.00  0.00    -0.079 N
ATOM     35  H83 UNL     1      -5.091  62.504  41.128  1.00  0.00     0.274 HD
ATOM     36  H82 UNL     1      -5.449  63.968  40.758  1.00  0.00     0.274 HD
ATOM     37  H81 UNL     1      -6.143  63.329  42.153  1.00  0.00     0.274 HD
ENDBRANCH  33  34
ENDBRANCH  32  33
ENDBRANCH  31  32
ENDBRANCH  30  31
ENDBRANCH  28  30
ENDBRANCH   6  28
TORSDOF 18
ENDMDL