MODEL 2
REMARK VINA RESULT: -6.282421925      4.628      8.335
REMARK  17 active torsions:
REMARK  status: ('A' for Active; 'I' for Inactive)
REMARK    1  A    between atoms: C2_2  and  C3_3
REMARK    2  A    between atoms: C3_3  and  N1_4
REMARK    3  A    between atoms: N1_4  and  C4_6
REMARK    4  A    between atoms: C5_9  and  C6_10
REMARK    5  A    between atoms: C6_10  and  C7_11
REMARK    6  A    between atoms: C7_11  and  C8_12
REMARK    7  A    between atoms: C8_12  and  N3_13
REMARK    8  A    between atoms: C10_20  and  N7_21
REMARK    9  A    between atoms: N7_21  and  C11_23
REMARK   10  A    between atoms: C11_23  and  C12_24
REMARK   11  A    between atoms: C12_24  and  C13_25
REMARK   12  A    between atoms: C13_25  and  C14_26
REMARK   13  A    between atoms: C14_26  and  C15_27
REMARK   14  A    between atoms: C15_27  and  C16_28
REMARK   15  A    between atoms: C16_28  and  C17_29
REMARK   16  A    between atoms: C17_29  and  N8_30
REMARK   17  A    between atoms: N8_30  and  C18_32
ROOT
HETATM    1  C4  UNL     1      -6.274  61.274  39.619  1.00  0.00     0.694 A
HETATM    2  N2  UNL     1      -5.893  59.994  39.571  1.00  0.00    -0.180 N
ATOM      3  H2  UNL     1      -5.694  59.490  40.435  1.00  0.00     0.185 HD
HETATM    4  C5  UNL     1      -5.771  59.365  38.386  1.00  0.00     0.113 A
HETATM    5  N6  UNL     1      -6.027  60.018  37.257  1.00  0.00    -0.180 N
ATOM      6  H6  UNL     1      -5.932  59.541  36.361  1.00  0.00     0.185 HD
HETATM    7  C10 UNL     1      -6.413  61.314  37.294  1.00  0.00     0.694 A
HETATM    8  N9  UNL     1      -6.538  61.951  38.475  1.00  0.00    -0.022 N
ATOM      9  H9  UNL     1      -6.827  62.929  38.507  1.00  0.00     0.203 HD
ENDROOT
BRANCH   7  10
HETATM   10  N7  UNL     1      -6.670  61.984  36.236  1.00  0.00    -0.226 N
ATOM     11  H7  UNL     1      -6.988  62.947  36.346  1.00  0.00     0.177 HD
BRANCH  10  12
HETATM   12  C11 UNL     1      -6.538  61.464  34.889  1.00  0.00     0.138 C
BRANCH  12  13
HETATM   13  C12 UNL     1      -7.890  61.133  34.290  1.00  0.00     0.020 C
BRANCH  13  14
HETATM   14  C13 UNL     1      -7.824  60.102  33.216  1.00  0.00     0.002 C
BRANCH  14  15
HETATM   15  C14 UNL     1      -9.133  59.898  32.496  1.00  0.00     0.000 C
BRANCH  15  16
HETATM   16  C15 UNL     1      -9.268  58.510  31.939  1.00  0.00     0.002 C
BRANCH  16  17
HETATM   17  C16 UNL     1     -10.620  57.899  32.148  1.00  0.00     0.020 C
BRANCH  17  18
HETATM   18  C17 UNL     1     -10.475  56.505  32.756  1.00  0.00     0.122 C
BRANCH  18  19
HETATM   19  N8  UNL     1     -11.679  55.742  32.582  1.00  0.00    -0.368 N
ATOM     20  H8  UNL     1     -12.213  55.817  31.716  1.00  0.00     0.161 HD
BRANCH  19  21
HETATM   21  C18 UNL     1     -12.118  54.888  33.612  1.00  0.00     0.348 C
HETATM   22  O1  UNL     1     -11.382  53.974  34.022  1.00  0.00    -0.284 OA
ENDBRANCH  19  21
ENDBRANCH  18  19
ENDBRANCH  17  18
ENDBRANCH  16  17
ENDBRANCH  15  16
ENDBRANCH  14  15
ENDBRANCH  13  14
ENDBRANCH  12  13
ENDBRANCH  10  12
ENDBRANCH   7  10
BRANCH   4  23
HETATM   23  C6  UNL     1      -5.349  57.945  38.345  1.00  0.00     0.079 C
BRANCH  23  24
HETATM   24  C7  UNL     1      -5.415  57.331  39.721  1.00  0.00     0.027 C
BRANCH  24  25
HETATM   25  C8  UNL     1      -6.039  55.940  39.581  1.00  0.00     0.122 C
BRANCH  25  26
HETATM   26  N3  UNL     1      -7.468  56.133  39.500  1.00  0.00    -0.367 N
HETATM   27  C9  UNL     1      -8.250  55.308  38.865  1.00  0.00     0.196 C
HETATM   28  N4  UNL     1      -9.643  55.556  38.823  1.00  0.00    -0.067 NA
HETATM   29  N5  UNL     1      -7.640  54.193  38.241  1.00  0.00    -0.067 NA
ATOM     30  H3  UNL     1      -7.880  56.945  39.958  1.00  0.00     0.161 HD
ENDBRANCH  25  26
ENDBRANCH  24  25
ENDBRANCH  23  24
ENDBRANCH   4  23
BRANCH   1  31
HETATM   31  N1  UNL     1      -6.395  61.887  40.757  1.00  0.00    -0.222 N
ATOM     32  H1  UNL     1      -6.408  61.337  41.616  1.00  0.00     0.178 HD
BRANCH  31  33
HETATM   33  C3  UNL     1      -6.512  63.320  40.845  1.00  0.00     0.164 C
BRANCH  33  34
HETATM   34  C2  UNL     1      -5.371  63.828  41.651  1.00  0.00    -0.017 C
HETATM   35  C1  UNL     1      -5.280  65.112  42.010  1.00  0.00     0.008 C
ENDBRANCH  33  34
ENDBRANCH  31  33
ENDBRANCH   1  31
TORSDOF 17
ENDMDL