MODEL 2
REMARK VINA RESULT: -5.856401039      2.744      5.398
REMARK  16 active torsions:
REMARK  status: ('A' for Active; 'I' for Inactive)
REMARK    1  A    between atoms: N3_4  and  C2_6
REMARK    2  A    between atoms: C2_6  and  C3_7
REMARK    3  A    between atoms: C3_7  and  C4_8
REMARK    4  A    between atoms: C4_8  and  C5_9
REMARK    5  A    between atoms: C5_9  and  N4_10
REMARK    6  A    between atoms: N4_10  and  C6_11
REMARK    7  A    between atoms: N4_10  and  C11_21
REMARK    8  A    between atoms: C6_11  and  C7_12
REMARK    9  A    between atoms: C7_12  and  C8_13
REMARK   10  A    between atoms: C8_13  and  N5_14
REMARK   11  A    between atoms: N5_14  and  C9_17
REMARK   12  A    between atoms: C9_17  and  C10_18
REMARK   13  A    between atoms: C10_18  and  O1_19
REMARK   14  A    between atoms: C11_21  and  C12_22
REMARK   15  A    between atoms: C12_22  and  N6_23
REMARK   16  A    between atoms: N6_23  and  C13_26
ROOT
HETATM    1  N4  UNL     1      -2.333  59.012  34.824  1.00  0.00     0.090 N
ENDROOT
BRANCH   1   2
HETATM    2  C5  UNL     1      -2.216  58.294  33.491  1.00  0.00     0.272 C
BRANCH   2   3
HETATM    3  C4  UNL     1      -3.483  57.697  33.051  1.00  0.00     0.032 C
BRANCH   3   4
HETATM    4  C3  UNL     1      -3.218  56.522  32.097  1.00  0.00     0.021 C
BRANCH   4   5
HETATM    5  C2  UNL     1      -4.494  55.825  31.699  1.00  0.00     0.122 C
BRANCH   5   6
HETATM    6  N3  UNL     1      -4.955  54.901  32.702  1.00  0.00    -0.367 N
HETATM    7  C1  UNL     1      -6.146  54.828  33.153  1.00  0.00     0.196 C
HETATM    8  N1  UNL     1      -6.396  53.843  34.147  1.00  0.00    -0.067 NA
HETATM    9  N2  UNL     1      -7.161  55.705  32.666  1.00  0.00    -0.067 NA
ATOM     10  H3  UNL     1      -4.271  54.249  33.085  1.00  0.00     0.161 HD
ENDBRANCH   5   6
ENDBRANCH   4   5
ENDBRANCH   3   4
ENDBRANCH   2   3
ENDBRANCH   1   2
BRANCH   1  11
HETATM   11  C6  UNL     1      -3.639  58.531  35.271  1.00  0.00     0.274 C
BRANCH  11  12
HETATM   12  C7  UNL     1      -4.306  59.326  36.333  1.00  0.00     0.057 C
BRANCH  12  13
HETATM   13  C8  UNL     1      -4.922  58.275  37.286  1.00  0.00     0.234 C
BRANCH  13  14
HETATM   14  N5  UNL     1      -5.045  58.746  38.626  1.00  0.00    -0.073 N
ATOM     15  H52 UNL     1      -4.136  58.827  39.081  1.00  0.00     0.277 HD
ATOM     16  H51 UNL     1      -5.321  59.727  38.656  1.00  0.00     0.277 HD
BRANCH  14  17
HETATM   17  C9  UNL     1      -5.937  57.925  39.377  1.00  0.00     0.258 C
BRANCH  17  18
HETATM   18  C10 UNL     1      -5.170  56.703  39.878  1.00  0.00     0.191 C
BRANCH  18  19
HETATM   19  O1  UNL     1      -4.231  57.117  40.833  1.00  0.00    -0.399 OA
ATOM     20  H1  UNL     1      -4.687  57.328  41.640  1.00  0.00     0.209 HD
ENDBRANCH  18  19
ENDBRANCH  17  18
ENDBRANCH  14  17
ENDBRANCH  13  14
ENDBRANCH  12  13
ENDBRANCH  11  12
ENDBRANCH   1  11
BRANCH   1  21
HETATM   21  C11 UNL     1      -1.244  58.510  35.618  1.00  0.00     0.299 C
BRANCH  21  22
HETATM   22  C12 UNL     1      -0.806  57.103  35.397  1.00  0.00     0.263 C
BRANCH  22  23
HETATM   23  N6  UNL     1      -0.888  56.444  36.689  1.00  0.00    -0.067 N
ATOM     24  H62 UNL     1       0.025  56.439  37.143  1.00  0.00     0.277 HD
ATOM     25  H61 UNL     1      -1.409  57.021  37.350  1.00  0.00     0.277 HD
BRANCH  23  26
HETATM   26  C13 UNL     1      -1.435  55.112  36.645  1.00  0.00     0.219 C
HETATM   27  C14 UNL     1      -2.241  55.039  35.361  1.00  0.00     0.035 C
HETATM   28  C15 UNL     1      -1.964  53.705  34.682  1.00  0.00     0.004 C
HETATM   29  C16 UNL     1      -2.138  52.632  35.716  1.00  0.00     0.030 C
HETATM   30  C17 UNL     1      -3.310  52.984  36.575  1.00  0.00     0.273 C
HETATM   31  N7  UNL     1      -3.007  53.612  37.816  1.00  0.00     0.095 N
HETATM   32  C18 UNL     1      -2.284  52.797  38.774  1.00  0.00     0.275 A
HETATM   33  C20 UNL     1      -2.132  54.691  37.861  1.00  0.00     0.255 A
HETATM   34  C19 UNL     1      -1.215  53.870  38.778  1.00  0.00     0.068 A
ENDBRANCH  23  26
ENDBRANCH  22  23
ENDBRANCH  21  22
ENDBRANCH   1  21
TORSDOF 16
ENDMDL