MODEL 1
REMARK VINA RESULT: -6.782952317      0.000      0.000
REMARK  16 active torsions:
REMARK  status: ('A' for Active; 'I' for Inactive)
REMARK    1  A    between atoms: N1_1  and  C1_5
REMARK    2  A    between atoms: C1_5  and  C2_6
REMARK    3  A    between atoms: C2_6  and  N2_7
REMARK    4  A    between atoms: N2_7  and  C3_8
REMARK       I    between atoms: N2_7  and  C13_22
REMARK    5  A    between atoms: C3_8  and  C4_9
REMARK    6  A    between atoms: C4_9  and  O1_10
REMARK    7  A    between atoms: O1_10  and  C5_11
REMARK    8  A    between atoms: C5_11  and  C6_12
REMARK    9  A    between atoms: C6_12  and  O2_13
REMARK   10  A    between atoms: O2_13  and  C7_14
REMARK   11  A    between atoms: C7_14  and  C8_15
REMARK   12  A    between atoms: C8_15  and  C9_16
REMARK   13  A    between atoms: N5_24  and  C14_26
REMARK   14  A    between atoms: C14_26  and  C15_27
REMARK   15  A    between atoms: C15_27  and  C16_28
REMARK   16  A    between atoms: C16_28  and  N6_29
REMARK       I    between atoms: N6_29  and  C17_31
ROOT
HETATM    1  N2  UNL     1      -4.944  55.038  38.739  1.00  0.00    -0.352 N
HETATM    2  C13 UNL     1      -4.960  56.264  39.486  1.00  0.00     0.186 C
HETATM    3  N4  UNL     1      -4.668  56.283  40.882  1.00  0.00    -0.064 NA
HETATM    4  N5  UNL     1      -5.256  57.311  38.798  1.00  0.00    -0.364 N
ATOM      5  H5  UNL     1      -5.444  57.163  37.807  1.00  0.00     0.162 HD
ENDROOT
BRANCH   1   6
HETATM    6  C2  UNL     1      -3.667  54.531  38.325  1.00  0.00     0.152 C
BRANCH   6   7
HETATM    7  C1  UNL     1      -3.226  55.053  36.985  1.00  0.00     0.249 C
BRANCH   7   8
HETATM    8  N1  UNL     1      -1.861  55.538  37.063  1.00  0.00    -0.078 N
ATOM      9  H13 UNL     1      -1.608  55.818  38.011  1.00  0.00     0.274 HD
ATOM     10  H12 UNL     1      -1.182  54.787  36.942  1.00  0.00     0.274 HD
ATOM     11  H11 UNL     1      -1.717  56.293  36.392  1.00  0.00     0.274 HD
ENDBRANCH   7   8
ENDBRANCH   6   7
ENDBRANCH   1   6
BRANCH   1  12
HETATM   12  C3  UNL     1      -6.201  54.419  38.461  1.00  0.00     0.151 C
BRANCH  12  13
HETATM   13  C4  UNL     1      -6.076  52.892  38.394  1.00  0.00     0.187 C
BRANCH  13  14
HETATM   14  O1  UNL     1      -7.173  52.434  37.733  1.00  0.00    -0.387 OA
BRANCH  14  15
HETATM   15  C5  UNL     1      -7.040  52.571  36.332  1.00  0.00     0.193 C
BRANCH  15  16
HETATM   16  C6  UNL     1      -8.283  52.259  35.577  1.00  0.00     0.193 C
BRANCH  16  17
HETATM   17  O2  UNL     1      -9.230  53.173  35.428  1.00  0.00    -0.389 OA
BRANCH  17  18
HETATM   18  C7  UNL     1     -10.441  53.118  35.946  1.00  0.00     0.172 C
BRANCH  18  19
HETATM   19  C8  UNL     1     -11.356  54.278  35.912  1.00  0.00     0.066 C
BRANCH  19  20
HETATM   20  C9  UNL     1     -11.768  54.737  37.278  1.00  0.00    -0.040 A
HETATM   21  C10 UNL     1     -13.087  54.738  37.755  1.00  0.00     0.025 A
HETATM   22  C11 UNL     1     -13.124  55.210  39.050  1.00  0.00     0.088 A
HETATM   23  N3  UNL     1     -11.852  55.500  39.377  1.00  0.00    -0.375 N
HETATM   24  C12 UNL     1     -11.038  55.220  38.325  1.00  0.00     0.094 A
ATOM     25  H3  UNL     1     -11.546  55.871  40.277  1.00  0.00     0.164 HD
ENDBRANCH  19  20
ENDBRANCH  18  19
ENDBRANCH  17  18
ENDBRANCH  16  17
ENDBRANCH  15  16
ENDBRANCH  14  15
ENDBRANCH  13  14
ENDBRANCH  12  13
ENDBRANCH   1  12
BRANCH   4  26
HETATM   26  C14 UNL     1      -5.349  58.652  39.265  1.00  0.00     0.123 C
BRANCH  26  27
HETATM   27  C15 UNL     1      -6.841  59.020  39.328  1.00  0.00     0.039 C
BRANCH  27  28
HETATM   28  C16 UNL     1      -6.964  60.365  38.679  1.00  0.00     0.125 C
BRANCH  28  29
HETATM   29  N6  UNL     1      -6.259  61.344  39.469  1.00  0.00    -0.345 N
HETATM   30  C17 UNL     1      -6.962  62.104  40.437  1.00  0.00     0.328 C
HETATM   31  N7  UNL     1      -6.217  63.057  41.177  1.00  0.00    -0.040 NA
HETATM   32  O3  UNL     1      -8.190  61.991  40.677  1.00  0.00    -0.251 OA
ATOM     33  H6  UNL     1      -5.259  61.489  39.331  1.00  0.00     0.163 HD
ENDBRANCH  28  29
ENDBRANCH  27  28
ENDBRANCH  26  27
ENDBRANCH   4  26
TORSDOF 16
ENDMDL