MODEL 3
REMARK VINA RESULT: -6.194335310      5.145      7.650
REMARK  16 active torsions:
REMARK  status: ('A' for Active; 'I' for Inactive)
REMARK    1  A    between atoms: N1_2  and  C3_5
REMARK    2  A    between atoms: C3_5  and  C4_6
REMARK    3  A    between atoms: C4_6  and  N2_7
REMARK    4  A    between atoms: N2_7  and  C5_9
REMARK    5  A    between atoms: C5_9  and  C6_10
REMARK    6  A    between atoms: C6_10  and  C7_11
REMARK    7  A    between atoms: C7_11  and  C8_12
REMARK    8  A    between atoms: C8_12  and  C9_13
REMARK    9  A    between atoms: C9_13  and  N3_14
REMARK   10  A    between atoms: C9_13  and  C10_18
REMARK   11  A    between atoms: C10_18  and  O2_19
REMARK   12  A    between atoms: O2_19  and  C11_20
REMARK   13  A    between atoms: C14_23  and  C15_24
REMARK   14  A    between atoms: C15_24  and  C16_25
REMARK   15  A    between atoms: C16_25  and  C17_26
REMARK   16  A    between atoms: C16_25  and  N4_28
ROOT
HETATM    1  C9  UNL     1      -3.263  52.815  39.882  1.00  0.00     0.207 C
ENDROOT
BRANCH   1   2
HETATM    2  C8  UNL     1      -4.544  52.909  39.137  1.00  0.00     0.035 C
BRANCH   2   3
HETATM    3  C7  UNL     1      -4.923  54.170  38.495  1.00  0.00     0.004 C
BRANCH   3   4
HETATM    4  C6  UNL     1      -4.443  55.454  39.032  1.00  0.00     0.019 C
BRANCH   4   5
HETATM    5  C5  UNL     1      -5.562  56.316  39.600  1.00  0.00     0.113 C
BRANCH   5   6
HETATM    6  N2  UNL     1      -5.103  57.662  39.670  1.00  0.00    -0.419 N
ATOM      7  H2  UNL     1      -4.431  57.955  40.379  1.00  0.00     0.153 HD
BRANCH   6   8
HETATM    8  C4  UNL     1      -5.616  58.581  38.716  1.00  0.00     0.150 C
BRANCH   8   9
HETATM    9  C3  UNL     1      -5.497  59.996  39.240  1.00  0.00     0.330 C
BRANCH   9  10
HETATM   10  N1  UNL     1      -6.816  60.503  39.541  1.00  0.00     0.007 N
HETATM   11  C1  UNL     1      -7.532  60.729  38.295  1.00  0.00     0.355 C
HETATM   12  C2  UNL     1      -6.803  61.730  40.307  1.00  0.00     0.355 C
HETATM   13  O1  UNL     1      -7.463  59.574  40.278  1.00  0.00    -0.065 OA
ENDBRANCH   9  10
ENDBRANCH   8   9
ENDBRANCH   6   8
ENDBRANCH   5   6
ENDBRANCH   4   5
ENDBRANCH   3   4
ENDBRANCH   2   3
ENDBRANCH   1   2
BRANCH   1  14
HETATM   14  N3  UNL     1      -3.507  52.535  41.244  1.00  0.00    -0.073 N
ATOM     15  H33 UNL     1      -3.655  53.385  41.787  1.00  0.00     0.274 HD
ATOM     16  H32 UNL     1      -4.421  52.104  41.386  1.00  0.00     0.274 HD
ATOM     17  H31 UNL     1      -2.755  51.964  41.629  1.00  0.00     0.274 HD
ENDBRANCH   1  14
BRANCH   1  18
HETATM   18  C10 UNL     1      -2.121  52.134  39.224  1.00  0.00     0.208 C
BRANCH  18  19
HETATM   19  O2  UNL     1      -1.498  52.688  38.173  1.00  0.00    -0.349 OA
BRANCH  19  20
HETATM   20  C11 UNL     1      -1.618  53.466  37.114  1.00  0.00     0.068 A
HETATM   21  C12 UNL     1      -1.340  54.849  37.244  1.00  0.00     0.037 A
HETATM   22  C13 UNL     1      -1.430  55.742  36.238  1.00  0.00     0.010 A
HETATM   23  C14 UNL     1      -1.813  55.313  34.996  1.00  0.00    -0.056 A
HETATM   24  C19 UNL     1      -2.103  53.994  34.781  1.00  0.00     0.010 A
HETATM   25  C20 UNL     1      -2.000  53.089  35.847  1.00  0.00     0.037 A
BRANCH  23  26
HETATM   26  C15 UNL     1      -1.906  56.302  33.873  1.00  0.00     0.070 C
BRANCH  26  27
HETATM   27  C16 UNL     1      -2.699  57.521  34.245  1.00  0.00     0.149 C
BRANCH  27  28
HETATM   28  C17 UNL     1      -3.923  57.715  33.426  1.00  0.00     0.256 C
HETATM   29  O3  UNL     1      -5.022  57.394  33.787  1.00  0.00    -0.305 OA
ENDBRANCH  27  28
BRANCH  27  30
HETATM   30  N4  UNL     1      -1.931  58.713  34.295  1.00  0.00    -0.356 N
HETATM   31  C18 UNL     1      -2.081  59.649  35.132  1.00  0.00     0.197 C
HETATM   32  N5  UNL     1      -1.203  60.795  35.032  1.00  0.00    -0.067 NA
HETATM   33  N6  UNL     1      -3.047  59.664  36.165  1.00  0.00    -0.067 NA
ATOM     34  H4  UNL     1      -1.197  58.825  33.596  1.00  0.00     0.162 HD
ENDBRANCH  27  30
ENDBRANCH  26  27
ENDBRANCH  23  26
ENDBRANCH  19  20
ENDBRANCH  18  19
ENDBRANCH   1  18
TORSDOF 16
ENDMDL