MODEL 3
REMARK VINA RESULT: -6.180719722      2.721      4.145
REMARK  17 active torsions:
REMARK  status: ('A' for Active; 'I' for Inactive)
REMARK    1  A    between atoms: C2_5  and  C3_6
REMARK    2  A    between atoms: C2_5  and  N6_14
REMARK    3  A    between atoms: C3_6  and  C4_7
REMARK    4  A    between atoms: C4_7  and  C5_8
REMARK    5  A    between atoms: C5_8  and  N3_9
REMARK    6  A    between atoms: N6_14  and  C7_16
REMARK    7  A    between atoms: C7_16  and  C8_17
REMARK    8  A    between atoms: C8_17  and  C9_18
REMARK    9  A    between atoms: C9_18  and  N7_19
REMARK   10  A    between atoms: N7_19  and  C10_21
REMARK   11  A    between atoms: C10_21  and  C11_22
REMARK   12  A    between atoms: C11_22  and  N8_23
REMARK   13  A    between atoms: N8_23  and  C12_26
REMARK   14  A    between atoms: C12_26  and  C13_27
REMARK   15  A    between atoms: C13_27  and  O1_28
REMARK   16  A    between atoms: O1_28  and  C14_29
REMARK   17  A    between atoms: C14_29  and  C15_30
ROOT
HETATM    1  N1  UNL     1      -7.289  63.037  40.650  1.00  0.00    -0.172 NA
HETATM    2  C1  UNL     1      -6.559  62.152  40.386  1.00  0.00     0.183 C
HETATM    3  N2  UNL     1      -5.707  61.078  40.065  1.00  0.00    -0.283 N
ATOM      4  H2  UNL     1      -5.001  60.778  40.738  1.00  0.00     0.179 HD
HETATM    5  C2  UNL     1      -5.799  60.491  38.980  1.00  0.00     0.089 C
ENDROOT
BRANCH   5   6
HETATM    6  C3  UNL     1      -6.802  60.854  37.919  1.00  0.00     0.082 C
BRANCH   6   7
HETATM    7  C4  UNL     1      -6.113  61.581  36.773  1.00  0.00     0.052 C
BRANCH   7   8
HETATM    8  C5  UNL     1      -6.708  61.190  35.434  1.00  0.00     0.063 C
BRANCH   8   9
HETATM    9  N3  UNL     1      -7.623  62.059  34.882  1.00  0.00    -0.347 N
HETATM   10  C6  UNL     1      -8.565  62.163  34.113  1.00  0.00     0.200 C
HETATM   11  N4  UNL     1      -9.144  61.094  33.356  1.00  0.00    -0.067 NA
HETATM   12  N5  UNL     1      -9.137  63.485  33.897  1.00  0.00    -0.067 NA
ATOM     13  H3  UNL     1      -7.440  62.983  35.272  1.00  0.00     0.167 HD
ENDBRANCH   8   9
ENDBRANCH   7   8
ENDBRANCH   6   7
ENDBRANCH   5   6
BRANCH   5  14
HETATM   14  N6  UNL     1      -4.953  59.364  38.665  1.00  0.00    -0.359 N
ATOM     15  H6  UNL     1      -4.003  59.381  39.035  1.00  0.00     0.166 HD
BRANCH  14  16
HETATM   16  C7  UNL     1      -5.316  58.250  37.898  1.00  0.00     0.064 C
BRANCH  16  17
HETATM   17  C8  UNL     1      -4.646  57.838  36.674  1.00  0.00     0.063 C
BRANCH  17  18
HETATM   18  C9  UNL     1      -3.775  58.909  35.996  1.00  0.00     0.119 C
BRANCH  18  19
HETATM   19  N7  UNL     1      -2.498  58.323  35.710  1.00  0.00    -0.419 N
ATOM     20  H7  UNL     1      -1.937  57.967  36.484  1.00  0.00     0.153 HD
BRANCH  19  21
HETATM   21  C10 UNL     1      -1.994  58.221  34.421  1.00  0.00     0.141 C
BRANCH  21  22
HETATM   22  C11 UNL     1      -3.026  58.627  33.344  1.00  0.00     0.251 C
BRANCH  22  23
HETATM   23  N8  UNL     1      -3.379  57.370  32.647  1.00  0.00    -0.072 N
ATOM     24  H82 UNL     1      -3.315  57.469  31.634  1.00  0.00     0.277 HD
ATOM     25  H81 UNL     1      -2.664  56.653  32.776  1.00  0.00     0.277 HD
BRANCH  23  26
HETATM   26  C12 UNL     1      -4.673  56.909  33.055  1.00  0.00     0.258 C
BRANCH  26  27
HETATM   27  C13 UNL     1      -4.490  55.577  33.782  1.00  0.00     0.195 C
BRANCH  27  28
HETATM   28  O1  UNL     1      -3.438  54.947  33.870  1.00  0.00    -0.385 OA
BRANCH  28  29
HETATM   29  C14 UNL     1      -2.285  54.511  34.018  1.00  0.00     0.206 C
BRANCH  29  30
HETATM   30  C15 UNL     1      -1.919  54.076  35.413  1.00  0.00    -0.035 A
HETATM   31  C16 UNL     1      -1.886  52.695  35.589  1.00  0.00     0.009 A
HETATM   32  C17 UNL     1      -1.491  52.196  36.801  1.00  0.00     0.001 A
HETATM   33  C18 UNL     1      -1.139  53.055  37.810  1.00  0.00     0.000 A
HETATM   34  C19 UNL     1      -1.181  54.413  37.618  1.00  0.00     0.001 A
HETATM   35  C20 UNL     1      -1.579  54.960  36.399  1.00  0.00     0.009 A
ENDBRANCH  29  30
ENDBRANCH  28  29
ENDBRANCH  27  28
ENDBRANCH  26  27
ENDBRANCH  23  26
ENDBRANCH  22  23
ENDBRANCH  21  22
ENDBRANCH  19  21
ENDBRANCH  18  19
ENDBRANCH  17  18
ENDBRANCH  16  17
ENDBRANCH  14  16
ENDBRANCH   5  14
TORSDOF 17
ENDMDL