MODEL 4
REMARK VINA RESULT: -5.953788129      2.402      2.789
REMARK  18 active torsions:
REMARK  status: ('A' for Active; 'I' for Inactive)
REMARK    1  A    between atoms: N3_4  and  C2_6
REMARK    2  A    between atoms: C2_6  and  C3_7
REMARK    3  A    between atoms: C3_7  and  N4_8
REMARK    4  A    between atoms: N4_8  and  C4_10
REMARK    5  A    between atoms: C7_15  and  N6_16
REMARK    6  A    between atoms: N6_16  and  C8_18
REMARK    7  A    between atoms: C8_18  and  C9_19
REMARK    8  A    between atoms: C9_19  and  C10_20
REMARK    9  A    between atoms: C10_20  and  C11_21
REMARK   10  A    between atoms: C11_21  and  C12_22
REMARK   11  A    between atoms: C12_22  and  C13_23
REMARK   12  A    between atoms: C13_23  and  C14_24
REMARK   13  A    between atoms: C14_24  and  C15_25
REMARK   14  A    between atoms: C15_25  and  O1_26
REMARK   15  A    between atoms: O1_26  and  C16_27
REMARK   16  A    between atoms: C16_27  and  C17_28
REMARK   17  A    between atoms: C17_28  and  N7_29
REMARK   18  A    between atoms: N7_29  and  C18_31
ROOT
HETATM    1  C4  UNL     1      -5.725  57.813  39.137  1.00  0.00     0.679 A
HETATM    2  N5  UNL     1      -6.886  57.441  39.686  1.00  0.00    -0.202 N
ATOM      3  H5  UNL     1      -7.419  58.105  40.247  1.00  0.00     0.183 HD
HETATM    4  C5  UNL     1      -7.357  56.180  39.497  1.00  0.00     0.110 A
HETATM    5  C6  UNL     1      -6.613  55.304  38.733  1.00  0.00     0.066 A
HETATM    6  C7  UNL     1      -5.414  55.661  38.157  1.00  0.00     0.118 A
HETATM    7  N8  UNL     1      -5.005  56.921  38.381  1.00  0.00    -0.177 N
ATOM      8  H8  UNL     1      -4.122  57.228  37.973  1.00  0.00     0.185 HD
ENDROOT
BRANCH   6   9
HETATM    9  N6  UNL     1      -4.672  54.901  37.436  1.00  0.00    -0.376 N
ATOM     10  H6  UNL     1      -3.663  54.979  37.564  1.00  0.00     0.161 HD
BRANCH   9  11
HETATM   11  C8  UNL     1      -5.133  53.958  36.475  1.00  0.00     0.121 C
BRANCH  11  12
HETATM   12  C9  UNL     1      -4.174  52.809  36.256  1.00  0.00     0.020 C
BRANCH  12  13
HETATM   13  C10 UNL     1      -2.748  53.191  36.473  1.00  0.00     0.002 C
BRANCH  13  14
HETATM   14  C11 UNL     1      -2.009  53.431  35.178  1.00  0.00     0.000 C
BRANCH  14  15
HETATM   15  C12 UNL     1      -2.057  54.897  34.808  1.00  0.00     0.000 C
BRANCH  15  16
HETATM   16  C13 UNL     1      -2.280  54.926  33.276  1.00  0.00     0.002 C
BRANCH  16  17
HETATM   17  C14 UNL     1      -3.715  55.026  32.959  1.00  0.00     0.026 C
BRANCH  17  18
HETATM   18  C15 UNL     1      -4.039  55.658  31.664  1.00  0.00     0.167 C
BRANCH  18  19
HETATM   19  O1  UNL     1      -4.859  56.674  31.498  1.00  0.00    -0.390 OA
BRANCH  19  20
HETATM   20  C16 UNL     1      -5.956  56.982  32.173  1.00  0.00     0.187 C
BRANCH  20  21
HETATM   21  C17 UNL     1      -7.107  56.031  31.953  1.00  0.00     0.148 C
BRANCH  21  22
HETATM   22  N7  UNL     1      -8.316  56.691  31.619  1.00  0.00    -0.366 N
ATOM     23  H7  UNL     1      -8.342  57.131  30.699  1.00  0.00     0.161 HD
BRANCH  22  24
HETATM   24  C18 UNL     1      -9.474  56.818  32.387  1.00  0.00     0.348 C
HETATM   25  O2  UNL     1      -9.927  55.947  33.149  1.00  0.00    -0.284 OA
ENDBRANCH  22  24
ENDBRANCH  21  22
ENDBRANCH  20  21
ENDBRANCH  19  20
ENDBRANCH  18  19
ENDBRANCH  17  18
ENDBRANCH  16  17
ENDBRANCH  15  16
ENDBRANCH  14  15
ENDBRANCH  13  14
ENDBRANCH  12  13
ENDBRANCH  11  12
ENDBRANCH   9  11
ENDBRANCH   6   9
BRANCH   1  26
HETATM   26  N4  UNL     1      -5.236  58.989  39.283  1.00  0.00    -0.224 N
ATOM     27  H4  UNL     1      -5.000  59.289  40.229  1.00  0.00     0.177 HD
BRANCH  26  28
HETATM   28  C3  UNL     1      -5.000  59.902  38.222  1.00  0.00     0.157 C
BRANCH  28  29
HETATM   29  C2  UNL     1      -6.316  60.662  37.982  1.00  0.00     0.142 C
BRANCH  29  30
HETATM   30  N3  UNL     1      -6.457  61.790  38.872  1.00  0.00    -0.365 N
HETATM   31  C1  UNL     1      -7.242  61.692  39.878  1.00  0.00     0.197 C
HETATM   32  N1  UNL     1      -7.960  60.495  40.110  1.00  0.00    -0.067 NA
HETATM   33  N2  UNL     1      -7.389  62.809  40.768  1.00  0.00    -0.067 NA
ATOM     34  H3  UNL     1      -5.939  62.652  38.701  1.00  0.00     0.161 HD
ENDBRANCH  29  30
ENDBRANCH  28  29
ENDBRANCH  26  28
ENDBRANCH   1  26
TORSDOF 18
ENDMDL