MODEL 3
REMARK VINA RESULT: -6.150826256      7.418      8.964
REMARK  19 active torsions:
REMARK  status: ('A' for Active; 'I' for Inactive)
REMARK    1  A    between atoms: C2_2  and  C3_3
REMARK    2  A    between atoms: C3_3  and  N1_4
REMARK    3  A    between atoms: N1_4  and  C4_6
REMARK    4  A    between atoms: C5_9  and  N3_10
REMARK    5  A    between atoms: N3_10  and  C6_12
REMARK    6  A    between atoms: C6_12  and  C7_13
REMARK    7  A    between atoms: C7_13  and  C8_14
REMARK    8  A    between atoms: C8_14  and  C9_15
REMARK    9  A    between atoms: C9_15  and  C10_16
REMARK   10  A    between atoms: C10_16  and  C11_17
REMARK   11  A    between atoms: C11_17  and  N4_18
REMARK   12  A    between atoms: C14_23  and  N6_24
REMARK   13  A    between atoms: N6_24  and  C15_26
REMARK   14  A    between atoms: C15_26  and  C16_27
REMARK   15  A    between atoms: C16_27  and  C17_28
REMARK   16  A    between atoms: C17_28  and  N7_29
REMARK   17  A    between atoms: N7_29  and  C18_31
REMARK   18  A    between atoms: C18_31  and  C19_32
REMARK   19  A    between atoms: C19_32  and  O1_33
ROOT
HETATM    1  C4  UNL     1     -12.348  54.420  36.544  1.00  0.00     0.707 A
HETATM    2  N2  UNL     1     -12.466  54.946  35.315  1.00  0.00    -0.022 N
ATOM      3  H2  UNL     1     -13.216  55.601  35.093  1.00  0.00     0.203 HD
HETATM    4  C5  UNL     1     -11.549  54.579  34.370  1.00  0.00     0.707 A
HETATM    5  N5  UNL     1     -10.591  53.728  34.697  1.00  0.00    -0.022 N
ATOM      6  H5  UNL     1      -9.916  53.467  33.978  1.00  0.00     0.203 HD
HETATM    7  C14 UNL     1     -10.449  53.179  35.939  1.00  0.00     0.707 A
HETATM    8  N8  UNL     1     -11.353  53.546  36.858  1.00  0.00    -0.022 N
ATOM      9  H8  UNL     1     -11.295  53.166  37.803  1.00  0.00     0.203 HD
ENDROOT
BRANCH   4  10
HETATM   10  N3  UNL     1     -11.731  55.128  33.226  1.00  0.00    -0.225 N
ATOM     11  H3  UNL     1     -12.183  54.585  32.490  1.00  0.00     0.177 HD
BRANCH  10  12
HETATM   12  C6  UNL     1     -11.329  56.458  32.940  1.00  0.00     0.138 C
BRANCH  12  13
HETATM   13  C7  UNL     1     -10.803  56.620  31.523  1.00  0.00     0.020 C
BRANCH  13  14
HETATM   14  C8  UNL     1      -9.567  57.509  31.514  1.00  0.00     0.002 C
BRANCH  14  15
HETATM   15  C9  UNL     1      -8.393  56.631  31.024  1.00  0.00     0.002 C
BRANCH  15  16
HETATM   16  C10 UNL     1      -7.398  56.487  32.133  1.00  0.00     0.030 C
BRANCH  16  17
HETATM   17  C11 UNL     1      -6.154  55.786  31.831  1.00  0.00     0.271 C
BRANCH  17  18
HETATM   18  N4  UNL     1      -5.192  55.518  32.834  1.00  0.00     0.080 N
HETATM   19  C12 UNL     1      -5.632  54.377  33.672  1.00  0.00     0.309 C
HETATM   20  C13 UNL     1      -4.862  56.630  33.710  1.00  0.00     0.309 C
ENDBRANCH  17  18
ENDBRANCH  16  17
ENDBRANCH  15  16
ENDBRANCH  14  15
ENDBRANCH  13  14
ENDBRANCH  12  13
ENDBRANCH  10  12
ENDBRANCH   4  10
BRANCH   1  21
HETATM   21  N1  UNL     1     -13.162  54.707  37.520  1.00  0.00    -0.222 N
ATOM     22  H1  UNL     1     -13.990  55.261  37.300  1.00  0.00     0.178 HD
BRANCH  21  23
HETATM   23  C3  UNL     1     -12.976  54.300  38.880  1.00  0.00     0.164 C
BRANCH  23  24
HETATM   24  C2  UNL     1     -12.687  55.429  39.783  1.00  0.00    -0.017 C
HETATM   25  C1  UNL     1     -12.776  55.278  41.081  1.00  0.00     0.008 C
ENDBRANCH  23  24
ENDBRANCH  21  23
ENDBRANCH   1  21
BRANCH   7  26
HETATM   26  N6  UNL     1      -9.486  52.362  36.172  1.00  0.00    -0.225 N
ATOM     27  H6  UNL     1      -9.693  51.586  36.800  1.00  0.00     0.177 HD
BRANCH  26  28
HETATM   28  C15 UNL     1      -8.159  52.417  35.650  1.00  0.00     0.143 C
BRANCH  28  29
HETATM   29  C16 UNL     1      -7.095  52.001  36.660  1.00  0.00     0.065 C
BRANCH  29  30
HETATM   30  C17 UNL     1      -6.243  53.144  37.076  1.00  0.00     0.062 C
BRANCH  30  31
HETATM   31  N7  UNL     1      -6.510  53.619  38.354  1.00  0.00    -0.380 N
ATOM     32  H7  UNL     1      -6.594  52.927  39.099  1.00  0.00     0.164 HD
BRANCH  31  33
HETATM   33  C18 UNL     1      -6.672  54.945  38.706  1.00  0.00     0.086 C
BRANCH  33  34
HETATM   34  C19 UNL     1      -7.961  55.455  39.239  1.00  0.00     0.208 C
BRANCH  34  35
HETATM   35  O1  UNL     1      -9.064  55.052  38.483  1.00  0.00    -0.396 OA
ATOM     36  H1  UNL     1      -9.098  55.462  37.627  1.00  0.00     0.209 HD
ENDBRANCH  34  35
ENDBRANCH  33  34
ENDBRANCH  31  33
ENDBRANCH  30  31
ENDBRANCH  29  30
ENDBRANCH  28  29
ENDBRANCH  26  28
ENDBRANCH   7  26
TORSDOF 19
ENDMDL