MODEL 3
REMARK VINA RESULT: -6.128547356      7.090      8.136
REMARK  18 active torsions:
REMARK  status: ('A' for Active; 'I' for Inactive)
REMARK    1  A    between atoms: N1_2  and  C3_4
REMARK    2  A    between atoms: N1_2  and  C4_9
REMARK    3  A    between atoms: N2_5  and  O1_7
REMARK    4  A    between atoms: C4_9  and  N3_10
REMARK    5  A    between atoms: N3_10  and  C5_13
REMARK    6  A    between atoms: C5_13  and  C6_14
REMARK    7  A    between atoms: C6_14  and  C7_15
REMARK    8  A    between atoms: C7_15  and  C8_16
REMARK    9  A    between atoms: C8_16  and  C9_17
REMARK   10  A    between atoms: C9_17  and  C10_18
REMARK   11  A    between atoms: C10_18  and  C11_19
REMARK   12  A    between atoms: C11_19  and  C12_20
REMARK   13  A    between atoms: C12_20  and  C13_21
REMARK   14  A    between atoms: C13_21  and  C14_22
REMARK   15  A    between atoms: C14_22  and  N4_23
REMARK   16  A    between atoms: C15_25  and  C16_26
REMARK   17  A    between atoms: C16_26  and  C17_27
REMARK   18  A    between atoms: C17_27  and  O2_28
ROOT
HETATM    1  C10 UNL     1      -1.042  57.259  35.034  1.00  0.00     0.000 C
ENDROOT
BRANCH   1   2
HETATM    2  C9  UNL     1      -1.617  56.984  33.619  1.00  0.00     0.000 C
BRANCH   2   3
HETATM    3  C8  UNL     1      -1.999  55.577  33.420  1.00  0.00     0.000 C
BRANCH   3   4
HETATM    4  C7  UNL     1      -3.175  55.117  34.171  1.00  0.00     0.002 C
BRANCH   4   5
HETATM    5  C6  UNL     1      -3.094  54.228  35.320  1.00  0.00     0.027 C
BRANCH   5   6
HETATM    6  C5  UNL     1      -1.810  53.550  35.590  1.00  0.00     0.234 C
BRANCH   6   7
HETATM    7  N3  UNL     1      -1.677  53.275  37.013  1.00  0.00    -0.050 N
ATOM      8  H32 UNL     1      -0.717  53.381  37.338  1.00  0.00     0.279 HD
ATOM      9  H31 UNL     1      -1.795  52.285  37.227  1.00  0.00     0.279 HD
BRANCH   7  10
HETATM   10  C4  UNL     1      -2.587  54.096  37.742  1.00  0.00     0.474 C
BRANCH  10  11
HETATM   11  N1  UNL     1      -3.098  53.361  38.877  1.00  0.00    -0.016 N
HETATM   12  C1  UNL     1      -2.145  52.296  39.180  1.00  0.00     0.281 C
HETATM   13  C2  UNL     1      -4.393  52.811  38.516  1.00  0.00     0.281 C
BRANCH  11  14
HETATM   14  C3  UNL     1      -3.305  54.170  40.022  1.00  0.00     0.317 C
HETATM   15  N2  UNL     1      -2.990  55.416  39.993  1.00  0.00    -0.258 N
ATOM     16  H2  UNL     1      -2.591  55.797  39.135  1.00  0.00     0.194 HD
BRANCH  15  17
HETATM   17  O1  UNL     1      -3.162  56.251  41.055  1.00  0.00    -0.289 OA
ATOM     18  H1  UNL     1      -3.698  56.031  41.808  1.00  0.00     0.244 HD
ENDBRANCH  15  17
ENDBRANCH  11  14
ENDBRANCH  10  11
ENDBRANCH   7  10
ENDBRANCH   6   7
ENDBRANCH   5   6
ENDBRANCH   4   5
ENDBRANCH   3   4
ENDBRANCH   2   3
ENDBRANCH   1   2
BRANCH   1  19
HETATM   19  C11 UNL     1      -1.557  58.566  35.513  1.00  0.00     0.000 C
BRANCH  19  20
HETATM   20  C12 UNL     1      -2.833  58.979  34.758  1.00  0.00     0.002 C
BRANCH  20  21
HETATM   21  C13 UNL     1      -4.039  58.845  35.647  1.00  0.00     0.022 C
BRANCH  21  22
HETATM   22  C14 UNL     1      -4.877  60.107  35.546  1.00  0.00     0.163 C
BRANCH  22  23
HETATM   23  N4  UNL     1      -5.404  60.379  36.877  1.00  0.00    -0.128 N
HETATM   24  N5  UNL     1      -4.775  59.893  38.004  1.00  0.00    -0.117 NA
HETATM   25  C15 UNL     1      -5.623  59.892  39.187  1.00  0.00     0.120 C
HETATM   26  C18 UNL     1      -6.196  61.245  39.450  1.00  0.00     0.161 C
HETATM   27  N6  UNL     1      -6.809  61.808  38.261  1.00  0.00    -0.224 N
HETATM   28  C19 UNL     1      -6.574  61.161  36.998  1.00  0.00     0.685 C
ATOM     29  H6  UNL     1      -7.393  62.642  38.319  1.00  0.00     0.177 HD
HETATM   30  N7  UNL     1      -7.425  61.311  36.037  1.00  0.00    -0.234 N
ATOM     31  H72 UNL     1      -7.259  60.853  35.142  1.00  0.00     0.174 HD
ATOM     32  H71 UNL     1      -8.270  61.876  36.124  1.00  0.00     0.174 HD
BRANCH  25  33
HETATM   33  C16 UNL     1      -6.589  58.774  39.024  1.00  0.00     0.051 C
BRANCH  33  34
HETATM   34  C17 UNL     1      -6.091  57.399  39.277  1.00  0.00     0.165 C
BRANCH  34  35
HETATM   35  O2  UNL     1      -4.933  57.029  38.658  1.00  0.00    -0.401 OA
ATOM     36  H2  UNL     1      -4.459  57.702  38.182  1.00  0.00     0.209 HD
ENDBRANCH  34  35
ENDBRANCH  33  34
ENDBRANCH  25  33
ENDBRANCH  22  23
ENDBRANCH  21  22
ENDBRANCH  20  21
ENDBRANCH  19  20
ENDBRANCH   1  19
TORSDOF 18
ENDMDL