MODEL 3
REMARK VINA RESULT: -6.143304894      4.006      6.295
REMARK  18 active torsions:
REMARK  status: ('A' for Active; 'I' for Inactive)
REMARK    1  A    between atoms: N1_1  and  C1_5
REMARK    2  A    between atoms: C1_5  and  C2_6
REMARK    3  A    between atoms: C2_6  and  C3_7
REMARK    4  A    between atoms: C3_7  and  N2_8
REMARK    5  A    between atoms: N2_8  and  C4_10
REMARK    6  A    between atoms: C4_10  and  N3_12
REMARK    7  A    between atoms: N3_12  and  C5_14
REMARK    8  A    between atoms: C5_14  and  C6_15
REMARK    9  A    between atoms: C6_15  and  C7_16
REMARK   10  A    between atoms: C7_16  and  N4_17
REMARK   11  A    between atoms: N4_17  and  C8_19
REMARK   12  A    between atoms: C8_19  and  C9_20
REMARK   13  A    between atoms: C9_20  and  C10_21
REMARK   14  A    between atoms: C10_21  and  C11_22
REMARK   15  A    between atoms: C11_22  and  C12_23
REMARK   16  A    between atoms: C12_23  and  C13_24
REMARK   17  A    between atoms: C13_24  and  N5_25
REMARK   18  A    between atoms: N5_25  and  C14_27
ROOT
HETATM    1  N4  UNL     1      -5.019  57.960  39.318  1.00  0.00    -0.402 N
ATOM      2  H4  UNL     1      -4.163  58.104  39.856  1.00  0.00     0.158 HD
ENDROOT
BRANCH   1   3
HETATM    3  C7  UNL     1      -5.885  59.032  39.026  1.00  0.00     0.120 C
BRANCH   3   4
HETATM    4  C6  UNL     1      -5.424  59.907  37.853  1.00  0.00     0.039 C
BRANCH   4   5
HETATM    5  C5  UNL     1      -6.229  61.147  37.704  1.00  0.00     0.123 C
BRANCH   5   6
HETATM    6  N3  UNL     1      -6.830  61.335  36.428  1.00  0.00    -0.367 N
ATOM      7  H3  UNL     1      -7.631  60.760  36.167  1.00  0.00     0.161 HD
BRANCH   6   8
HETATM    8  C4  UNL     1      -6.344  62.299  35.512  1.00  0.00     0.167 C
HETATM    9  S1  UNL     1      -5.155  61.866  34.475  1.00  0.00    -0.041 SA
BRANCH   8  10
HETATM   10  N2  UNL     1      -6.831  63.623  35.440  1.00  0.00    -0.367 N
ATOM     11  H2  UNL     1      -6.836  64.203  36.279  1.00  0.00     0.161 HD
BRANCH  10  12
HETATM   12  C3  UNL     1      -7.330  64.178  34.171  1.00  0.00     0.123 C
BRANCH  12  13
HETATM   13  C2  UNL     1      -8.632  63.498  33.875  1.00  0.00     0.047 C
BRANCH  13  14
HETATM   14  C1  UNL     1      -8.919  63.255  32.433  1.00  0.00     0.231 C
BRANCH  14  15
HETATM   15  N1  UNL     1      -9.985  62.299  32.223  1.00  0.00    -0.079 N
ATOM     16  H13 UNL     1     -10.896  62.727  32.389  1.00  0.00     0.274 HD
ATOM     17  H12 UNL     1     -10.084  62.076  31.234  1.00  0.00     0.274 HD
ATOM     18  H11 UNL     1      -9.874  61.451  32.780  1.00  0.00     0.274 HD
ENDBRANCH  14  15
ENDBRANCH  13  14
ENDBRANCH  12  13
ENDBRANCH  10  12
ENDBRANCH   8  10
ENDBRANCH   6   8
ENDBRANCH   5   6
ENDBRANCH   4   5
ENDBRANCH   3   4
ENDBRANCH   1   3
BRANCH   1  19
HETATM   19  C8  UNL     1      -5.367  56.703  38.852  1.00  0.00     0.055 C
BRANCH  19  20
HETATM   20  C9  UNL     1      -4.520  55.496  39.036  1.00  0.00     0.044 C
BRANCH  20  21
HETATM   21  C10 UNL     1      -4.933  54.249  38.394  1.00  0.00     0.005 C
BRANCH  21  22
HETATM   22  C11 UNL     1      -4.740  52.978  39.116  1.00  0.00     0.002 C
BRANCH  22  23
HETATM   23  C12 UNL     1      -3.679  52.018  38.792  1.00  0.00     0.020 C
BRANCH  23  24
HETATM   24  C13 UNL     1      -2.368  52.083  39.440  1.00  0.00     0.121 C
BRANCH  24  25
HETATM   25  N5  UNL     1      -1.275  52.621  38.705  1.00  0.00    -0.376 N
ATOM     26  H5  UNL     1      -0.398  52.102  38.742  1.00  0.00     0.161 HD
BRANCH  25  27
HETATM   27  C14 UNL     1      -1.280  53.809  37.922  1.00  0.00     0.114 A
HETATM   28  C15 UNL     1      -1.624  54.031  36.665  1.00  0.00     0.034 A
HETATM   29  C16 UNL     1      -2.102  53.526  35.447  1.00  0.00     0.017 A
HETATM   30  C20 UNL     1      -1.325  55.365  36.769  1.00  0.00     0.047 A
HETATM   31  C17 UNL     1      -2.262  54.371  34.384  1.00  0.00     0.001 A
HETATM   32  C18 UNL     1      -1.950  55.727  34.515  1.00  0.00     0.002 A
HETATM   33  C19 UNL     1      -1.484  56.234  35.693  1.00  0.00     0.030 A
HETATM   34  N6  UNL     1      -0.985  55.167  37.995  1.00  0.00    -0.341 N
ATOM     35  H6  UNL     1      -0.634  55.774  38.737  1.00  0.00     0.167 HD
ENDBRANCH  25  27
ENDBRANCH  24  25
ENDBRANCH  23  24
ENDBRANCH  22  23
ENDBRANCH  21  22
ENDBRANCH  20  21
ENDBRANCH  19  20
ENDBRANCH   1  19
TORSDOF 18
ENDMDL