MODEL 5
REMARK VINA RESULT: -7.203188631      1.392      1.683
REMARK  6 active torsions:
REMARK  status: ('A' for Active; 'I' for Inactive)
REMARK    1  A    between atoms: O1_1  and  C1_3
REMARK    2  A    between atoms: C3_5  and  C4_6
REMARK    3  A    between atoms: C4_6  and  N1_7
REMARK    4  A    between atoms: C4_6  and  C15_26
REMARK    5  A    between atoms: N1_7  and  C5_9
REMARK    6  A    between atoms: C5_9  and  C6_10
ROOT
HETATM    1  C5  UNL     1      28.462  56.515  90.778  1.00  0.00     0.096 C
HETATM    2  C11 UNL     1      29.540  55.963  89.865  1.00  0.00     0.041 C
HETATM    3  C12 UNL     1      30.250  54.819  90.598  1.00  0.00     0.030 C
HETATM    4  C13 UNL     1      29.280  53.740  90.918  1.00  0.00     0.232 C
HETATM    5  N3  UNL     1      28.145  54.238  91.695  1.00  0.00    -0.072 N
ATOM      6  H31 UNL     1      27.989  53.686  92.538  1.00  0.00     0.277 HD
ATOM      7  H32 UNL     1      27.255  54.056  91.229  1.00  0.00     0.277 HD
HETATM    8  C14 UNL     1      28.321  55.645  91.994  1.00  0.00     0.269 C
ENDROOT
BRANCH   1   9
HETATM    9  N1  UNL     1      27.295  56.937  90.114  1.00  0.00    -0.401 N
ATOM     10  H1  UNL     1      26.804  57.755  90.474  1.00  0.00     0.154 HD
BRANCH   9  11
HETATM   11  C4  UNL     1      26.773  56.293  88.983  1.00  0.00     0.088 C
BRANCH  11  12
HETATM   12  C3  UNL     1      25.574  55.483  89.115  1.00  0.00     0.039 A
HETATM   13  C1  UNL     1      24.979  54.957  90.347  1.00  0.00     0.124 A
HETATM   14  C2  UNL     1      25.671  53.994  89.377  1.00  0.00     0.041 A
BRANCH  13  15
HETATM   15  O1  UNL     1      23.593  54.823  90.440  1.00  0.00    -0.395 OA
ATOM     16  H1  UNL     1      23.092  55.318  89.802  1.00  0.00     0.210 HD
ENDBRANCH  13  15
ENDBRANCH  11  12
BRANCH  11  17
HETATM   17  C15 UNL     1      26.809  57.264  87.820  1.00  0.00     0.014 C
HETATM   18  C16 UNL     1      27.105  56.524  86.513  1.00  0.00     0.007 C
HETATM   19  C17 UNL     1      26.518  57.215  85.321  1.00  0.00     0.006 C
HETATM   20  C18 UNL     1      26.524  58.710  85.414  1.00  0.00     0.079 C
HETATM   21  C19 UNL     1      25.982  59.256  86.691  1.00  0.00     0.244 C
HETATM   22  F2  UNL     1      24.834  60.009  86.489  1.00  0.00    -0.206 F
HETATM   23  F3  UNL     1      26.979  60.048  87.249  1.00  0.00    -0.206 F
HETATM   24  C20 UNL     1      25.631  58.104  87.615  1.00  0.00     0.085 C
ENDBRANCH  11  17
ENDBRANCH   9  11
ENDBRANCH   1   9
BRANCH   1  25
HETATM   25  C6  UNL     1      29.053  57.800  91.333  1.00  0.00     0.078 A
HETATM   26  N2  UNL     1      29.321  57.952  92.639  1.00  0.00    -0.363 N
HETATM   27  C7  UNL     1      29.852  59.060  93.157  1.00  0.00     0.112 A
ATOM     28  H2  UNL     1      29.107  57.179  93.269  1.00  0.00     0.165 HD
HETATM   29  C8  UNL     1      30.158  60.123  92.357  1.00  0.00     0.052 A
HETATM   30 CL1  UNL     1      30.848  61.543  93.082  1.00  0.00    -0.083 Cl
HETATM   31  C9  UNL     1      29.892  59.995  91.005  1.00  0.00     0.069 A
HETATM   32  C10 UNL     1      29.334  58.825  90.477  1.00  0.00     0.143 A
HETATM   33  F1  UNL     1      29.091  58.791  89.157  1.00  0.00    -0.204 F
ENDBRANCH   1  25
TORSDOF 6
ENDMDL