MODEL 4
REMARK VINA RESULT: -7.148085884      3.823      5.907
REMARK  3 active torsions:
REMARK  status: ('A' for Active; 'I' for Inactive)
REMARK    1  A    between atoms: S1_2  and  C2_3
REMARK    2  A    between atoms: C16_26  and  C17_27
REMARK    3  A    between atoms: C17_27  and  C18_28
ROOT
HETATM    1  C2  UNL     1      27.708  60.023  89.171  1.00  0.00     0.146 A
HETATM    2  N1  UNL     1      27.643  61.359  89.231  1.00  0.00    -0.303 N
ATOM      3  H1  UNL     1      26.876  61.844  88.766  1.00  0.00     0.171 HD
HETATM    4  C3  UNL     1      28.592  62.086  89.907  1.00  0.00     0.256 A
HETATM    5  O1  UNL     1      28.500  63.314  89.944  1.00  0.00    -0.268 OA
HETATM    6  C4  UNL     1      29.652  61.495  90.554  1.00  0.00     0.043 A
HETATM    7  C5  UNL     1      29.642  60.100  90.445  1.00  0.00     0.023 A
HETATM    8  N2  UNL     1      28.720  59.400  89.788  1.00  0.00    -0.340 N
ATOM      9  H2  UNL     1      28.786  58.383  89.753  1.00  0.00     0.168 HD
HETATM   10  C6  UNL     1      30.702  59.360  91.183  1.00  0.00     0.059 C
HETATM   11  C7  UNL     1      30.607  59.985  92.580  1.00  0.00     0.017 C
HETATM   12  C8  UNL     1      31.138  61.423  92.502  1.00  0.00    -0.021 C
HETATM   13  C9  UNL     1      32.625  61.200  92.614  1.00  0.00     0.017 C
HETATM   14  C10 UNL     1      30.703  62.138  91.236  1.00  0.00     0.108 C
HETATM   15  C11 UNL     1      30.734  63.520  91.656  1.00  0.00     0.256 C
HETATM   16  F1  UNL     1      30.575  64.574  90.847  1.00  0.00    -0.205 F
HETATM   17  F2  UNL     1      32.080  63.788  92.060  1.00  0.00    -0.205 F
HETATM   18  C12 UNL     1      30.037  63.548  92.991  1.00  0.00     0.074 C
HETATM   19  C13 UNL     1      30.512  64.717  93.819  1.00  0.00     0.090 C
HETATM   20  C14 UNL     1      31.500  64.229  94.820  1.00  0.00     0.245 C
HETATM   21  F3  UNL     1      31.109  64.575  96.115  1.00  0.00    -0.206 F
HETATM   22  F4  UNL     1      32.736  64.891  94.692  1.00  0.00    -0.206 F
HETATM   23  C15 UNL     1      31.629  62.752  94.603  1.00  0.00     0.090 C
HETATM   24  C16 UNL     1      30.598  62.279  93.649  1.00  0.00    -0.008 C
ENDROOT
BRANCH  24  25
HETATM   25  C17 UNL     1      29.448  61.567  94.295  1.00  0.00     0.124 C
BRANCH  25  26
HETATM   26  C18 UNL     1      29.634  61.199  95.711  1.00  0.00     0.173 C
HETATM   27  O2  UNL     1      30.071  60.085  96.092  1.00  0.00    -0.648 OA
HETATM   28  O3  UNL     1      29.329  62.090  96.763  1.00  0.00    -0.648 OA
ENDBRANCH  25  26
ENDBRANCH  24  25
BRANCH   1  29
HETATM   29  S1  UNL     1      26.440  59.145  88.273  1.00  0.00    -0.098 SA
HETATM   30  C1  UNL     1      26.461  59.558  86.509  1.00  0.00     0.099 C
ENDBRANCH   1  29
TORSDOF 3
ENDMDL