MODEL 3
REMARK VINA RESULT: -8.583157280      0.895      1.300
REMARK  5 active torsions:
REMARK  status: ('A' for Active; 'I' for Inactive)
REMARK    1  A    between atoms: C5_6  and  C6_7
REMARK    2  A    between atoms: C7_10  and  N2_11
REMARK    3  A    between atoms: N2_11  and  C8_12
REMARK    4  A    between atoms: C8_12  and  C9_13
REMARK    5  A    between atoms: C9_13  and  N3_14
ROOT
HETATM    1  C6  UNL     1      28.283  59.321  90.145  1.00  0.00     0.066 A
HETATM    2  N1  UNL     1      28.834  60.417  90.656  1.00  0.00    -0.314 N
ATOM      3  H1  UNL     1      29.134  60.387  91.631  1.00  0.00     0.170 HD
HETATM    4  C7  UNL     1      29.029  61.584  89.963  1.00  0.00     0.259 A
HETATM    5  N4  UNL     1      28.614  61.586  88.661  1.00  0.00    -0.315 N
ATOM      6  H4  UNL     1      28.733  62.429  88.099  1.00  0.00     0.170 HD
HETATM    7  C15 UNL     1      28.057  60.510  88.110  1.00  0.00     0.054 A
HETATM    8  C16 UNL     1      27.636  60.529  86.769  1.00  0.00     0.092 A
HETATM    9  C17 UNL     1      27.064  59.397  86.236  1.00  0.00     0.190 A
HETATM   10  F2  UNL     1      26.647  59.394  84.938  1.00  0.00    -0.186 F
HETATM   11  N5  UNL     1      26.908  58.289  86.978  1.00  0.00    -0.342 N
ATOM     12  H5  UNL     1      26.480  57.469  86.547  1.00  0.00     0.167 HD
HETATM   13  C18 UNL     1      27.289  58.215  88.257  1.00  0.00     0.106 A
HETATM   14  C19 UNL     1      27.873  59.353  88.821  1.00  0.00     0.034 A
ENDROOT
BRANCH   1  15
HETATM   15  C5  UNL     1      28.088  58.109  90.925  1.00  0.00     0.072 A
HETATM   16  C4  UNL     1      27.019  58.040  91.780  1.00  0.00     0.132 A
HETATM   17  C3  UNL     1      26.733  56.939  92.571  1.00  0.00     0.053 A
HETATM   18  F1  UNL     1      26.135  59.086  91.911  1.00  0.00    -0.205 F
HETATM   19  C2  UNL     1      27.624  55.866  92.446  1.00  0.00    -0.017 A
HETATM   20  C1  UNL     1      27.396  54.648  93.258  1.00  0.00     0.052 C
HETATM   21  C21 UNL     1      28.698  55.924  91.594  1.00  0.00     0.161 A
HETATM   22  C20 UNL     1      28.947  57.038  90.823  1.00  0.00     0.171 A
HETATM   23  F4  UNL     1      29.574  54.871  91.475  1.00  0.00    -0.202 F
HETATM   24  F3  UNL     1      30.029  57.075  89.981  1.00  0.00    -0.202 F
ENDBRANCH   1  15
BRANCH   4  25
HETATM   25  N2  UNL     1      29.539  62.506  90.509  1.00  0.00    -0.386 NA
BRANCH  25  26
HETATM   26  C8  UNL     1      30.113  63.542  91.121  1.00  0.00     0.189 C
BRANCH  26  27
HETATM   27  C9  UNL     1      30.951  63.232  92.360  1.00  0.00     0.331 C
BRANCH  27  28
HETATM   28  N3  UNL     1      30.205  62.585  93.399  1.00  0.00     0.094 N
HETATM   29  C10 UNL     1      30.788  61.274  93.626  1.00  0.00     0.273 C
HETATM   30  C11 UNL     1      29.816  60.493  94.481  1.00  0.00     0.030 C
HETATM   31  C12 UNL     1      29.889  61.118  95.871  1.00  0.00     0.003 C
HETATM   32  C13 UNL     1      30.565  62.450  95.846  1.00  0.00     0.030 C
HETATM   33  C14 UNL     1      30.205  63.296  94.653  1.00  0.00     0.273 C
ENDBRANCH  27  28
ENDBRANCH  26  27
ENDBRANCH  25  26
ENDBRANCH   4  25
TORSDOF 5
ENDMDL