MODEL 2
REMARK VINA RESULT: -6.419399615      9.302     11.730
REMARK  4 active torsions:
REMARK  status: ('A' for Active; 'I' for Inactive)
REMARK    1  A    between atoms: C9_12  and  N1_13
REMARK    2  A    between atoms: C10_14  and  S1_15
REMARK    3  A    between atoms: S1_15  and  C11_16
REMARK    4  A    between atoms: C11_16  and  C12_17
ROOT
HETATM    1  N1  UNL     1      28.657  55.198  90.849  1.00  0.00    -0.259 N
HETATM    2  C10 UNL     1      28.243  54.292  91.802  1.00  0.00     0.086 A
HETATM    3  C13 UNL     1      29.086  53.327  92.314  1.00  0.00     0.112 A
HETATM    4  C14 UNL     1      30.389  53.228  91.886  1.00  0.00     0.251 A
HETATM    5  O3  UNL     1      31.180  52.379  92.318  1.00  0.00    -0.268 OA
HETATM    6  N2  UNL     1      30.782  54.111  90.962  1.00  0.00    -0.275 N
ATOM      7  H2  UNL     1      31.740  54.078  90.615  1.00  0.00     0.173 HD
HETATM    8  C15 UNL     1      29.929  55.051  90.477  1.00  0.00     0.334 A
HETATM    9  O4  UNL     1      30.381  55.813  89.632  1.00  0.00    -0.246 OA
ENDROOT
BRANCH   1  10
HETATM   10  C9  UNL     1      27.719  56.146  90.393  1.00  0.00     0.078 C
HETATM   11  C2  UNL     1      27.353  56.277  88.968  1.00  0.00     0.142 C
HETATM   12  C1  UNL     1      26.607  55.024  88.501  1.00  0.00     0.058 C
HETATM   13  F1  UNL     1      28.211  56.752  88.056  1.00  0.00    -0.237 F
HETATM   14  C3  UNL     1      26.253  57.376  88.971  1.00  0.00     0.050 C
HETATM   15  C4  UNL     1      27.022  58.673  89.102  1.00  0.00     0.016 C
HETATM   16  C5  UNL     1      27.909  58.696  90.319  1.00  0.00    -0.007 C
HETATM   17  C6  UNL     1      29.313  59.130  90.017  1.00  0.00     0.018 C
HETATM   18  C7  UNL     1      27.357  59.852  91.186  1.00  0.00     0.018 C
HETATM   19  C8  UNL     1      27.848  57.465  91.146  1.00  0.00     0.162 C
HETATM   20 CL1  UNL     1      29.240  57.482  92.249  1.00  0.00    -0.094 Cl
HETATM   21 CL2  UNL     1      26.413  57.720  92.229  1.00  0.00    -0.094 Cl
ENDBRANCH   1  10
BRANCH   2  22
HETATM   22  S1  UNL     1      26.557  54.279  92.378  1.00  0.00    -0.101 SA
BRANCH  22  23
HETATM   23  C11 UNL     1      25.487  53.177  91.469  1.00  0.00     0.194 C
BRANCH  23  24
HETATM   24  C12 UNL     1      24.249  53.919  91.060  1.00  0.00     0.182 C
HETATM   25  O1  UNL     1      23.238  53.319  90.696  1.00  0.00    -0.647 OA
HETATM   26  O2  UNL     1      24.269  55.318  91.099  1.00  0.00    -0.647 OA
ENDBRANCH  23  24
ENDBRANCH  22  23
ENDBRANCH   2  22
TORSDOF 4
ENDMDL