MODEL 4
REMARK VINA RESULT: -8.433310286      2.934      8.802
REMARK  5 active torsions:
REMARK  status: ('A' for Active; 'I' for Inactive)
REMARK    1  A    between atoms: N1_2  and  C3_4
REMARK    2  A    between atoms: C3_4  and  C4_5
REMARK    3  A    between atoms: C4_5  and  O1_6
REMARK    4  A    between atoms: C7_10  and  C8_12
REMARK    5  A    between atoms: C11_16  and  C12_17
ROOT
HETATM    1  C12 UNL     1      30.200  60.631  92.898  1.00  0.00     0.054 A
HETATM    2  C13 UNL     1      30.744  60.174  94.073  1.00  0.00     0.135 A
HETATM    3  F3  UNL     1      30.568  58.909  94.481  1.00  0.00    -0.205 F
HETATM    4  C14 UNL     1      31.505  61.023  94.882  1.00  0.00     0.117 A
HETATM    5  C15 UNL     1      31.689  62.333  94.462  1.00  0.00     0.249 A
HETATM    6  O2  UNL     1      32.380  63.128  95.185  1.00  0.00    -0.268 OA
HETATM    7  N2  UNL     1      31.155  62.774  93.315  1.00  0.00    -0.314 N
ATOM      8  H2  UNL     1      31.301  63.740  93.021  1.00  0.00     0.170 HD
HETATM    9  C16 UNL     1      30.426  61.940  92.550  1.00  0.00     0.131 A
HETATM   10  C17 UNL     1      29.855  62.416  91.327  1.00  0.00     0.118 C
HETATM   11  N3  UNL     1      29.396  62.789  90.321  1.00  0.00    -0.190 NA
ENDROOT
BRANCH   1  12
HETATM   12  C11 UNL     1      29.417  59.767  92.051  1.00  0.00     0.022 A
HETATM   13  C10 UNL     1      30.047  59.105  91.029  1.00  0.00     0.128 A
HETATM   14  C9  UNL     1      29.309  58.276  90.220  1.00  0.00     0.056 A
HETATM   15  F2  UNL     1      31.393  59.249  90.792  1.00  0.00    -0.205 F
HETATM   16  C8  UNL     1      27.955  58.057  90.367  1.00  0.00     0.023 A
HETATM   17  C19 UNL     1      27.343  58.730  91.396  1.00  0.00     0.127 A
HETATM   18  C18 UNL     1      28.057  59.566  92.221  1.00  0.00     0.058 A
HETATM   19  F4  UNL     1      26.025  58.569  91.602  1.00  0.00    -0.205 F
BRANCH  16  20
HETATM   20  C7  UNL     1      27.210  57.145  89.471  1.00  0.00     0.134 C
HETATM   21  C6  UNL     1      26.255  57.874  88.550  1.00  0.00     0.051 C
HETATM   22  C5  UNL     1      25.283  56.802  88.074  1.00  0.00     0.047 C
HETATM   23  C3  UNL     1      25.998  55.710  87.315  1.00  0.00     0.179 C
HETATM   24  C21 UNL     1      27.482  55.820  87.356  1.00  0.00     0.047 C
HETATM   25  C20 UNL     1      28.066  56.219  88.675  1.00  0.00     0.051 C
HETATM   26  F1  UNL     1      26.393  56.333  90.278  1.00  0.00    -0.238 F
BRANCH  23  27
HETATM   27  N1  UNL     1      25.463  54.471  87.769  1.00  0.00     0.091 N
HETATM   28  C1  UNL     1      25.493  53.390  86.836  1.00  0.00     0.310 C
HETATM   29  C2  UNL     1      24.160  54.559  88.361  1.00  0.00     0.310 C
ENDBRANCH  23  27
BRANCH  23  30
HETATM   30  C4  UNL     1      25.589  55.864  85.862  1.00  0.00     0.205 C
BRANCH  30  31
HETATM   31  O1  UNL     1      26.631  56.581  85.229  1.00  0.00    -0.398 OA
ATOM     32  H1  UNL     1      26.227  57.341  84.828  1.00  0.00     0.209 HD
ENDBRANCH  30  31
ENDBRANCH  23  30
ENDBRANCH  16  20
ENDBRANCH   1  12
TORSDOF 5
ENDMDL