MODEL 4
REMARK VINA RESULT: -8.376009687      2.170      3.230
REMARK  4 active torsions:
REMARK  status: ('A' for Active; 'I' for Inactive)
REMARK    1  A    between atoms: O1_2  and  C2_3
REMARK    2  A    between atoms: N1_6  and  C5_7
REMARK    3  A    between atoms: C9_12  and  C10_13
REMARK    4  A    between atoms: C10_13  and  C11_14
ROOT
HETATM    1  C5  UNL     1      28.927  60.649  90.549  1.00  0.00     0.031 A
HETATM    2  C6  UNL     1      28.668  61.460  89.486  1.00  0.00     0.032 A
HETATM    3  C7  UNL     1      29.180  62.746  89.484  1.00  0.00     0.045 A
HETATM    4  C8  UNL     1      29.934  63.204  90.529  1.00  0.00     0.125 A
HETATM    5  F1  UNL     1      30.448  64.475  90.544  1.00  0.00    -0.205 F
HETATM    6  C9  UNL     1      30.226  62.403  91.644  1.00  0.00     0.017 A
HETATM    7  C16 UNL     1      29.696  61.142  91.595  1.00  0.00     0.042 A
ENDROOT
BRANCH   6   8
HETATM    8  C10 UNL     1      31.061  62.977  92.732  1.00  0.00     0.128 C
HETATM    9  N2  UNL     1      30.185  63.074  93.888  1.00  0.00    -0.337 N
HETATM   10  C12 UNL     1      30.183  64.166  94.766  1.00  0.00     0.214 C
ATOM     11  H2  UNL     1      29.537  62.308  94.069  1.00  0.00     0.164 HD
HETATM   12  N3  UNL     1      29.563  64.179  95.882  1.00  0.00    -0.365 N
HETATM   13  O2  UNL     1      30.894  65.297  94.405  1.00  0.00    -0.317 OA
ATOM     14  H32 UNL     1      29.039  63.345  96.148  1.00  0.00     0.159 HD
ATOM     15  H31 UNL     1      29.562  64.973  96.522  1.00  0.00     0.159 HD
HETATM   16  C13 UNL     1      31.591  65.411  93.191  1.00  0.00     0.139 A
HETATM   17  C14 UNL     1      32.898  64.720  93.021  1.00  0.00     0.043 A
HETATM   18  C15 UNL     1      31.675  64.264  92.326  1.00  0.00     0.056 A
BRANCH   8  19
HETATM   19  C11 UNL     1      32.160  62.026  93.136  1.00  0.00     0.386 C
HETATM   20  F2  UNL     1      31.725  61.007  93.973  1.00  0.00    -0.211 F
HETATM   21  F3  UNL     1      32.928  61.590  92.083  1.00  0.00    -0.211 F
ENDBRANCH   8  19
ENDBRANCH   6   8
BRANCH   1  22
HETATM   22  N1  UNL     1      28.425  59.352  90.622  1.00  0.00    -0.373 N
HETATM   23  C4  UNL     1      26.963  59.116  90.570  1.00  0.00     0.126 C
HETATM   24  C3  UNL     1      26.600  58.541  91.916  1.00  0.00     0.055 C
HETATM   25  C2  UNL     1      27.409  57.411  92.397  1.00  0.00     0.163 C
HETATM   26  C19 UNL     1      28.824  57.341  91.973  1.00  0.00     0.145 C
HETATM   27  C17 UNL     1      29.154  58.112  90.722  1.00  0.00     0.122 C
HETATM   28  C20 UNL     1      29.288  55.891  91.784  1.00  0.00     0.057 C
HETATM   29  F4  UNL     1      29.617  57.845  92.987  1.00  0.00    -0.238 F
HETATM   30  C18 UNL     1      30.616  58.191  90.464  1.00  0.00     0.036 C
BRANCH  25  31
HETATM   31  O1  UNL     1      26.782  56.221  91.996  1.00  0.00    -0.387 OA
HETATM   32  C1  UNL     1      25.453  56.168  92.357  1.00  0.00     0.202 C
ENDBRANCH  25  31
ENDBRANCH   1  22
TORSDOF 4
ENDMDL