MODEL 3
REMARK VINA RESULT: -8.249196915      2.390      7.721
REMARK  4 active torsions:
REMARK  status: ('A' for Active; 'I' for Inactive)
REMARK    1  A    between atoms: C2_2  and  N1_3
REMARK    2  A    between atoms: N2_6  and  C5_7
REMARK    3  A    between atoms: C7_9  and  C8_10
REMARK    4  A    between atoms: C8_10  and  C9_11
ROOT
HETATM    1  C5  UNL     1      29.486  60.000  91.935  1.00  0.00     0.073 A
HETATM    2  C6  UNL     1      29.635  61.359  91.668  1.00  0.00     0.045 A
HETATM    3  C7  UNL     1      30.451  62.174  92.463  1.00  0.00     0.017 A
HETATM    4  C15 UNL     1      31.101  61.598  93.523  1.00  0.00     0.167 A
HETATM    5  F2  UNL     1      31.865  62.334  94.357  1.00  0.00    -0.202 F
HETATM    6  C16 UNL     1      30.935  60.233  93.768  1.00  0.00     0.196 A
HETATM    7  F3  UNL     1      31.608  59.716  94.836  1.00  0.00    -0.199 F
HETATM    8  C17 UNL     1      30.138  59.419  92.994  1.00  0.00     0.184 A
HETATM    9  F4  UNL     1      30.059  58.086  93.308  1.00  0.00    -0.200 F
ENDROOT
BRANCH   3  10
HETATM   10  C8  UNL     1      30.632  63.615  92.137  1.00  0.00     0.092 C
HETATM   11  C10 UNL     1      32.035  64.034  92.381  1.00  0.00     0.076 C
HETATM   12  C11 UNL     1      32.222  65.273  93.179  1.00  0.00     0.066 C
HETATM   13  C12 UNL     1      33.645  65.286  93.717  1.00  0.00     0.046 C
HETATM   14  C13 UNL     1      32.097  66.514  92.297  1.00  0.00     0.046 C
HETATM   15  O1  UNL     1      31.367  65.355  94.304  1.00  0.00    -0.312 OA
HETATM   16  C14 UNL     1      30.018  65.129  94.080  1.00  0.00     0.214 C
HETATM   17  N3  UNL     1      29.100  65.626  94.854  1.00  0.00    -0.365 N
HETATM   18  N4  UNL     1      29.654  64.341  92.984  1.00  0.00    -0.341 N
ATOM     19  H32 UNL     1      29.366  66.201  95.654  1.00  0.00     0.159 HD
ATOM     20  H31 UNL     1      28.107  65.459  94.690  1.00  0.00     0.159 HD
ATOM     21  H4  UNL     1      28.663  64.260  92.754  1.00  0.00     0.164 HD
BRANCH  10  22
HETATM   22  C9  UNL     1      30.130  63.960  90.734  1.00  0.00     0.258 C
HETATM   23  F1  UNL     1      29.525  65.140  90.574  1.00  0.00    -0.253 F
ENDBRANCH  10  22
ENDBRANCH   3  10
BRANCH   1  24
HETATM   24  N2  UNL     1      28.626  59.236  91.128  1.00  0.00    -0.374 N
HETATM   25  C4  UNL     1      29.156  58.706  89.847  1.00  0.00     0.153 C
HETATM   26  C3  UNL     1      29.126  57.203  90.053  1.00  0.00     0.292 C
HETATM   27  N1  UNL     1      27.861  56.696  90.374  1.00  0.00     0.095 N
HETATM   28  C19 UNL     1      26.876  57.517  90.935  1.00  0.00     0.236 C
HETATM   29  C18 UNL     1      27.255  58.908  91.337  1.00  0.00     0.158 C
HETATM   30  C20 UNL     1      26.297  56.828  92.157  1.00  0.00     0.044 C
BRANCH  27  31
HETATM   31  C2  UNL     1      27.393  55.887  89.265  1.00  0.00     0.268 C
HETATM   32  C1  UNL     1      26.532  56.599  88.282  1.00  0.00     0.037 C
ENDBRANCH  27  31
ENDBRANCH   1  24
TORSDOF 4
ENDMDL