MODEL 2
REMARK VINA RESULT: -9.430861262      2.703      7.532
REMARK  4 active torsions:
REMARK  status: ('A' for Active; 'I' for Inactive)
REMARK    1  A    between atoms: C3_4  and  C4_5
REMARK    2  A    between atoms: C6_7  and  C7_8
REMARK    3  A    between atoms: C10_17  and  N4_18
REMARK    4  A    between atoms: N5_24  and  C16_25
ROOT
HETATM    1  F1  UNL     1      30.026  61.760  96.878  1.00  0.00    -0.203 F
HETATM    2  C1  UNL     1      30.197  62.089  95.590  1.00  0.00     0.161 A
HETATM    3  C2  UNL     1      30.690  63.293  95.151  1.00  0.00     0.077 A
HETATM    4  C3  UNL     1      30.845  63.580  93.811  1.00  0.00     0.065 A
HETATM    5  N3  UNL     1      30.505  62.658  92.911  1.00  0.00    -0.337 N
ATOM      6  H3  UNL     1      30.620  62.871  91.920  1.00  0.00     0.167 HD
HETATM    7  C10 UNL     1      30.006  61.431  93.270  1.00  0.00     0.161 A
HETATM    8  C20 UNL     1      29.856  61.158  94.604  1.00  0.00     0.199 A
HETATM    9  F4  UNL     1      29.387  59.958  95.000  1.00  0.00    -0.199 F
ENDROOT
BRANCH   7  10
HETATM   10  N4  UNL     1      29.642  60.495  92.280  1.00  0.00    -0.291 N
HETATM   11  C11 UNL     1      30.590  59.508  91.787  1.00  0.00     0.150 C
HETATM   12  C12 UNL     1      30.056  58.111  92.001  1.00  0.00     0.011 A
HETATM   13  C13 UNL     1      29.518  57.448  90.748  1.00  0.00     0.013 A
HETATM   14  C14 UNL     1      28.608  57.985  91.805  1.00  0.00     0.007 A
HETATM   15  C15 UNL     1      27.790  59.186  91.611  1.00  0.00     0.121 C
HETATM   16  N5  UNL     1      28.384  60.473  91.726  1.00  0.00    -0.196 NA
BRANCH  16  17
HETATM   17  C16 UNL     1      28.250  61.294  90.554  1.00  0.00     0.286 C
HETATM   18  C17 UNL     1      27.093  60.911  89.697  1.00  0.00     0.058 C
HETATM   19  C18 UNL     1      27.711  60.632  88.367  1.00  0.00     0.114 C
HETATM   20  C19 UNL     1      29.000  61.396  88.359  1.00  0.00     0.405 C
HETATM   21  F2  UNL     1      30.001  60.744  87.635  1.00  0.00    -0.174 F
HETATM   22  F3  UNL     1      28.847  62.660  87.823  1.00  0.00    -0.174 F
HETATM   23  N6  UNL     1      29.404  61.421  89.735  1.00  0.00     0.009 N
ATOM     24  H62 UNL     1      29.955  62.249  89.964  1.00  0.00     0.286 HD
ATOM     25  H61 UNL     1      30.112  60.718  89.946  1.00  0.00     0.286 HD
ENDBRANCH  16  17
ENDBRANCH   7  10
BRANCH   4  26
HETATM   26  C4  UNL     1      31.381  64.891  93.404  1.00  0.00     0.076 A
HETATM   27  C5  UNL     1      30.715  65.974  92.876  1.00  0.00     0.060 A
HETATM   28  C6  UNL     1      31.625  66.999  92.643  1.00  0.00     0.032 A
HETATM   29  N1  UNL     1      32.809  66.508  93.035  1.00  0.00    -0.304 N
HETATM   30  N2  UNL     1      32.671  65.257  93.489  1.00  0.00    -0.298 N
ATOM     31  H1  UNL     1      33.692  67.018  92.995  1.00  0.00     0.186 HD
ATOM     32  H2  UNL     1      33.427  64.671  93.844  1.00  0.00     0.187 HD
BRANCH  28  33
HETATM   33  C7  UNL     1      31.320  68.338  92.079  1.00  0.00     0.037 A
HETATM   34  C8  UNL     1      30.983  69.401  93.128  1.00  0.00     0.011 A
HETATM   35  C9  UNL     1      32.225  69.471  92.311  1.00  0.00     0.011 A
ENDBRANCH  28  33
ENDBRANCH   4  26
TORSDOF 4
ENDMDL