MODEL 4
REMARK VINA RESULT: -8.064934885      3.232      7.099
REMARK  4 active torsions:
REMARK  status: ('A' for Active; 'I' for Inactive)
REMARK    1  A    between atoms: N2_4  and  C3_5
REMARK    2  A    between atoms: C5_7  and  C6_8
REMARK    3  A    between atoms: C6_8  and  C7_9
REMARK    4  A    between atoms: C11_21  and  C12_22
ROOT
HETATM    1  C3  UNL     1      29.693  62.451  90.576  1.00  0.00     0.071 A
HETATM    2  C4  UNL     1      29.924  62.209  91.921  1.00  0.00     0.043 A
HETATM    3  C5  UNL     1      30.379  63.170  92.788  1.00  0.00    -0.009 A
HETATM    4  C11 UNL     1      30.600  64.423  92.230  1.00  0.00    -0.036 A
HETATM    5  C15 UNL     1      30.373  64.688  90.880  1.00  0.00     0.053 A
HETATM    6  C16 UNL     1      29.911  63.680  90.044  1.00  0.00     0.143 A
HETATM    7  F5  UNL     1      29.700  63.976  88.724  1.00  0.00    -0.204 F
ENDROOT
BRANCH   3   8
HETATM    8  C6  UNL     1      30.580  62.844  94.173  1.00  0.00     0.163 C
HETATM    9  C8  UNL     1      30.111  63.693  95.267  1.00  0.00     0.214 C
HETATM   10  O1  UNL     1      29.257  63.193  96.195  1.00  0.00    -0.381 OA
HETATM   11  C9  UNL     1      29.260  61.934  96.570  1.00  0.00     0.243 C
HETATM   12  C10 UNL     1      29.804  60.966  95.593  1.00  0.00     0.096 C
HETATM   13  N3  UNL     1      30.009  59.716  95.913  1.00  0.00    -0.387 N
HETATM   14  N4  UNL     1      30.074  61.468  94.319  1.00  0.00    -0.355 N
ATOM     15  H32 UNL     1      29.813  59.349  96.845  1.00  0.00     0.157 HD
ATOM     16  H31 UNL     1      30.385  59.050  95.239  1.00  0.00     0.157 HD
ATOM     17  H4  UNL     1      29.921  60.887  93.495  1.00  0.00     0.162 HD
BRANCH   8  18
HETATM   18  C7  UNL     1      32.088  62.627  94.437  1.00  0.00     0.279 C
HETATM   19  F1  UNL     1      32.798  62.232  93.360  1.00  0.00    -0.175 F
HETATM   20  F2  UNL     1      32.635  63.517  95.297  1.00  0.00    -0.175 F
ENDBRANCH   8  18
ENDBRANCH   3   8
BRANCH   4  21
HETATM   21  C12 UNL     1      31.105  65.501  93.061  1.00  0.00     0.097 A
HETATM   22  C13 UNL     1      31.676  66.752  92.367  1.00  0.00     0.095 A
HETATM   23  C14 UNL     1      32.610  65.838  93.048  1.00  0.00     0.252 A
HETATM   24  F3  UNL     1      33.194  66.298  94.197  1.00  0.00    -0.206 F
HETATM   25  F4  UNL     1      33.383  64.954  92.318  1.00  0.00    -0.206 F
ENDBRANCH   4  21
BRANCH   1  26
HETATM   26  N2  UNL     1      29.221  61.433  89.685  1.00  0.00    -0.350 N
HETATM   27  C2  UNL     1      29.485  60.033  89.854  1.00  0.00     0.398 C
HETATM   28  N1  UNL     1      28.313  59.412  89.318  1.00  0.00     0.112 N
HETATM   29  C1  UNL     1      28.495  58.055  88.922  1.00  0.00     0.313 C
HETATM   30  C18 UNL     1      27.687  60.268  88.373  1.00  0.00     0.170 C
HETATM   31  C17 UNL     1      28.421  61.597  88.504  1.00  0.00     0.166 C
HETATM   32  C19 UNL     1      27.748  59.814  86.953  1.00  0.00     0.050 C
HETATM   33  C20 UNL     1      26.226  60.421  88.756  1.00  0.00     0.050 C
ENDBRANCH   1  26
TORSDOF 4
ENDMDL