MODEL 1
REMARK VINA RESULT: -9.918603173      0.000      0.000
REMARK  6 active torsions:
REMARK  status: ('A' for Active; 'I' for Inactive)
REMARK    1  A    between atoms: O1_1  and  C1_3
REMARK    2  A    between atoms: C9_13  and  O2_14
REMARK    3  A    between atoms: O2_14  and  C10_15
REMARK    4  A    between atoms: C10_15  and  C11_16
REMARK    5  A    between atoms: C11_16  and  O3_17
REMARK    6  A    between atoms: C11_16  and  C12_19
ROOT
HETATM    1  C1  UNL     1      29.583  60.876  90.640  1.00  0.00     0.152 C
HETATM    2  C2  UNL     1      29.224  59.610  89.905  1.00  0.00     0.043 C
HETATM    3  C3  UNL     1      29.731  58.376  90.622  1.00  0.00     0.087 C
HETATM    4  C4  UNL     1      29.062  58.420  92.003  1.00  0.00     0.268 C
HETATM    5  F1  UNL     1      27.751  58.730  91.806  1.00  0.00    -0.201 F
HETATM    6  F2  UNL     1      29.283  57.217  92.607  1.00  0.00    -0.201 F
HETATM    7  C5  UNL     1      29.786  59.532  92.731  1.00  0.00     0.001 A
HETATM    8  C6  UNL     1      29.986  60.623  92.038  1.00  0.00    -0.011 A
HETATM    9  C7  UNL     1      30.696  61.719  92.736  1.00  0.00    -0.018 A
HETATM   10  C8  UNL     1      30.957  62.918  92.109  1.00  0.00     0.052 A
HETATM   11  C9  UNL     1      31.612  63.944  92.753  1.00  0.00     0.108 A
HETATM   12  C17 UNL     1      32.028  63.795  94.055  1.00  0.00     0.150 A
HETATM   13  F4  UNL     1      32.683  64.783  94.739  1.00  0.00    -0.203 F
HETATM   14  C18 UNL     1      31.772  62.606  94.684  1.00  0.00     0.053 A
HETATM   15  C19 UNL     1      31.109  61.560  94.038  1.00  0.00    -0.044 A
HETATM   16  C20 UNL     1      30.898  60.332  94.813  1.00  0.00     0.044 A
HETATM   17  C21 UNL     1      30.169  59.257  94.115  1.00  0.00     0.045 A
ENDROOT
BRANCH  11  18
HETATM   18  O2  UNL     1      31.851  65.116  92.097  1.00  0.00    -0.345 OA
BRANCH  18  19
HETATM   19  C10 UNL     1      30.920  66.186  92.127  1.00  0.00     0.210 C
BRANCH  19  20
HETATM   20  C11 UNL     1      31.547  67.367  92.848  1.00  0.00     0.171 C
BRANCH  20  21
HETATM   21  O3  UNL     1      32.562  67.917  92.074  1.00  0.00    -0.391 OA
ATOM     22  H3  UNL     1      32.830  68.756  92.433  1.00  0.00     0.210 HD
ENDBRANCH  20  21
BRANCH  20  23
HETATM   23  C12 UNL     1      30.445  68.401  93.053  1.00  0.00     0.152 C
HETATM   24  C13 UNL     1      29.455  68.201  91.897  1.00  0.00     0.037 C
HETATM   25  C14 UNL     1      28.363  69.226  91.934  1.00  0.00     0.042 C
HETATM   26  C15 UNL     1      27.988  69.462  93.381  1.00  0.00     0.194 C
HETATM   27  F3  UNL     1      26.627  69.602  93.472  1.00  0.00    -0.247 F
HETATM   28  C16 UNL     1      28.445  68.258  94.192  1.00  0.00     0.205 C
HETATM   29  O4  UNL     1      29.831  68.235  94.268  1.00  0.00    -0.380 OA
ENDBRANCH  20  23
ENDBRANCH  19  20
ENDBRANCH  18  19
ENDBRANCH  11  18
BRANCH   1  30
HETATM   30  O1  UNL     1      28.476  61.719  90.556  1.00  0.00    -0.391 OA
ATOM     31  H1  UNL     1      27.980  61.601  91.358  1.00  0.00     0.210 HD
ENDBRANCH   1  30
TORSDOF 6
ENDMDL