MODEL 1
REMARK VINA RESULT: -8.005373698      0.000      0.000
REMARK  10 active torsions:
REMARK  status: ('A' for Active; 'I' for Inactive)
REMARK    1  A    between atoms: C2_2  and  C3_3
REMARK    2  A    between atoms: C2_2  and  C14_16
REMARK    3  A    between atoms: C3_3  and  C4_4
REMARK    4  A    between atoms: C4_4  and  C5_5
REMARK    5  A    between atoms: C5_5  and  C6_6
REMARK    6  A    between atoms: C7_7  and  C8_8
REMARK    7  A    between atoms: C7_7  and  C10_12
REMARK    8  A    between atoms: C8_8  and  C9_9
REMARK    9  A    between atoms: C9_9  and  O1_10
REMARK   10  A    between atoms: C14_16  and  C15_17
ROOT
HETATM    1  C5  UNL     1      20.959  37.678  18.579  1.00  0.00    -0.026 C
ENDROOT
BRANCH   1   2
HETATM    2  C4  UNL     1      19.773  37.036  19.125  1.00  0.00     0.027 C
BRANCH   2   3
HETATM    3  C3  UNL     1      18.529  37.821  19.310  1.00  0.00     0.008 C
BRANCH   3   4
HETATM    4  C2  UNL     1      18.312  38.666  20.512  1.00  0.00    -0.018 C
HETATM    5  C1  UNL     1      18.711  38.054  21.774  1.00  0.00     0.010 C
BRANCH   4   6
HETATM    6  C14 UNL     1      16.969  39.296  20.384  1.00  0.00     0.012 C
BRANCH   6   7
HETATM    7  C15 UNL     1      16.802  40.675  19.978  1.00  0.00    -0.051 C
HETATM    8  C16 UNL     1      16.950  40.962  18.507  1.00  0.00     0.014 C
HETATM    9  C17 UNL     1      15.300  41.013  20.261  1.00  0.00     0.014 C
HETATM   10  C18 UNL     1      17.550  41.678  20.808  1.00  0.00     0.014 C
ENDBRANCH   6   7
ENDBRANCH   4   6
ENDBRANCH   3   4
ENDBRANCH   2   3
ENDBRANCH   1   2
BRANCH   1  11
HETATM   11  C6  UNL     1      20.988  39.088  18.180  1.00  0.00    -0.001 C
HETATM   12  C7  UNL     1      21.842  39.935  17.703  1.00  0.00    -0.071 C
BRANCH  12  13
HETATM   13  C8  UNL     1      23.239  39.627  17.395  1.00  0.00     0.061 C
BRANCH  13  14
HETATM   14  C9  UNL     1      23.556  38.743  16.243  1.00  0.00     0.168 C
BRANCH  14  15
HETATM   15  O1  UNL     1      23.625  37.410  16.391  1.00  0.00    -0.401 OA
ATOM     16  H1  UNL     1      24.446  36.946  16.281  1.00  0.00     0.209 HD
ENDBRANCH  14  15
ENDBRANCH  13  14
ENDBRANCH  12  13
BRANCH  12  17
HETATM   17  C10 UNL     1      21.356  41.334  17.371  1.00  0.00    -0.028 C
HETATM   18  C11 UNL     1      20.394  41.283  16.223  1.00  0.00     0.019 C
HETATM   19  C12 UNL     1      20.454  41.767  18.558  1.00  0.00     0.019 C
HETATM   20  C13 UNL     1      22.444  42.292  17.200  1.00  0.00     0.019 C
ENDBRANCH  12  17
ENDBRANCH   1  11
TORSDOF 10
ENDMDL