MODEL 2
REMARK VINA RESULT: -8.436998994      1.770      3.426
REMARK  9 active torsions:
REMARK  status: ('A' for Active; 'I' for Inactive)
REMARK    1  A    between atoms: C2_2  and  O1_3
REMARK    2  A    between atoms: O1_3  and  C3_4
REMARK    3  A    between atoms: C3_4  and  C4_5
REMARK    4  A    between atoms: C4_5  and  C5_6
REMARK    5  A    between atoms: C5_6  and  C6_7
REMARK    6  A    between atoms: C6_7  and  C7_8
REMARK    7  A    between atoms: C7_8  and  C9_10
REMARK    8  A    between atoms: C9_10  and  O2_11
REMARK    9  A    between atoms: O2_11  and  C10_12
ROOT
HETATM    1  C9  UNL     1      20.631  37.704  19.139  1.00  0.00     0.180 C
ENDROOT
BRANCH   1   2
HETATM    2  C7  UNL     1      19.607  37.385  20.176  1.00  0.00     0.006 C
HETATM    3  C8  UNL     1      18.428  38.305  20.008  1.00  0.00     0.012 C
BRANCH   2   4
HETATM    4  C6  UNL     1      19.245  35.941  20.133  1.00  0.00     0.006 C
BRANCH   4   5
HETATM    5  C5  UNL     1      17.923  35.637  19.526  1.00  0.00     0.002 C
BRANCH   5   6
HETATM    6  C4  UNL     1      18.028  34.911  18.201  1.00  0.00     0.026 C
BRANCH   6   7
HETATM    7  C3  UNL     1      17.275  33.625  18.180  1.00  0.00     0.167 C
BRANCH   7   8
HETATM    8  O1  UNL     1      16.379  33.548  19.229  1.00  0.00    -0.391 OA
BRANCH   8   9
HETATM    9  C2  UNL     1      15.630  32.406  19.295  1.00  0.00     0.163 C
HETATM   10  C1  UNL     1      14.658  32.601  20.468  1.00  0.00     0.033 C
ENDBRANCH   8   9
ENDBRANCH   7   8
ENDBRANCH   6   7
ENDBRANCH   5   6
ENDBRANCH   4   5
ENDBRANCH   2   4
ENDBRANCH   1   2
BRANCH   1  11
HETATM   11  O2  UNL     1      20.309  38.821  18.359  1.00  0.00    -0.350 OA
BRANCH  11  12
HETATM   12  C10 UNL     1      21.327  39.630  17.883  1.00  0.00     0.075 A
HETATM   13  C11 UNL     1      22.399  39.054  17.255  1.00  0.00     0.044 A
HETATM   14  C12 UNL     1      23.415  39.846  16.779  1.00  0.00    -0.059 A
HETATM   15  C13 UNL     1      24.593  39.248  16.092  1.00  0.00     0.048 C
HETATM   16  C14 UNL     1      23.333  41.225  16.943  1.00  0.00     0.014 A
HETATM   17  C15 UNL     1      22.253  41.810  17.577  1.00  0.00    -0.053 A
HETATM   18  C16 UNL     1      22.156  43.290  17.759  1.00  0.00     0.049 C
HETATM   19  C17 UNL     1      21.259  41.006  18.040  1.00  0.00    -0.023 A
HETATM   20  C18 UNL     1      20.070  41.550  18.728  1.00  0.00     0.052 C
ENDBRANCH  11  12
ENDBRANCH   1  11
TORSDOF 9
ENDMDL