MODEL 5
REMARK VINA RESULT: -8.140654021      2.072      5.135
REMARK  9 active torsions:
REMARK  status: ('A' for Active; 'I' for Inactive)
REMARK    1  A    between atoms: C2_2  and  C3_3
REMARK    2  A    between atoms: C3_3  and  C5_5
REMARK    3  A    between atoms: C3_3  and  C13_14
REMARK    4  A    between atoms: C5_5  and  C6_6
REMARK    5  A    between atoms: C6_6  and  O1_7
REMARK    6  A    between atoms: O1_7  and  C7_8
REMARK    7  A    between atoms: C13_14  and  C14_15
REMARK    8  A    between atoms: C14_15  and  O2_16
REMARK    9  A    between atoms: C14_15  and  C15_18
ROOT
HETATM    1  C3  UNL     1      17.679  40.325  20.281  1.00  0.00    -0.040 C
HETATM    2  C4  UNL     1      17.354  40.809  21.678  1.00  0.00     0.015 C
ENDROOT
BRANCH   1   3
HETATM    3  C2  UNL     1      16.363  39.855  19.694  1.00  0.00     0.005 C
HETATM    4  C1  UNL     1      15.184  40.678  20.066  1.00  0.00     0.006 C
ENDBRANCH   1   3
BRANCH   1   5
HETATM    5  C5  UNL     1      18.222  41.416  19.424  1.00  0.00     0.035 C
BRANCH   5   6
HETATM    6  C6  UNL     1      19.596  41.078  18.923  1.00  0.00     0.169 C
BRANCH   6   7
HETATM    7  O1  UNL     1      19.590  40.856  17.528  1.00  0.00    -0.386 OA
BRANCH   7   8
HETATM    8  C7  UNL     1      20.897  40.707  17.145  1.00  0.00     0.121 C
HETATM    9  C8  UNL     1      21.730  41.953  17.415  1.00  0.00     0.032 C
HETATM   10  C9  UNL     1      23.009  41.782  16.586  1.00  0.00     0.002 C
HETATM   11  C10 UNL     1      23.763  40.608  17.170  1.00  0.00     0.000 C
HETATM   12  C11 UNL     1      22.922  39.358  17.120  1.00  0.00     0.002 C
HETATM   13  C12 UNL     1      21.600  39.565  17.841  1.00  0.00     0.032 C
ENDBRANCH   7   8
ENDBRANCH   6   7
ENDBRANCH   5   6
ENDBRANCH   1   5
BRANCH   1  14
HETATM   14  C13 UNL     1      18.582  39.124  20.281  1.00  0.00     0.041 C
BRANCH  14  15
HETATM   15  C14 UNL     1      18.151  38.007  19.398  1.00  0.00     0.126 C
BRANCH  15  16
HETATM   16  O2  UNL     1      18.713  38.003  18.144  1.00  0.00    -0.395 OA
ATOM     17  H2  UNL     1      18.897  37.142  17.786  1.00  0.00     0.210 HD
ENDBRANCH  15  16
BRANCH  15  18
HETATM   18  C15 UNL     1      18.548  36.706  20.069  1.00  0.00    -0.025 C
HETATM   19  C16 UNL     1      20.012  36.492  19.832  1.00  0.00     0.017 C
HETATM   20  C17 UNL     1      18.332  36.798  21.581  1.00  0.00     0.017 C
HETATM   21  C18 UNL     1      17.764  35.530  19.511  1.00  0.00     0.017 C
ENDBRANCH  15  18
ENDBRANCH  14  15
ENDBRANCH   1  14
TORSDOF 9
ENDMDL