MODEL 5
REMARK VINA RESULT: -7.448741471      2.185      7.374
REMARK  9 active torsions:
REMARK  status: ('A' for Active; 'I' for Inactive)
REMARK    1  A    between atoms: C2_2  and  C3_3
REMARK    2  A    between atoms: C3_3  and  C4_4
REMARK    3  A    between atoms: C4_4  and  O1_5
REMARK    4  A    between atoms: O1_5  and  C5_6
REMARK    5  A    between atoms: C5_6  and  C6_7
REMARK    6  A    between atoms: C6_7  and  C7_8
REMARK    7  A    between atoms: C7_8  and  C8_9
REMARK    8  A    between atoms: C8_9  and  C10_11
REMARK    9  A    between atoms: C10_11  and  C11_12
ROOT
HETATM    1  C5  UNL     1      18.259  37.934  19.475  1.00  0.00     0.168 C
ENDROOT
BRANCH   1   2
HETATM    2  O1  UNL     1      18.516  38.907  18.579  1.00  0.00    -0.380 OA
BRANCH   2   3
HETATM    3  C4  UNL     1      17.866  40.129  18.735  1.00  0.00     0.061 C
HETATM    4  C15 UNL     1      18.802  41.163  19.261  1.00  0.00     0.038 C
HETATM    5  C16 UNL     1      19.923  41.082  18.213  1.00  0.00     0.003 C
HETATM    6  C17 UNL     1      19.207  40.750  16.940  1.00  0.00     0.003 C
HETATM    7  C18 UNL     1      17.720  40.643  17.305  1.00  0.00     0.038 C
BRANCH   3   8
HETATM    8  C3  UNL     1      16.598  39.918  19.424  1.00  0.00     0.038 C
BRANCH   8   9
HETATM    9  C2  UNL     1      15.857  41.028  20.035  1.00  0.00    -0.002 C
HETATM   10  C1  UNL     1      15.583  40.911  21.501  1.00  0.00     0.005 C
ENDBRANCH   8   9
ENDBRANCH   3   8
ENDBRANCH   2   3
ENDBRANCH   1   2
BRANCH   1  11
HETATM   11  C6  UNL     1      18.702  36.550  18.958  1.00  0.00     0.027 C
BRANCH  11  12
HETATM   12  C7  UNL     1      17.662  35.531  19.242  1.00  0.00     0.006 C
BRANCH  12  13
HETATM   13  C8  UNL     1      17.634  34.444  18.160  1.00  0.00    -0.018 C
HETATM   14  C9  UNL     1      18.779  34.628  17.241  1.00  0.00     0.010 C
BRANCH  13  15
HETATM   15  C10 UNL     1      17.523  33.162  18.898  1.00  0.00     0.012 C
BRANCH  15  16
HETATM   16  C11 UNL     1      16.324  32.323  18.770  1.00  0.00    -0.051 C
HETATM   17  C12 UNL     1      15.689  32.379  17.431  1.00  0.00     0.014 C
HETATM   18  C13 UNL     1      15.307  32.589  19.878  1.00  0.00     0.014 C
HETATM   19  C14 UNL     1      16.761  30.859  19.008  1.00  0.00     0.014 C
ENDBRANCH  15  16
ENDBRANCH  13  15
ENDBRANCH  12  13
ENDBRANCH  11  12
ENDBRANCH   1  11
TORSDOF 9
ENDMDL