MODEL 5
REMARK VINA RESULT: -8.327436916      2.134      6.645
REMARK  10 active torsions:
REMARK  status: ('A' for Active; 'I' for Inactive)
REMARK    1  A    between atoms: C2_2  and  C3_3
REMARK    2  A    between atoms: C3_3  and  C4_4
REMARK    3  A    between atoms: C3_3  and  O2_10
REMARK    4  A    between atoms: C4_4  and  C5_5
REMARK    5  A    between atoms: C5_5  and  C6_6
REMARK    6  A    between atoms: C6_6  and  C7_7
REMARK    7  A    between atoms: C7_7  and  O1_8
REMARK    8  A    between atoms: O2_10  and  C8_11
REMARK    9  A    between atoms: C8_11  and  C9_12
REMARK   10  A    between atoms: C9_12  and  C10_13
ROOT
HETATM    1  C8  UNL     1      21.506  38.589  18.232  1.00  0.00     0.172 C
ENDROOT
BRANCH   1   2
HETATM    2  O2  UNL     1      20.454  39.311  17.706  1.00  0.00    -0.386 OA
BRANCH   2   3
HETATM    3  C3  UNL     1      20.702  40.638  17.518  1.00  0.00     0.121 C
BRANCH   3   4
HETATM    4  C2  UNL     1      22.157  41.023  17.587  1.00  0.00     0.027 C
HETATM    5  C1  UNL     1      22.286  42.526  17.561  1.00  0.00     0.007 C
ENDBRANCH   3   4
BRANCH   3   6
HETATM    6  C4  UNL     1      20.009  41.382  18.681  1.00  0.00     0.032 C
BRANCH   6   7
HETATM    7  C5  UNL     1      18.694  40.771  18.999  1.00  0.00     0.004 C
BRANCH   7   8
HETATM    8  C6  UNL     1      17.763  41.605  19.795  1.00  0.00     0.026 C
BRANCH   8   9
HETATM    9  C7  UNL     1      16.315  41.286  19.708  1.00  0.00     0.164 C
BRANCH   9  10
HETATM   10  O1  UNL     1      15.482  42.159  20.388  1.00  0.00    -0.401 OA
ATOM     11  H1  UNL     1      15.477  42.055  21.332  1.00  0.00     0.209 HD
ENDBRANCH   9  10
ENDBRANCH   8   9
ENDBRANCH   7   8
ENDBRANCH   6   7
ENDBRANCH   3   6
ENDBRANCH   2   3
ENDBRANCH   1   2
BRANCH   1  12
HETATM   12  C9  UNL     1      21.169  37.118  18.108  1.00  0.00     0.065 C
BRANCH  12  13
HETATM   13  C10 UNL     1      20.038  36.754  19.002  1.00  0.00    -0.049 A
HETATM   14  C11 UNL     1      19.906  37.422  20.196  1.00  0.00     0.014 A
HETATM   15  C12 UNL     1      18.902  37.148  21.074  1.00  0.00    -0.061 A
HETATM   16  C13 UNL     1      18.807  37.909  22.365  1.00  0.00     0.048 C
HETATM   17  C14 UNL     1      17.994  36.172  20.748  1.00  0.00     0.014 A
HETATM   18  C15 UNL     1      18.110  35.495  19.560  1.00  0.00    -0.055 A
HETATM   19  C16 UNL     1      17.107  34.444  19.243  1.00  0.00     0.049 C
HETATM   20  C17 UNL     1      19.127  35.771  18.668  1.00  0.00    -0.050 A
HETATM   21  C18 UNL     1      19.220  35.018  17.391  1.00  0.00     0.049 C
ENDBRANCH  12  13
ENDBRANCH   1  12
TORSDOF 10
ENDMDL