MODEL 1
REMARK VINA RESULT: -8.350593598      0.000      0.000
REMARK  11 active torsions:
REMARK  status: ('A' for Active; 'I' for Inactive)
REMARK    1  A    between atoms: C2_2  and  C3_3
REMARK    2  A    between atoms: C3_3  and  C4_4
REMARK    3  A    between atoms: C4_4  and  C5_5
REMARK    4  A    between atoms: C5_5  and  C6_6
REMARK    5  A    between atoms: C6_6  and  O1_7
REMARK    6  A    between atoms: O1_7  and  C7_8
REMARK    7  A    between atoms: C11_12  and  C12_13
REMARK    8  A    between atoms: C12_13  and  C13_14
REMARK    9  A    between atoms: C13_14  and  C14_15
REMARK   10  A    between atoms: C14_15  and  C15_16
REMARK   11  A    between atoms: C15_16  and  O2_17
ROOT
HETATM    1  C7  UNL     1      19.116  38.803  19.032  1.00  0.00     0.080 A
HETATM    2  C8  UNL     1      20.363  38.499  18.531  1.00  0.00    -0.028 A
HETATM    3  C9  UNL     1      20.769  37.074  18.451  1.00  0.00     0.051 C
HETATM    4  C10 UNL     1      21.215  39.499  18.114  1.00  0.00     0.016 A
HETATM    5  C11 UNL     1      20.867  40.836  18.176  1.00  0.00    -0.057 A
HETATM    6  C16 UNL     1      19.622  41.143  18.675  1.00  0.00     0.016 A
HETATM    7  C17 UNL     1      18.765  40.136  19.094  1.00  0.00    -0.028 A
HETATM    8  C18 UNL     1      17.422  40.483  19.632  1.00  0.00     0.051 C
ENDROOT
BRANCH   1   9
HETATM    9  O1  UNL     1      18.229  37.831  19.462  1.00  0.00    -0.350 OA
BRANCH   9  10
HETATM   10  C6  UNL     1      18.267  37.245  20.746  1.00  0.00     0.175 C
BRANCH  10  11
HETATM   11  C5  UNL     1      18.222  35.725  20.515  1.00  0.00     0.027 C
BRANCH  11  12
HETATM   12  C4  UNL     1      17.521  35.455  19.227  1.00  0.00     0.006 C
BRANCH  12  13
HETATM   13  C3  UNL     1      17.707  34.113  18.640  1.00  0.00     0.026 C
BRANCH  13  14
HETATM   14  C2  UNL     1      16.621  33.147  18.773  1.00  0.00    -0.037 C
HETATM   15  C1  UNL     1      15.675  33.070  19.657  1.00  0.00     0.007 C
ENDBRANCH  13  14
ENDBRANCH  12  13
ENDBRANCH  11  12
ENDBRANCH  10  11
ENDBRANCH   9  10
ENDBRANCH   1   9
BRANCH   5  16
HETATM   16  C12 UNL     1      21.832  41.896  17.708  1.00  0.00     0.038 C
BRANCH  16  17
HETATM   17  C13 UNL     1      22.607  41.428  16.515  1.00  0.00     0.007 C
BRANCH  17  18
HETATM   18  C14 UNL     1      23.969  40.923  16.910  1.00  0.00     0.026 C
BRANCH  18  19
HETATM   19  C15 UNL     1      24.325  39.727  16.073  1.00  0.00     0.164 C
BRANCH  19  20
HETATM   20  O2  UNL     1      24.028  38.543  16.761  1.00  0.00    -0.401 OA
ATOM     21  H2  UNL     1      24.478  37.807  16.363  1.00  0.00     0.209 HD
ENDBRANCH  19  20
ENDBRANCH  18  19
ENDBRANCH  17  18
ENDBRANCH  16  17
ENDBRANCH   5  16
TORSDOF 11
ENDMDL