MODEL 5
REMARK VINA RESULT: -8.273735935      1.685      3.863
REMARK  9 active torsions:
REMARK  status: ('A' for Active; 'I' for Inactive)
REMARK    1  A    between atoms: C2_2  and  C4_4
REMARK    2  A    between atoms: C4_4  and  O1_5
REMARK    3  A    between atoms: O1_5  and  C5_6
REMARK    4  A    between atoms: C6_7  and  C7_8
REMARK    5  A    between atoms: C7_8  and  O2_9
REMARK    6  A    between atoms: C9_12  and  C10_13
REMARK    7  A    between atoms: C14_17  and  C15_18
REMARK    8  A    between atoms: C15_18  and  C16_19
REMARK    9  A    between atoms: C16_19  and  C17_20
ROOT
HETATM    1  C5  UNL     1      18.732  39.339  18.753  1.00  0.00     0.084 A
HETATM    2  C6  UNL     1      18.615  40.428  17.846  1.00  0.00    -0.000 A
HETATM    3  C8  UNL     1      19.758  40.865  17.219  1.00  0.00     0.019 A
HETATM    4  C9  UNL     1      20.969  40.278  17.446  1.00  0.00    -0.053 A
HETATM    5  C13 UNL     1      21.058  39.240  18.313  1.00  0.00     0.017 A
HETATM    6  C14 UNL     1      19.871  38.748  18.995  1.00  0.00    -0.024 A
ENDROOT
BRANCH   1   7
HETATM    7  O1  UNL     1      17.474  39.034  19.278  1.00  0.00    -0.346 OA
BRANCH   7   8
HETATM    8  C4  UNL     1      17.360  39.168  20.712  1.00  0.00     0.209 C
BRANCH   8   9
HETATM    9  C2  UNL     1      16.668  40.421  21.101  1.00  0.00    -0.069 C
HETATM   10  C1  UNL     1      17.220  41.271  21.950  1.00  0.00     0.016 C
HETATM   11  C3  UNL     1      15.348  40.759  20.525  1.00  0.00     0.044 C
ENDBRANCH   8   9
ENDBRANCH   7   8
ENDBRANCH   1   7
BRANCH   2  12
HETATM   12  C7  UNL     1      17.355  41.176  17.658  1.00  0.00     0.205 C
BRANCH  12  13
HETATM   13  O2  UNL     1      17.186  41.437  16.258  1.00  0.00    -0.396 OA
ATOM     14  H2  UNL     1      16.437  42.011  16.147  1.00  0.00     0.209 HD
ENDBRANCH  12  13
ENDBRANCH   2  12
BRANCH   6  15
HETATM   15  C15 UNL     1      20.191  37.423  19.669  1.00  0.00     0.041 C
BRANCH  15  16
HETATM   16  C16 UNL     1      20.254  36.355  18.586  1.00  0.00     0.004 C
BRANCH  16  17
HETATM   17  C17 UNL     1      18.978  35.725  18.220  1.00  0.00    -0.004 C
HETATM   18  C18 UNL     1      17.894  35.551  19.216  1.00  0.00     0.005 C
ENDBRANCH  16  17
ENDBRANCH  15  16
ENDBRANCH   6  15
BRANCH   4  19
HETATM   19  C10 UNL     1      22.203  40.803  16.735  1.00  0.00     0.010 C
HETATM   20  C11 UNL     1      23.345  39.850  16.986  1.00  0.00     0.015 C
HETATM   21  C12 UNL     1      22.610  42.109  17.383  1.00  0.00     0.015 C
ENDBRANCH   4  19
TORSDOF 9
ENDMDL