MODEL 1
REMARK VINA RESULT: -8.637543934      0.000      0.000
REMARK  10 active torsions:
REMARK  status: ('A' for Active; 'I' for Inactive)
REMARK    1  A    between atoms: C2_2  and  C4_4
REMARK    2  A    between atoms: C4_4  and  C5_5
REMARK    3  A    between atoms: C5_5  and  C6_6
REMARK    4  A    between atoms: C6_6  and  C7_7
REMARK    5  A    between atoms: C7_7  and  O2_9
REMARK    6  A    between atoms: O2_9  and  C8_10
REMARK    7  A    between atoms: C8_10  and  C9_11
REMARK    8  A    between atoms: C8_10  and  C15_17
REMARK    9  A    between atoms: C9_11  and  C10_12
REMARK   10  A    between atoms: C15_17  and  C16_18
ROOT
HETATM    1  C8  UNL     1      19.960  40.385  17.967  1.00  0.00     0.136 C
ENDROOT
BRANCH   1   2
HETATM    2  O2  UNL     1      20.301  39.357  18.850  1.00  0.00    -0.316 OA
BRANCH   2   3
HETATM    3  C7  UNL     1      20.878  38.194  18.457  1.00  0.00     0.259 C
HETATM    4  O1  UNL     1      21.971  38.262  17.872  1.00  0.00    -0.265 OA
BRANCH   3   5
HETATM    5  C6  UNL     1      20.262  36.840  18.692  1.00  0.00     0.111 C
BRANCH   5   6
HETATM    6  C5  UNL     1      18.762  36.962  18.761  1.00  0.00     0.010 C
BRANCH   6   7
HETATM    7  C4  UNL     1      18.272  36.314  20.021  1.00  0.00     0.004 C
BRANCH   7   8
HETATM    8  C2  UNL     1      18.880  36.907  21.257  1.00  0.00    -0.023 C
HETATM    9  C1  UNL     1      18.376  38.300  21.537  1.00  0.00     0.009 C
HETATM   10  C3  UNL     1      18.428  36.041  22.439  1.00  0.00     0.009 C
ENDBRANCH   7   8
ENDBRANCH   6   7
ENDBRANCH   5   6
ENDBRANCH   3   5
ENDBRANCH   2   3
ENDBRANCH   1   2
BRANCH   1  11
HETATM   11  C9  UNL     1      18.541  40.490  17.561  1.00  0.00     0.070 C
BRANCH  11  12
HETATM   12  C10 UNL     1      17.705  40.787  18.756  1.00  0.00    -0.059 A
HETATM   13  C11 UNL     1      17.902  41.617  19.758  1.00  0.00    -0.016 A
HETATM   14  C12 UNL     1      16.780  41.568  20.722  1.00  0.00     0.054 A
HETATM   15  C13 UNL     1      15.869  40.562  20.128  1.00  0.00    -0.022 A
HETATM   16  C14 UNL     1      16.402  40.120  19.007  1.00  0.00     0.003 A
ENDBRANCH  11  12
ENDBRANCH   1  11
BRANCH   1  17
HETATM   17  C15 UNL     1      20.681  41.665  18.285  1.00  0.00     0.037 C
BRANCH  17  18
HETATM   18  C16 UNL     1      22.024  41.861  17.719  1.00  0.00    -0.020 C
HETATM   19  C17 UNL     1      22.494  43.315  17.794  1.00  0.00     0.009 C
HETATM   20  C18 UNL     1      22.342  41.271  16.394  1.00  0.00     0.009 C
ENDBRANCH  17  18
ENDBRANCH   1  17
TORSDOF 10
ENDMDL