MODEL 1
REMARK VINA RESULT: -7.988753653      0.000      0.000
REMARK  9 active torsions:
REMARK  status: ('A' for Active; 'I' for Inactive)
REMARK    1  A    between atoms: C2_2  and  C3_3
REMARK    2  A    between atoms: C3_3  and  O1_4
REMARK    3  A    between atoms: O1_4  and  C4_5
REMARK    4  A    between atoms: C4_5  and  C5_6
REMARK    5  A    between atoms: C5_6  and  O2_7
REMARK    6  A    between atoms: O2_7  and  C6_8
REMARK    7  A    between atoms: C7_9  and  C8_10
REMARK    8  A    between atoms: C8_10  and  C9_11
REMARK    9  A    between atoms: C14_16  and  C15_17
ROOT
HETATM    1  C6  UNL     1      19.041  38.725  19.086  1.00  0.00     0.081 A
HETATM    2  C7  UNL     1      18.389  37.917  19.998  1.00  0.00    -0.024 A
HETATM    3  C11 UNL     1      17.380  38.458  20.782  1.00  0.00     0.017 A
HETATM    4  C12 UNL     1      17.021  39.776  20.668  1.00  0.00    -0.054 A
HETATM    5  C13 UNL     1      15.941  40.328  21.519  1.00  0.00     0.049 C
HETATM    6  C14 UNL     1      17.669  40.603  19.753  1.00  0.00    -0.044 A
HETATM    7  C17 UNL     1      18.671  40.060  18.977  1.00  0.00    -0.021 A
HETATM    8  C18 UNL     1      19.343  40.966  18.017  1.00  0.00     0.052 C
ENDROOT
BRANCH   1   9
HETATM    9  O2  UNL     1      20.046  38.274  18.272  1.00  0.00    -0.348 OA
BRANCH   9  10
HETATM   10  C5  UNL     1      21.381  38.084  18.658  1.00  0.00     0.201 C
BRANCH  10  11
HETATM   11  C4  UNL     1      22.259  38.646  17.559  1.00  0.00     0.194 C
BRANCH  11  12
HETATM   12  O1  UNL     1      22.722  39.872  17.947  1.00  0.00    -0.389 OA
BRANCH  12  13
HETATM   13  C3  UNL     1      23.429  40.578  17.008  1.00  0.00     0.167 C
BRANCH  13  14
HETATM   14  C2  UNL     1      22.695  41.811  16.524  1.00  0.00     0.022 C
HETATM   15  C1  UNL     1      22.447  42.792  17.631  1.00  0.00     0.007 C
ENDBRANCH  13  14
ENDBRANCH  12  13
ENDBRANCH  11  12
ENDBRANCH  10  11
ENDBRANCH   9  10
ENDBRANCH   1   9
BRANCH   2  16
HETATM   16  C8  UNL     1      18.755  36.501  20.147  1.00  0.00     0.041 C
BRANCH  16  17
HETATM   17  C9  UNL     1      17.804  35.556  19.483  1.00  0.00     0.000 C
HETATM   18  C10 UNL     1      18.333  35.205  18.114  1.00  0.00     0.005 C
ENDBRANCH  16  17
ENDBRANCH   2  16
BRANCH   6  19
HETATM   19  C15 UNL     1      17.276  42.030  19.630  1.00  0.00     0.035 C
HETATM   20  C16 UNL     1      18.041  42.907  20.593  1.00  0.00     0.010 C
ENDBRANCH   6  19
TORSDOF 9
ENDMDL