MODEL 2
REMARK VINA RESULT: -5.516237605      1.800      4.373
REMARK  5 active torsions:
REMARK  status: ('A' for Active; 'I' for Inactive)
REMARK    1  A    between atoms: S1_3  and  C2_6
REMARK    2  A    between atoms: C3_7  and  O3_8
REMARK    3  A    between atoms: C6_14  and  O4_15
REMARK    4  A    between atoms: C7_17  and  C8_18
REMARK    5  A    between atoms: C8_18  and  O5_20
ROOT
HETATM    1  N1  UNL     1       6.972  11.052  43.868  1.00  0.00    -0.179 NA
HETATM    2  C1  UNL     1       6.448  11.914  43.304  1.00  0.00     0.199 C
HETATM    3  S1  UNL     1       5.692  13.204  42.447  1.00  0.00     0.273 S
HETATM    4  O1  UNL     1       5.617  14.416  43.258  1.00  0.00    -0.207 OA
HETATM    5  O2  UNL     1       4.186  12.800  42.256  1.00  0.00    -0.207 OA
ENDROOT
BRANCH   3   6
HETATM    6  C2  UNL     1       6.300  13.412  40.837  1.00  0.00     0.125 A
HETATM    7  C3  UNL     1       6.863  14.662  40.509  1.00  0.00     0.115 A
HETATM    8  C4  UNL     1       7.380  14.933  39.267  1.00  0.00     0.108 A
HETATM    9  N2  UNL     1       7.939  16.202  38.970  1.00  0.00    -0.097 NA
HETATM   10  C5  UNL     1       7.370  13.982  38.274  1.00  0.00     0.107 A
HETATM   11  N3  UNL     1       7.894  14.234  36.988  1.00  0.00    -0.097 NA
HETATM   12  C6  UNL     1       6.829  12.768  38.570  1.00  0.00     0.107 A
HETATM   13  C7  UNL     1       6.291  12.466  39.839  1.00  0.00     0.072 A
BRANCH   7  14
HETATM   14  O3  UNL     1       6.880  15.633  41.503  1.00  0.00    -0.357 OA
ATOM     15  H3  UNL     1       7.329  16.447  41.308  1.00  0.00     0.217 HD
ENDBRANCH   7  14
BRANCH  12  16
HETATM   16  O4  UNL     1       6.819  11.802  37.563  1.00  0.00    -0.358 OA
ATOM     17  H4  UNL     1       6.102  11.824  36.939  1.00  0.00     0.217 HD
ENDBRANCH  12  16
BRANCH  13  18
HETATM   18  C8  UNL     1       5.721  11.161  40.001  1.00  0.00     0.164 C
HETATM   19  N4  UNL     1       6.241   9.927  40.393  1.00  0.00    -0.074 NA
BRANCH  18  20
HETATM   20  O5  UNL     1       4.436  11.092  39.728  1.00  0.00    -0.348 OA
ATOM     21  H5  UNL     1       4.020  10.282  40.000  1.00  0.00     0.219 HD
ENDBRANCH  18  20
ENDBRANCH  13  18
ENDBRANCH   3   6
TORSDOF 5
ENDMDL