MODEL 1
REMARK VINA RESULT: -7.704269669      0.000      0.000
REMARK  4 active torsions:
REMARK  status: ('A' for Active; 'I' for Inactive)
REMARK    1  A    between atoms: C2_2  and  C3_8
REMARK    2  A    between atoms: N1_3  and  N2_5
REMARK    3  A    between atoms: N5_13  and  C4_14
REMARK    4  A    between atoms: C8_22  and  N9_23
ROOT
HETATM    1  C4  UNL     1       6.526  14.791  39.249  1.00  0.00     0.708 A
HETATM    2  N6  UNL     1       6.490  15.195  40.522  1.00  0.00    -0.175 N
ATOM      3  H6  UNL     1       6.830  16.134  40.728  1.00  0.00     0.185 HD
HETATM    4  C5  UNL     1       6.040  14.456  41.554  1.00  0.00     0.156 A
HETATM    5  N7  UNL     1       6.017  14.915  42.886  1.00  0.00    -0.080 NA
HETATM    6  C6  UNL     1       5.578  13.171  41.257  1.00  0.00     0.130 A
HETATM    7  C7  UNL     1       5.094  12.372  42.348  1.00  0.00     0.106 C
HETATM    8  N8  UNL     1       4.699  11.719  43.210  1.00  0.00    -0.191 NA
HETATM    9  C8  UNL     1       5.601  12.724  39.954  1.00  0.00     0.139 A
HETATM   10  N10 UNL     1       6.065  13.529  38.998  1.00  0.00    -0.173 N
ATOM     11  H10 UNL     1       6.078  13.188  38.036  1.00  0.00     0.186 HD
ENDROOT
BRANCH   9  12
HETATM   12  N9  UNL     1       5.165  11.532  39.716  1.00  0.00    -0.384 N
ATOM     13  H92 UNL     1       5.422  10.724  40.284  1.00  0.00     0.157 HD
ATOM     14  H91 UNL     1       4.536  11.403  38.923  1.00  0.00     0.157 HD
ENDBRANCH   9  12
BRANCH   1  15
HETATM   15  N5  UNL     1       7.000  15.576  38.183  1.00  0.00    -0.074 N
HETATM   16  N4  UNL     1       7.734  15.158  37.182  1.00  0.00    -0.221 N
HETATM   17  N3  UNL     1       8.006  16.154  36.354  1.00  0.00    -0.282 N
ATOM     18  H4  UNL     1       8.052  14.197  37.057  1.00  0.00     0.209 HD
HETATM   19  C3  UNL     1       7.418  17.284  36.842  1.00  0.00     0.098 A
ATOM     20  H3  UNL     1       8.559  16.088  35.500  1.00  0.00     0.188 HD
HETATM   21  C9  UNL     1       6.792  16.889  37.994  1.00  0.00     0.080 A
HETATM   22  C10 UNL     1       6.005  17.763  38.900  1.00  0.00     0.074 C
BRANCH  19  23
HETATM   23  C2  UNL     1       7.488  18.593  36.209  1.00  0.00     0.051 C
HETATM   24  C1  UNL     1       6.399  19.216  35.442  1.00  0.00     0.072 C
HETATM   25  N1  UNL     1       8.588  19.308  36.306  1.00  0.00    -0.309 N
ATOM     26  H1  UNL     1       8.618  20.222  35.856  1.00  0.00     0.186 HD
BRANCH  25  27
HETATM   27  N2  UNL     1       9.707  18.870  36.993  1.00  0.00    -0.345 N
ATOM     28  H22 UNL     1      10.070  17.946  36.763  1.00  0.00     0.176 HD
ATOM     29  H21 UNL     1      10.171  19.431  37.707  1.00  0.00     0.176 HD
ENDBRANCH  25  27
ENDBRANCH  19  23
ENDBRANCH   1  15
TORSDOF 4
ENDMDL