MODEL 2
REMARK VINA RESULT: -6.992029101      1.351      1.397
REMARK  2 active torsions:
REMARK  status: ('A' for Active; 'I' for Inactive)
REMARK    1  A    between atoms: N5_12  and  N6_14
REMARK    2  A    between atoms: C3_16  and  C4_17
ROOT
HETATM    1  N1  UNL     1       6.537  11.796  39.901  1.00  0.00    -0.378 N
ATOM      2  H11 UNL     1       5.775  11.936  40.564  1.00  0.00     0.158 HD
ATOM      3  H12 UNL     1       7.013  10.894  39.926  1.00  0.00     0.158 HD
HETATM    4  C1  UNL     1       6.859  12.733  39.084  1.00  0.00     0.161 C
HETATM    5  N2  UNL     1       7.917  12.540  38.164  1.00  0.00    -0.265 N
ATOM      6  H2  UNL     1       8.558  11.767  38.348  1.00  0.00     0.190 HD
HETATM    7  N3  UNL     1       8.158  13.296  37.049  1.00  0.00    -0.239 N
ATOM      8  H3  UNL     1       8.393  12.880  36.148  1.00  0.00     0.208 HD
HETATM    9  N4  UNL     1       8.059  14.663  37.227  1.00  0.00    -0.264 N
ATOM     10  H4  UNL     1       8.810  15.244  36.853  1.00  0.00     0.190 HD
HETATM   11  C2  UNL     1       6.996  15.314  37.889  1.00  0.00     0.182 C
HETATM   12  N5  UNL     1       6.727  16.541  37.689  1.00  0.00    -0.279 N
ATOM     13  H5  UNL     1       5.946  16.963  38.193  1.00  0.00     0.189 HD
HETATM   14  S1  UNL     1       6.022  14.321  39.040  1.00  0.00    -0.014 SA
ENDROOT
BRANCH  12  15
HETATM   15  N6  UNL     1       7.449  17.313  36.821  1.00  0.00    -0.307 N
HETATM   16  C3  UNL     1       7.098  18.427  36.308  1.00  0.00     0.143 C
ATOM     17  H6  UNL     1       8.369  16.961  36.556  1.00  0.00     0.186 HD
BRANCH  16  18
HETATM   18  C4  UNL     1       5.806  18.992  36.638  1.00  0.00     0.133 A
HETATM   19  N7  UNL     1       4.872  19.215  35.670  1.00  0.00    -0.290 N
HETATM   20  N8  UNL     1       3.712  19.734  36.031  1.00  0.00    -0.251 N
ATOM     21  H7  UNL     1       5.064  18.988  34.694  1.00  0.00     0.187 HD
HETATM   22  C5  UNL     1       3.452  20.034  37.305  1.00  0.00     0.341 A
ATOM     23  H8  UNL     1       3.001  19.909  35.321  1.00  0.00     0.191 HD
HETATM   24  O1  UNL     1       2.333  20.524  37.590  1.00  0.00    -0.245 OA
HETATM   25  N9  UNL     1       4.343  19.833  38.301  1.00  0.00    -0.272 N
HETATM   26  C6  UNL     1       5.528  19.308  37.956  1.00  0.00     0.279 A
ATOM     27  H9  UNL     1       4.125  20.070  39.268  1.00  0.00     0.173 HD
HETATM   28  O2  UNL     1       6.414  19.087  38.815  1.00  0.00    -0.265 OA
ENDBRANCH  16  18
ENDBRANCH  12  15
TORSDOF 2
ENDMDL