MODEL 4
REMARK VINA RESULT: -7.054102503      2.964      6.029
REMARK  6 active torsions:
REMARK  status: ('A' for Active; 'I' for Inactive)
REMARK    1  A    between atoms: N1_1  and  N2_4
REMARK    2  A    between atoms: N2_4  and  C1_6
REMARK    3  A    between atoms: C2_9  and  C3_10
REMARK    4  A    between atoms: C6_15  and  N5_16
REMARK    5  A    between atoms: C7_21  and  N7_22
REMARK    6  A    between atoms: N7_22  and  N8_24
ROOT
HETATM    1  C1  UNL     1       3.528  20.367  39.310  1.00  0.00     0.712 A
HETATM    2  N3  UNL     1       4.581  19.610  38.999  1.00  0.00    -0.173 N
ATOM      3  H3  UNL     1       5.176  19.318  39.773  1.00  0.00     0.186 HD
HETATM    4  C2  UNL     1       4.937  19.194  37.787  1.00  0.00     0.151 A
HETATM    5  N6  UNL     1       4.112  19.602  36.762  1.00  0.00    -0.173 N
ATOM      6  H6  UNL     1       4.319  19.323  35.804  1.00  0.00     0.186 HD
HETATM    7  C7  UNL     1       3.038  20.366  37.018  1.00  0.00     0.712 A
HETATM    8  N9  UNL     1       2.733  20.753  38.266  1.00  0.00    -0.019 N
ATOM      9  H9  UNL     1       1.912  21.334  38.436  1.00  0.00     0.203 HD
ENDROOT
BRANCH   4  10
HETATM   10  C3  UNL     1       6.085  18.366  37.432  1.00  0.00     0.070 A
HETATM   11  C4  UNL     1       6.045  16.967  37.340  1.00  0.00     0.073 A
HETATM   12  C5  UNL     1       7.300  16.567  36.989  1.00  0.00     0.160 A
HETATM   13  N4  UNL     1       7.717  15.208  36.783  1.00  0.00    -0.074 NA
HETATM   14  O1  UNL     1       8.040  17.598  36.872  1.00  0.00    -0.273 OA
HETATM   15  C6  UNL     1       7.359  18.734  37.130  1.00  0.00     0.230 A
BRANCH  15  16
HETATM   16  N5  UNL     1       7.964  20.004  37.066  1.00  0.00    -0.089 N
HETATM   17  O2  UNL     1       8.535  20.281  35.957  1.00  0.00    -0.530 OA
HETATM   18  O3  UNL     1       7.977  20.905  38.060  1.00  0.00    -0.530 OA
ENDBRANCH  15  16
ENDBRANCH   4  10
BRANCH   1  19
HETATM   19  N2  UNL     1       3.199  20.760  40.476  1.00  0.00    -0.138 N
ATOM     20  H2  UNL     1       3.976  21.012  41.087  1.00  0.00     0.205 HD
BRANCH  19  21
HETATM   21  N1  UNL     1       1.956  20.892  41.030  1.00  0.00    -0.331 N
ATOM     22  H12 UNL     1       1.530  20.008  41.311  1.00  0.00     0.177 HD
ATOM     23  H11 UNL     1       1.407  21.735  41.198  1.00  0.00     0.177 HD
ENDBRANCH  19  21
ENDBRANCH   1  19
BRANCH   7  24
HETATM   24  N7  UNL     1       2.312  20.712  36.013  1.00  0.00    -0.138 N
ATOM     25  H7  UNL     1       2.762  20.850  35.109  1.00  0.00     0.205 HD
BRANCH  24  26
HETATM   26  N8  UNL     1       0.935  20.907  36.112  1.00  0.00    -0.331 N
ATOM     27  H82 UNL     1       0.442  20.427  36.865  1.00  0.00     0.177 HD
ATOM     28  H81 UNL     1       0.416  21.503  35.467  1.00  0.00     0.177 HD
ENDBRANCH  24  26
ENDBRANCH   7  24
TORSDOF 6
ENDMDL