MODEL 3
REMARK VINA RESULT: -6.623301222      1.873      2.951
REMARK  3 active torsions:
REMARK  status: ('A' for Active; 'I' for Inactive)
REMARK    1  A    between atoms: C3_5  and  N3_6
REMARK    2  A    between atoms: N4_8  and  C4_10
REMARK    3  A    between atoms: C5_13  and  N6_14
ROOT
HETATM    1  N3  UNL     1       7.046  14.364  39.728  1.00  0.00    -0.291 N
ATOM      2  H3  UNL     1       8.056  14.440  39.610  1.00  0.00     0.187 HD
HETATM    3  N4  UNL     1       6.305  15.164  39.061  1.00  0.00    -0.280 N
ATOM      4  H4  UNL     1       5.289  15.133  39.141  1.00  0.00     0.188 HD
ENDROOT
BRANCH   3   5
HETATM    5  C4  UNL     1       6.949  16.101  38.205  1.00  0.00     0.205 A
HETATM    6  N5  UNL     1       6.876  17.409  38.491  1.00  0.00    -0.169 N
HETATM    7  C5  UNL     1       7.485  18.297  37.683  1.00  0.00     0.692 A
ATOM      8  H5  UNL     1       6.365  17.728  39.313  1.00  0.00     0.186 HD
HETATM    9  N7  UNL     1       8.160  17.886  36.597  1.00  0.00    -0.129 N
HETATM   10  N8  UNL     1       8.260  16.614  36.272  1.00  0.00    -0.249 N
ATOM     11  H7  UNL     1       8.610  18.583  36.003  1.00  0.00     0.205 HD
HETATM   12  C6  UNL     1       7.650  15.727  37.085  1.00  0.00     0.306 A
ATOM     13  H8  UNL     1       8.775  16.313  35.445  1.00  0.00     0.191 HD
HETATM   14  O1  UNL     1       7.709  14.495  36.828  1.00  0.00    -0.263 OA
BRANCH   7  15
HETATM   15  N6  UNL     1       7.408  19.546  37.967  1.00  0.00    -0.233 N
ATOM     16  H62 UNL     1       6.525  20.045  37.866  1.00  0.00     0.174 HD
ATOM     17  H61 UNL     1       8.244  20.029  38.295  1.00  0.00     0.174 HD
ENDBRANCH   7  15
ENDBRANCH   3   5
BRANCH   1  18
HETATM   18  C3  UNL     1       6.564  13.388  40.610  1.00  0.00     0.158 A
HETATM   19  C2  UNL     1       6.190  13.728  41.896  1.00  0.00     0.156 A
HETATM   20  N1  UNL     1       5.735  12.744  42.694  1.00  0.00    -0.290 N
HETATM   21  N2  UNL     1       6.274  15.055  42.373  1.00  0.00    -0.080 NA
HETATM   22  C1  UNL     1       5.341  13.101  44.046  1.00  0.00     0.162 C
HETATM   23  C8  UNL     1       5.649  11.489  42.260  1.00  0.00     0.330 A
HETATM   24  N9  UNL     1       6.007  11.141  41.019  1.00  0.00    -0.273 N
HETATM   25  O3  UNL     1       5.206  10.637  43.097  1.00  0.00    -0.246 OA
HETATM   26  C7  UNL     1       6.461  12.082  40.200  1.00  0.00     0.281 A
ATOM     27  H9  UNL     1       5.934  10.173  40.709  1.00  0.00     0.173 HD
HETATM   28  O2  UNL     1       6.813  11.792  39.005  1.00  0.00    -0.265 OA
ENDBRANCH   1  18
TORSDOF 3
ENDMDL