MODEL 3
REMARK VINA RESULT: -6.962362575      1.566      2.579
REMARK  4 active torsions:
REMARK  status: ('A' for Active; 'I' for Inactive)
REMARK    1  A    between atoms: C2_3  and  N2_4
REMARK    2  A    between atoms: N3_6  and  C3_8
REMARK    3  A    between atoms: C5_15  and  O2_16
REMARK    4  A    between atoms: N7_24  and  N8_25
ROOT
HETATM    1  N2  UNL     1       7.137  15.449  38.794  1.00  0.00    -0.291 N
ATOM      2  H2  UNL     1       8.004  15.328  38.270  1.00  0.00     0.187 HD
HETATM    3  N3  UNL     1       6.636  16.599  38.799  1.00  0.00    -0.281 N
ATOM      4  H3  UNL     1       5.769  16.790  39.303  1.00  0.00     0.188 HD
ENDROOT
BRANCH   1   5
HETATM    5  C2  UNL     1       6.623  14.315  39.436  1.00  0.00     0.160 A
HETATM    6  C1  UNL     1       6.643  13.094  38.803  1.00  0.00     0.176 A
HETATM    7  N1  UNL     1       7.191  13.028  37.504  1.00  0.00    -0.078 NA
HETATM    8  N7  UNL     1       6.153  11.971  39.399  1.00  0.00    -0.195 N
HETATM    9  C7  UNL     1       5.648  12.113  40.637  1.00  0.00     0.349 A
HETATM   10  N6  UNL     1       5.607  13.287  41.292  1.00  0.00    -0.272 N
HETATM   11  O4  UNL     1       5.178  11.080  41.227  1.00  0.00    -0.244 OA
HETATM   12  C6  UNL     1       6.095  14.408  40.703  1.00  0.00     0.281 A
ATOM     13  H6  UNL     1       5.211  13.334  42.231  1.00  0.00     0.174 HD
HETATM   14  O3  UNL     1       6.043  15.497  41.346  1.00  0.00    -0.265 OA
BRANCH   8  15
HETATM   15  N8  UNL     1       6.187  10.745  38.733  1.00  0.00    -0.333 N
ATOM     16  H82 UNL     1       5.351  10.301  38.353  1.00  0.00     0.177 HD
ATOM     17  H81 UNL     1       7.069  10.250  38.606  1.00  0.00     0.177 HD
ENDBRANCH   8  15
ENDBRANCH   1   5
BRANCH   3  18
HETATM   18  C3  UNL     1       7.307  17.630  38.083  1.00  0.00     0.176 A
HETATM   19  N4  UNL     1       7.354  18.938  38.396  1.00  0.00    -0.290 N
HETATM   20  C4  UNL     1       8.099  19.580  37.453  1.00  0.00     0.328 A
ATOM     21  H4  UNL     1       6.907  19.374  39.203  1.00  0.00     0.172 HD
HETATM   22  O1  UNL     1       8.309  20.817  37.498  1.00  0.00    -0.247 OA
HETATM   23  N5  UNL     1       8.528  18.679  36.538  1.00  0.00    -0.286 N
HETATM   24  C5  UNL     1       8.038  17.479  36.929  1.00  0.00     0.191 A
ATOM     25  H5  UNL     1       9.104  18.867  35.717  1.00  0.00     0.172 HD
BRANCH  24  26
HETATM   26  O2  UNL     1       8.253  16.300  36.254  1.00  0.00    -0.343 OA
ATOM     27  H2  UNL     1       8.904  16.153  35.577  1.00  0.00     0.219 HD
ENDBRANCH  24  26
ENDBRANCH   3  18
TORSDOF 4
ENDMDL