MODEL 1
REMARK VINA RESULT: -7.252808766      0.000      0.000
REMARK  3 active torsions:
REMARK  status: ('A' for Active; 'I' for Inactive)
REMARK    1  A    between atoms: O1_2  and  C2_3
REMARK    2  A    between atoms: C2_3  and  C3_5
REMARK    3  A    between atoms: C4_6  and  N1_7
REMARK       I    between atoms: N1_7  and  C5_9
ROOT
HETATM    1  C3  UNL     1       7.688  14.649  37.789  1.00  0.00     0.136 A
HETATM    2  C4  UNL     1       6.956  15.483  38.607  1.00  0.00     0.089 A
HETATM    3  C6  UNL     1       6.810  16.832  38.345  1.00  0.00     0.115 A
HETATM    4  N3  UNL     1       6.106  17.668  39.117  1.00  0.00    -0.237 N
ATOM      5  H3  UNL     1       5.637  17.326  39.955  1.00  0.00     0.197 HD
HETATM    6  O4  UNL     1       6.031  18.913  38.785  1.00  0.00    -0.155 OA
HETATM    7  N4  UNL     1       6.570  19.466  37.766  1.00  0.00    -0.224 N
ATOM      8  H4  UNL     1       6.445  20.464  37.599  1.00  0.00     0.198 HD
HETATM    9  C7  UNL     1       7.301  18.726  36.916  1.00  0.00     0.150 A
HETATM   10  N5  UNL     1       7.868  19.239  35.869  1.00  0.00    -0.382 N
ATOM     11  H51 UNL     1       8.423  18.676  35.223  1.00  0.00     0.157 HD
ATOM     12  H52 UNL     1       7.757  20.235  35.679  1.00  0.00     0.157 HD
HETATM   13  C8  UNL     1       7.448  17.398  37.168  1.00  0.00     0.112 A
HETATM   14  N6  UNL     1       8.154  16.553  36.394  1.00  0.00    -0.317 N
ATOM     15  H6  UNL     1       8.616  16.913  35.560  1.00  0.00     0.169 HD
HETATM   16  C9  UNL     1       8.268  15.254  36.689  1.00  0.00     0.264 A
HETATM   17  O5  UNL     1       8.948  14.540  35.907  1.00  0.00    -0.267 OA
ENDROOT
BRANCH   2  18
HETATM   18  N1  UNL     1       6.338  14.946  39.752  1.00  0.00    -0.308 N
HETATM   19  C5  UNL     1       6.830  15.182  41.055  1.00  0.00     0.333 C
HETATM   20  N2  UNL     1       6.180  14.624  42.178  1.00  0.00    -0.040 NA
HETATM   21  O3  UNL     1       7.851  15.891  41.202  1.00  0.00    -0.251 OA
ATOM     22  H1  UNL     1       5.505  14.367  39.638  1.00  0.00     0.170 HD
ENDBRANCH   2  18
BRANCH   1  23
HETATM   23  C2  UNL     1       7.864  13.225  38.021  1.00  0.00     0.300 C
HETATM   24  O2  UNL     1       6.940  12.454  37.666  1.00  0.00    -0.259 OA
BRANCH  23  25
HETATM   25  O1  UNL     1       8.978  12.653  38.606  1.00  0.00    -0.322 OA
HETATM   26  C1  UNL     1       9.331  12.801  39.959  1.00  0.00     0.213 C
ENDBRANCH  23  25
ENDBRANCH   1  23
TORSDOF 3
ENDMDL