MODEL 3
REMARK VINA RESULT: -7.762480568      2.440      3.843
REMARK  3 active torsions:
REMARK  status: ('A' for Active; 'I' for Inactive)
REMARK       I    between atoms: C1_4  and  N2_5
REMARK       I    between atoms: C1_4  and  N8_19
REMARK    1  A    between atoms: N2_5  and  N3_7
REMARK    2  A    between atoms: C2_9  and  C3_10
REMARK    3  A    between atoms: C5_25  and  N11_26
ROOT
HETATM    1  N1  UNL     1       7.342  14.378  37.573  1.00  0.00    -0.232 N
ATOM      2  H11 UNL     1       7.485  13.424  37.903  1.00  0.00     0.174 HD
ATOM      3  H12 UNL     1       7.531  14.583  36.592  1.00  0.00     0.174 HD
HETATM    4  C1  UNL     1       6.931  15.324  38.351  1.00  0.00     0.713 C
HETATM    5  N2  UNL     1       6.733  16.643  37.895  1.00  0.00    -0.131 N
ATOM      6  H2  UNL     1       6.544  16.821  36.909  1.00  0.00     0.205 HD
HETATM    7  N8  UNL     1       6.665  15.035  39.732  1.00  0.00    -0.069 N
HETATM    8  N9  UNL     1       6.879  15.831  40.763  1.00  0.00    -0.221 N
ATOM      9  H9  UNL     1       7.269  16.772  40.708  1.00  0.00     0.209 HD
HETATM   10  N10 UNL     1       6.506  15.217  41.891  1.00  0.00    -0.280 N
ATOM     11  H10 UNL     1       6.566  15.614  42.829  1.00  0.00     0.189 HD
HETATM   12  C4  UNL     1       6.037  13.988  41.589  1.00  0.00     0.122 A
HETATM   13  C5  UNL     1       5.533  12.960  42.363  1.00  0.00     0.129 A
HETATM   14  N12 UNL     1       5.130  11.809  41.750  1.00  0.00    -0.351 N
ATOM     15  H12 UNL     1       4.757  11.046  42.313  1.00  0.00     0.166 HD
HETATM   16  C6  UNL     1       5.214  11.663  40.415  1.00  0.00     0.092 A
HETATM   17  C7  UNL     1       5.720  12.701  39.651  1.00  0.00     0.052 A
HETATM   18  C8  UNL     1       6.143  13.886  40.217  1.00  0.00     0.109 A
ENDROOT
BRANCH   5  19
HETATM   19  N3  UNL     1       6.796  17.696  38.790  1.00  0.00    -0.294 N
HETATM   20  C2  UNL     1       6.253  18.836  38.546  1.00  0.00     0.159 C
ATOM     21  H3  UNL     1       7.289  17.563  39.673  1.00  0.00     0.186 HD
BRANCH  20  22
HETATM   22  C3  UNL     1       5.536  19.092  37.308  1.00  0.00     0.154 A
HETATM   23  N4  UNL     1       5.990  19.046  36.041  1.00  0.00    -0.268 N
HETATM   24  N5  UNL     1       4.979  19.352  35.257  1.00  0.00    -0.227 N
ATOM     25  H4  UNL     1       6.939  18.817  35.745  1.00  0.00     0.190 HD
HETATM   26  N6  UNL     1       3.904  19.589  35.971  1.00  0.00    -0.227 N
ATOM     27  H5  UNL     1       5.024  19.398  34.239  1.00  0.00     0.210 HD
HETATM   28  N7  UNL     1       4.237  19.432  37.220  1.00  0.00    -0.268 N
ATOM     29  H6  UNL     1       2.983  19.847  35.615  1.00  0.00     0.210 HD
ATOM     30  H7  UNL     1       3.606  19.551  38.014  1.00  0.00     0.190 HD
ENDBRANCH  20  22
ENDBRANCH   5  19
BRANCH  13  31
HETATM   31  N11 UNL     1       5.444  13.075  43.625  1.00  0.00    -0.384 N
ATOM     32 2H11 UNL     1       6.267  12.935  44.211  1.00  0.00     0.157 HD
ATOM     33 1H11 UNL     1       4.556  13.307  44.069  1.00  0.00     0.157 HD
ENDBRANCH  13  31
TORSDOF 3
ENDMDL