MODEL 3
REMARK VINA RESULT: -5.949728794      3.213      4.500
REMARK  4 active torsions:
REMARK  status: ('A' for Active; 'I' for Inactive)
REMARK    1  A    between atoms: C2_3  and  C3_4
REMARK    2  A    between atoms: C4_7  and  N3_8
REMARK    3  A    between atoms: C6_19  and  N7_20
REMARK    4  A    between atoms: N7_20  and  O1_22
ROOT
HETATM    1  C3  UNL     1       5.492  12.682  41.625  1.00  0.00     0.166 A
HETATM    2  N2  UNL     1       4.150  12.416  41.633  1.00  0.00    -0.173 N
ATOM      3  H2  UNL     1       3.626  12.578  40.772  1.00  0.00     0.186 HD
HETATM    4  C4  UNL     1       3.483  11.959  42.685  1.00  0.00     0.692 A
HETATM    5  N4  UNL     1       4.132  11.725  43.855  1.00  0.00    -0.023 N
ATOM      6  H4  UNL     1       3.634  11.374  44.672  1.00  0.00     0.203 HD
HETATM    7  C5  UNL     1       5.445  11.970  43.898  1.00  0.00     0.692 A
HETATM    8  N5  UNL     1       6.088  11.756  44.996  1.00  0.00    -0.234 N
ATOM      9  H51 UNL     1       7.091  11.943  45.030  1.00  0.00     0.174 HD
ATOM     10  H52 UNL     1       5.604  11.405  45.822  1.00  0.00     0.174 HD
HETATM   11  N6  UNL     1       6.094  12.441  42.791  1.00  0.00    -0.173 N
ATOM     12  H6  UNL     1       7.096  12.618  42.861  1.00  0.00     0.186 HD
ENDROOT
BRANCH   1  13
HETATM   13  C2  UNL     1       6.140  13.104  40.387  1.00  0.00     0.118 A
HETATM   14  N1  UNL     1       6.454  14.412  40.147  1.00  0.00    -0.298 N
HETATM   15  C1  UNL     1       6.089  15.392  41.139  1.00  0.00     0.161 C
HETATM   16  C9  UNL     1       7.114  14.795  39.015  1.00  0.00     0.331 A
HETATM   17  N8  UNL     1       7.495  13.925  38.074  1.00  0.00    -0.269 N
HETATM   18  O3  UNL     1       7.350  16.043  38.899  1.00  0.00    -0.246 OA
HETATM   19  C7  UNL     1       7.195  12.645  38.296  1.00  0.00     0.282 A
HETATM   20  C8  UNL     1       8.193  14.386  36.891  1.00  0.00     0.164 C
HETATM   21  C6  UNL     1       6.525  12.204  39.431  1.00  0.00     0.153 A
HETATM   22  O2  UNL     1       7.538  11.808  37.436  1.00  0.00    -0.265 OA
BRANCH  21  23
HETATM   23  N7  UNL     1       6.231  10.796  39.497  1.00  0.00    -0.262 N
ATOM     24  H7  UNL     1       6.741  10.156  40.108  1.00  0.00     0.194 HD
BRANCH  23  25
HETATM   25  O1  UNL     1       5.298  10.414  38.743  1.00  0.00    -0.289 OA
ATOM     26  H1  UNL     1       5.428   9.560  38.348  1.00  0.00     0.244 HD
ENDBRANCH  23  25
ENDBRANCH  21  23
ENDBRANCH   1  13
BRANCH   4  27
HETATM   27  N3  UNL     1       2.219  11.709  42.689  1.00  0.00    -0.234 N
ATOM     28  H32 UNL     1       1.657  12.264  42.044  1.00  0.00     0.174 HD
ATOM     29  H31 UNL     1       1.775  11.011  43.284  1.00  0.00     0.174 HD
ENDBRANCH   4  27
TORSDOF 4
ENDMDL