MODEL 2
REMARK VINA RESULT: -6.729047912      5.054      7.491
REMARK  3 active torsions:
REMARK  status: ('A' for Active; 'I' for Inactive)
REMARK    1  A    between atoms: C4_10  and  N4_11
REMARK    2  A    between atoms: C5_16  and  N6_17
REMARK    3  A    between atoms: N7_19  and  N8_21
REMARK       I    between atoms: N8_21  and  C6_23
ROOT
HETATM    1  C1  UNL     1       5.513  13.252  41.452  1.00  0.00     0.164 C
HETATM    2  N1  UNL     1       6.292  13.361  40.232  1.00  0.00    -0.270 N
HETATM    3  C2  UNL     1       6.862  12.307  39.625  1.00  0.00     0.330 A
HETATM    4  O1  UNL     1       6.693  11.169  40.167  1.00  0.00    -0.246 OA
HETATM    5  N2  UNL     1       7.583  12.436  38.488  1.00  0.00    -0.293 N
ATOM      6  H2  UNL     1       8.007  11.623  38.041  1.00  0.00     0.172 HD
HETATM    7  C3  UNL     1       7.726  13.676  37.961  1.00  0.00     0.144 A
HETATM    8  N3  UNL     1       8.429  13.876  36.836  1.00  0.00    -0.176 N
ATOM      9  H3  UNL     1       8.859  13.072  36.380  1.00  0.00     0.186 HD
HETATM   10  C4  UNL     1       8.590  15.092  36.284  1.00  0.00     0.679 A
HETATM   11  N5  UNL     1       8.028  16.186  36.872  1.00  0.00    -0.174 N
ATOM     12  H5  UNL     1       8.148  17.110  36.457  1.00  0.00     0.186 HD
HETATM   13  C5  UNL     1       7.314  16.039  38.001  1.00  0.00     0.156 A
HETATM   14  C7  UNL     1       7.157  14.788  38.553  1.00  0.00     0.123 A
HETATM   15  C8  UNL     1       6.430  14.608  39.711  1.00  0.00     0.269 A
HETATM   16  O3  UNL     1       5.896  15.597  40.282  1.00  0.00    -0.267 OA
ENDROOT
BRANCH  13  17
HETATM   17  N6  UNL     1       6.740  17.193  38.592  1.00  0.00    -0.269 N
HETATM   18  N7  UNL     1       6.025  18.019  37.993  1.00  0.00    -0.237 N
ATOM     19  H7  UNL     1       5.813  17.895  37.003  1.00  0.00     0.208 HD
ATOM     20  H6  UNL     1       6.926  17.359  39.581  1.00  0.00     0.190 HD
BRANCH  18  21
HETATM   21  N8  UNL     1       5.520  19.114  38.690  1.00  0.00    -0.239 N
HETATM   22  C6  UNL     1       4.352  19.776  38.244  1.00  0.00     0.348 C
HETATM   23  N9  UNL     1       3.872  20.884  38.979  1.00  0.00    -0.038 NA
HETATM   24  O2  UNL     1       3.721  19.421  37.216  1.00  0.00    -0.249 OA
ATOM     25  H8  UNL     1       5.997  19.441  39.530  1.00  0.00     0.193 HD
ENDBRANCH  18  21
ENDBRANCH  13  17
BRANCH  10  26
HETATM   26  N4  UNL     1       9.268  15.273  35.202  1.00  0.00    -0.234 N
ATOM     27  H42 UNL     1       8.836  15.815  34.455  1.00  0.00     0.174 HD
ATOM     28  H41 UNL     1      10.208  14.896  35.078  1.00  0.00     0.174 HD
ENDBRANCH  10  26
TORSDOF 3
ENDMDL