MODEL 2
REMARK VINA RESULT: -6.062160614      0.042      4.035
REMARK  4 active torsions:
REMARK  status: ('A' for Active; 'I' for Inactive)
REMARK    1  A    between atoms: N1_4  and  C4_5
REMARK    2  A    between atoms: C4_5  and  C5_6
REMARK    3  A    between atoms: C5_6  and  C6_7
REMARK    4  A    between atoms: C6_7  and  N2_8
ROOT
HETATM    1  C5  UNL     1      38.005  74.422  37.427  1.00  0.00     0.040 C
ENDROOT
BRANCH   1   2
HETATM    2  C4  UNL     1      38.993  74.070  36.345  1.00  0.00     0.129 C
BRANCH   2   3
HETATM    3  N1  UNL     1      38.209  73.602  35.200  1.00  0.00    -0.366 N
HETATM    4  C3  UNL     1      38.227  72.301  34.861  1.00  0.00     0.090 A
HETATM    5  C2  UNL     1      37.499  71.824  33.789  1.00  0.00     0.017 A
HETATM    6  C1  UNL     1      36.742  72.710  33.054  1.00  0.00     0.003 A
HETATM    7  C13 UNL     1      36.707  74.056  33.385  1.00  0.00     0.017 A
HETATM    8  C12 UNL     1      37.466  74.445  34.474  1.00  0.00     0.090 A
ENDBRANCH   2   3
ENDBRANCH   1   2
BRANCH   1   9
HETATM    9  C6  UNL     1      38.022  73.452  38.572  1.00  0.00     0.129 C
BRANCH   9  10
HETATM   10  N2  UNL     1      37.228  72.316  38.194  1.00  0.00    -0.366 N
HETATM   11  C7  UNL     1      37.756  71.086  38.191  1.00  0.00     0.090 A
HETATM   12  C8  UNL     1      37.035  69.969  37.837  1.00  0.00     0.017 A
HETATM   13  C9  UNL     1      35.727  70.136  37.473  1.00  0.00     0.003 A
HETATM   14  C10 UNL     1      35.167  71.408  37.471  1.00  0.00     0.017 A
HETATM   15  C11 UNL     1      35.954  72.482  37.841  1.00  0.00     0.090 A
ENDBRANCH   9  10
ENDBRANCH   1   9
TORSDOF 4
ENDMDL