MODEL 4
REMARK VINA RESULT: -6.036370221      1.458      3.813
REMARK  5 active torsions:
REMARK  status: ('A' for Active; 'I' for Inactive)
REMARK    1  A    between atoms: N1_4  and  C4_5
REMARK    2  A    between atoms: C4_5  and  C5_6
REMARK    3  A    between atoms: C5_6  and  C6_7
REMARK    4  A    between atoms: C6_7  and  C7_8
REMARK    5  A    between atoms: C7_8  and  N2_9
ROOT
HETATM    1  C5  UNL     1      38.025  73.783  38.470  1.00  0.00     0.022 C
ENDROOT
BRANCH   1   2
HETATM    2  C4  UNL     1      37.736  74.360  37.100  1.00  0.00     0.128 C
BRANCH   2   3
HETATM    3  N1  UNL     1      36.693  73.614  36.450  1.00  0.00    -0.366 N
HETATM    4  C3  UNL     1      36.806  73.341  35.139  1.00  0.00     0.090 A
HETATM    5  C2  UNL     1      35.844  72.633  34.458  1.00  0.00     0.017 A
HETATM    6  C1  UNL     1      34.715  72.171  35.096  1.00  0.00     0.003 A
HETATM    7  C14 UNL     1      34.602  72.456  36.445  1.00  0.00     0.017 A
HETATM    8  C13 UNL     1      35.585  73.167  37.096  1.00  0.00     0.090 A
ENDBRANCH   2   3
ENDBRANCH   1   2
BRANCH   1   9
HETATM    9  C6  UNL     1      39.441  73.207  38.461  1.00  0.00     0.021 C
BRANCH   9  10
HETATM   10  C7  UNL     1      39.295  71.733  38.798  1.00  0.00     0.122 C
BRANCH  10  11
HETATM   11  N2  UNL     1      38.651  70.985  37.759  1.00  0.00    -0.385 N
HETATM   12  C8  UNL     1      39.136  70.819  36.501  1.00  0.00     0.082 A
HETATM   13  C9  UNL     1      38.266  70.050  35.781  1.00  0.00    -0.003 A
HETATM   14  C10 UNL     1      37.183  69.702  36.583  1.00  0.00     0.034 A
HETATM   15  C11 UNL     1      36.309  69.570  37.650  1.00  0.00     0.036 A
HETATM   16  C12 UNL     1      37.473  70.337  37.884  1.00  0.00     0.092 A
ENDBRANCH  10  11
ENDBRANCH   9  10
ENDBRANCH   1   9
TORSDOF 5
ENDMDL