MODEL 3
REMARK VINA RESULT: -6.015701948      1.586      3.667
REMARK  5 active torsions:
REMARK  status: ('A' for Active; 'I' for Inactive)
REMARK    1  A    between atoms: N1_4  and  C4_5
REMARK    2  A    between atoms: C4_5  and  C5_6
REMARK    3  A    between atoms: C5_6  and  C6_7
REMARK    4  A    between atoms: C6_7  and  C7_8
REMARK    5  A    between atoms: C7_8  and  N2_9
ROOT
HETATM    1  C5  UNL     1      34.763  72.109  34.624  1.00  0.00     0.022 C
ENDROOT
BRANCH   1   2
HETATM    2  C4  UNL     1      34.596  72.395  36.082  1.00  0.00     0.128 C
BRANCH   2   3
HETATM    3  N1  UNL     1      35.686  71.808  36.833  1.00  0.00    -0.366 N
HETATM    4  C3  UNL     1      35.951  70.493  36.807  1.00  0.00     0.090 A
HETATM    5  C2  UNL     1      36.981  69.924  37.514  1.00  0.00     0.017 A
HETATM    6  C1  UNL     1      37.776  70.741  38.282  1.00  0.00     0.003 A
HETATM    7  C12 UNL     1      37.504  72.097  38.308  1.00  0.00     0.017 A
HETATM    8  C11 UNL     1      36.457  72.606  37.578  1.00  0.00     0.090 A
ENDBRANCH   2   3
ENDBRANCH   1   2
BRANCH   1   9
HETATM    9  C6  UNL     1      35.638  73.154  33.969  1.00  0.00     0.023 C
BRANCH   9  10
HETATM   10  C7  UNL     1      36.665  72.551  33.064  1.00  0.00     0.148 C
BRANCH  10  11
HETATM   11  N2  UNL     1      37.828  72.225  33.895  1.00  0.00    -0.304 N
HETATM   12  C8  UNL     1      38.583  73.104  34.596  1.00  0.00     0.111 A
HETATM   13  C9  UNL     1      39.587  72.431  35.255  1.00  0.00     0.037 A
HETATM   14  C10 UNL     1      39.416  71.103  34.929  1.00  0.00     0.108 A
HETATM   15  N3  UNL     1      38.349  71.030  34.112  1.00  0.00    -0.310 N
ATOM     16  H3  UNL     1      37.989  70.164  33.711  1.00  0.00     0.186 HD
ENDBRANCH  10  11
ENDBRANCH   9  10
ENDBRANCH   1   9
TORSDOF 5
ENDMDL