MODEL 2
REMARK VINA RESULT: -6.644362693      0.071      1.188
REMARK  5 active torsions:
REMARK  status: ('A' for Active; 'I' for Inactive)
REMARK    1  A    between atoms: O1_1  and  C1_3
REMARK    2  A    between atoms: C1_3  and  C2_4
REMARK    3  A    between atoms: C2_4  and  C3_5
REMARK    4  A    between atoms: C6_8  and  C7_9
REMARK    5  A    between atoms: C7_9  and  N1_10
ROOT
HETATM    1  C3  UNL     1      40.799  71.442  38.560  1.00  0.00    -0.056 A
HETATM    2  C4  UNL     1      40.719  70.396  37.667  1.00  0.00     0.008 A
HETATM    3  C5  UNL     1      39.491  69.996  37.232  1.00  0.00     0.009 A
HETATM    4  C6  UNL     1      38.315  70.590  37.640  1.00  0.00    -0.040 A
HETATM    5  C13 UNL     1      38.387  71.636  38.531  1.00  0.00     0.009 A
HETATM    6  C14 UNL     1      39.619  72.047  38.977  1.00  0.00     0.008 A
ENDROOT
BRANCH   4   7
HETATM    7  C7  UNL     1      37.050  70.067  37.097  1.00  0.00     0.166 C
BRANCH   7   8
HETATM    8  N1  UNL     1      36.404  70.950  36.172  1.00  0.00    -0.362 N
HETATM    9  C8  UNL     1      37.025  71.432  35.083  1.00  0.00     0.090 A
HETATM   10  C9  UNL     1      36.377  72.292  34.192  1.00  0.00     0.017 A
HETATM   11  C10 UNL     1      35.081  72.657  34.428  1.00  0.00     0.003 A
HETATM   12  C11 UNL     1      34.450  72.156  35.550  1.00  0.00     0.017 A
HETATM   13  C12 UNL     1      35.132  71.318  36.390  1.00  0.00     0.090 A
ENDBRANCH   7   8
ENDBRANCH   4   7
BRANCH   1  14
HETATM   14  C2  UNL     1      42.115  71.922  39.070  1.00  0.00     0.064 C
BRANCH  14  15
HETATM   15  C1  UNL     1      41.915  72.976  40.157  1.00  0.00     0.168 C
BRANCH  15  16
HETATM   16  O1  UNL     1      42.683  74.083  39.755  1.00  0.00    -0.401 OA
ATOM     17  H1  UNL     1      43.016  74.468  40.558  1.00  0.00     0.209 HD
ENDBRANCH  15  16
ENDBRANCH  14  15
ENDBRANCH   1  14
TORSDOF 5
ENDMDL