MODEL 4
REMARK VINA RESULT: -6.460928091      0.788      1.600
REMARK  4 active torsions:
REMARK  status: ('A' for Active; 'I' for Inactive)
REMARK    1  A    between atoms: C2_2  and  C3_3
REMARK    2  A    between atoms: N1_5  and  C5_6
REMARK    3  A    between atoms: C5_6  and  C6_7
REMARK    4  A    between atoms: C7_8  and  C8_9
ROOT
HETATM    1  C5  UNL     1      39.870  69.467  36.851  1.00  0.00     0.156 C
ENDROOT
BRANCH   1   2
HETATM    2  N1  UNL     1      40.648  70.564  37.404  1.00  0.00    -0.347 N
HETATM    3  C4  UNL     1      40.877  70.849  38.689  1.00  0.00     0.121 A
HETATM    4  C3  UNL     1      41.664  71.976  38.817  1.00  0.00     0.048 A
HETATM    5  N2  UNL     1      41.910  72.372  37.555  1.00  0.00    -0.351 N
HETATM    6  C14 UNL     1      41.301  71.528  36.693  1.00  0.00     0.183 A
ATOM      7  H2  UNL     1      42.468  73.184  37.290  1.00  0.00     0.166 HD
BRANCH   4   8
HETATM    8  C2  UNL     1      42.137  72.612  40.040  1.00  0.00     0.021 C
HETATM    9  C1  UNL     1      41.990  73.904  40.270  1.00  0.00     0.013 C
ENDBRANCH   4   8
ENDBRANCH   1   2
BRANCH   1  10
HETATM   10  C6  UNL     1      38.449  69.928  36.819  1.00  0.00    -0.006 C
HETATM   11  C7  UNL     1      38.077  70.957  36.118  1.00  0.00     0.009 C
BRANCH  11  12
HETATM   12  C8  UNL     1      36.697  71.409  36.084  1.00  0.00    -0.036 A
HETATM   13  C9  UNL     1      35.867  71.272  37.161  1.00  0.00     0.011 A
HETATM   14  C10 UNL     1      34.530  71.703  37.145  1.00  0.00     0.001 A
HETATM   15  C11 UNL     1      34.082  72.281  35.979  1.00  0.00     0.000 A
HETATM   16  C12 UNL     1      34.883  72.439  34.876  1.00  0.00     0.001 A
HETATM   17  C13 UNL     1      36.175  72.006  34.930  1.00  0.00     0.011 A
ENDBRANCH  11  12
ENDBRANCH   1  10
TORSDOF 4
ENDMDL