MODEL 2
REMARK VINA RESULT: -6.863966962      1.094      2.932
REMARK  5 active torsions:
REMARK  status: ('A' for Active; 'I' for Inactive)
REMARK    1  A    between atoms: N1_1  and  N2_4
REMARK    2  A    between atoms: C5_9  and  C6_10
REMARK    3  A    between atoms: C6_10  and  C7_11
REMARK    4  A    between atoms: C7_11  and  C8_12
REMARK    5  A    between atoms: C8_12  and  C9_13
ROOT
HETATM    1  N2  UNL     1      38.376  71.774  34.457  1.00  0.00    -0.278 N
HETATM    2  C1  UNL     1      37.279  72.255  33.820  1.00  0.00     0.115 A
HETATM    3  C2  UNL     1      36.957  73.585  33.853  1.00  0.00     0.019 A
HETATM    4  C3  UNL     1      37.789  74.422  34.559  1.00  0.00     0.003 A
HETATM    5  C4  UNL     1      38.891  73.902  35.194  1.00  0.00     0.027 A
HETATM    6  C5  UNL     1      39.208  72.533  35.152  1.00  0.00     0.033 A
ENDROOT
BRANCH   6   7
HETATM    7  C6  UNL     1      40.359  72.067  35.925  1.00  0.00     0.059 C
BRANCH   7   8
HETATM    8  C7  UNL     1      40.275  72.049  37.380  1.00  0.00     0.011 C
BRANCH   8   9
HETATM    9  C8  UNL     1      39.428  71.226  38.217  1.00  0.00     0.039 C
BRANCH   9  10
HETATM   10  C9  UNL     1      37.987  71.159  37.979  1.00  0.00    -0.058 A
HETATM   11  C10 UNL     1      37.335  70.019  37.614  1.00  0.00     0.007 A
HETATM   12  C11 UNL     1      35.969  69.972  37.403  1.00  0.00     0.001 A
HETATM   13  C12 UNL     1      35.193  71.103  37.556  1.00  0.00     0.000 A
HETATM   14  C13 UNL     1      35.813  72.274  37.923  1.00  0.00     0.001 A
HETATM   15  C14 UNL     1      37.168  72.292  38.127  1.00  0.00     0.007 A
ENDBRANCH   9  10
ENDBRANCH   8   9
ENDBRANCH   7   8
ENDBRANCH   6   7
BRANCH   1  16
HETATM   16  N1  UNL     1      38.649  70.418  34.287  1.00  0.00    -0.339 N
ATOM     17  H12 UNL     1      38.388  69.951  33.418  1.00  0.00     0.177 HD
ATOM     18  H11 UNL     1      39.061  69.933  35.085  1.00  0.00     0.177 HD
ENDBRANCH   1  16
TORSDOF 5
ENDMDL