MODEL 3
REMARK VINA RESULT: -6.513504491      2.222      3.657
REMARK  4 active torsions:
REMARK  status: ('A' for Active; 'I' for Inactive)
REMARK    1  A    between atoms: C3_3  and  C4_4
REMARK    2  A    between atoms: C4_4  and  C5_5
REMARK    3  A    between atoms: C5_5  and  N1_6
REMARK    4  A    between atoms: C8_11  and  C9_12
ROOT
HETATM    1  C1  UNL     1      35.979  73.896  39.355  1.00  0.00     0.012 C
HETATM    2  C2  UNL     1      36.614  74.261  38.398  1.00  0.00    -0.117 C
HETATM    3  C3  UNL     1      37.397  74.717  37.234  1.00  0.00     0.094 C
ENDROOT
BRANCH   3   4
HETATM    4  C4  UNL     1      38.789  74.130  37.248  1.00  0.00     0.032 C
BRANCH   4   5
HETATM    5  C5  UNL     1      39.284  74.155  35.805  1.00  0.00     0.131 C
BRANCH   5   6
HETATM    6  N1  UNL     1      39.434  72.827  35.244  1.00  0.00    -0.341 N
HETATM    7  C6  UNL     1      40.661  72.305  34.891  1.00  0.00     0.109 A
HETATM    8  C7  UNL     1      40.512  71.053  34.384  1.00  0.00     0.107 A
HETATM    9  N2  UNL     1      39.216  70.794  34.417  1.00  0.00    -0.350 N
HETATM   10  C8  UNL     1      38.546  71.875  34.942  1.00  0.00     0.117 A
ATOM     11  H2  UNL     1      38.780  69.928  34.103  1.00  0.00     0.166 HD
BRANCH  10  12
HETATM   12  C9  UNL     1      37.097  71.869  35.161  1.00  0.00     0.008 A
HETATM   13  C10 UNL     1      36.138  72.460  34.405  1.00  0.00     0.015 A
HETATM   14  C11 UNL     1      34.772  72.450  34.718  1.00  0.00     0.001 A
HETATM   15  C12 UNL     1      34.353  71.817  35.843  1.00  0.00     0.000 A
HETATM   16  C13 UNL     1      35.279  71.203  36.641  1.00  0.00     0.001 A
HETATM   17  C14 UNL     1      36.612  71.229  36.310  1.00  0.00     0.015 A
ENDBRANCH  10  12
ENDBRANCH   5   6
ENDBRANCH   4   5
ENDBRANCH   3   4
TORSDOF 4
ENDMDL