MODEL 1
REMARK VINA RESULT: -6.452500839      0.000      0.000
REMARK  4 active torsions:
REMARK  status: ('A' for Active; 'I' for Inactive)
REMARK    1  A    between atoms: C3_3  and  C4_4
REMARK    2  A    between atoms: C4_4  and  C5_5
REMARK    3  A    between atoms: C5_5  and  C6_6
REMARK    4  A    between atoms: C6_6  and  N1_7
ROOT
HETATM    1  C1  UNL     1      35.586  72.736  33.888  1.00  0.00     0.012 C
HETATM    2  C2  UNL     1      34.928  72.449  34.855  1.00  0.00    -0.117 C
HETATM    3  C3  UNL     1      34.130  72.112  36.062  1.00  0.00     0.093 C
ENDROOT
BRANCH   3   4
HETATM    4  C4  UNL     1      35.108  72.028  37.200  1.00  0.00     0.014 C
BRANCH   4   5
HETATM    5  C5  UNL     1      35.605  70.649  37.497  1.00  0.00     0.021 C
BRANCH   5   6
HETATM    6  C6  UNL     1      37.088  70.673  37.680  1.00  0.00     0.130 C
BRANCH   6   7
HETATM    7  N1  UNL     1      37.801  70.776  36.425  1.00  0.00    -0.341 N
HETATM    8  C7  UNL     1      37.995  69.861  35.472  1.00  0.00     0.183 A
HETATM    9  N2  UNL     1      38.713  70.356  34.461  1.00  0.00    -0.350 N
HETATM   10  C8  UNL     1      38.994  71.634  34.773  1.00  0.00     0.060 A
ATOM     11  H2  UNL     1      38.995  69.861  33.615  1.00  0.00     0.166 HD
HETATM   12  C9  UNL     1      39.698  72.647  34.129  1.00  0.00     0.032 A
HETATM   13  C13 UNL     1      38.420  71.885  36.000  1.00  0.00     0.062 A
HETATM   14  C10 UNL     1      39.851  73.907  34.664  1.00  0.00     0.002 A
HETATM   15  C11 UNL     1      39.276  74.154  35.889  1.00  0.00     0.002 A
HETATM   16  C12 UNL     1      38.574  73.163  36.545  1.00  0.00     0.032 A
ENDBRANCH   6   7
ENDBRANCH   5   6
ENDBRANCH   4   5
ENDBRANCH   3   4
TORSDOF 4
ENDMDL