MODEL 3
REMARK VINA RESULT: -6.453253844      2.382      3.939
REMARK  4 active torsions:
REMARK  status: ('A' for Active; 'I' for Inactive)
REMARK    1  A    between atoms: C2_2  and  C3_3
REMARK    2  A    between atoms: C3_3  and  C4_4
REMARK    3  A    between atoms: C4_4  and  C5_5
REMARK    4  A    between atoms: C4_4  and  N1_11
ROOT
HETATM    1  C4  UNL     1      37.449  73.606  34.802  1.00  0.00     0.126 C
ENDROOT
BRANCH   1   2
HETATM    2  C3  UNL     1      36.864  73.943  33.458  1.00  0.00     0.056 C
BRANCH   2   3
HETATM    3  C2  UNL     1      36.911  75.364  33.122  1.00  0.00    -0.035 C
HETATM    4  C1  UNL     1      35.992  75.901  32.336  1.00  0.00     0.007 C
ENDBRANCH   2   3
ENDBRANCH   1   2
BRANCH   1   5
HETATM    5  C5  UNL     1      36.488  73.005  35.728  1.00  0.00    -0.035 A
HETATM    6  C6  UNL     1      36.720  72.857  37.087  1.00  0.00     0.009 A
HETATM    7  C7  UNL     1      35.763  72.279  37.902  1.00  0.00     0.001 A
HETATM    8  C8  UNL     1      34.563  71.836  37.390  1.00  0.00     0.000 A
HETATM    9  C9  UNL     1      34.323  71.976  36.051  1.00  0.00     0.001 A
HETATM   10  C10 UNL     1      35.278  72.554  35.236  1.00  0.00     0.009 A
ENDBRANCH   1   5
BRANCH   1  11
HETATM   11  N1  UNL     1      38.598  72.721  34.559  1.00  0.00    -0.342 N
HETATM   12  C11 UNL     1      39.882  73.090  34.393  1.00  0.00     0.109 A
HETATM   13  C12 UNL     1      40.671  71.973  34.187  1.00  0.00     0.106 A
HETATM   14  N2  UNL     1      39.817  70.935  34.235  1.00  0.00    -0.361 N
HETATM   15  C13 UNL     1      38.577  71.380  34.458  1.00  0.00     0.183 A
ATOM     16  H2  UNL     1      40.077  69.956  34.119  1.00  0.00     0.166 HD
ENDBRANCH   1  11
TORSDOF 4
ENDMDL