MODEL 2
REMARK VINA RESULT: -6.452363872      0.045      1.174
REMARK  5 active torsions:
REMARK  status: ('A' for Active; 'I' for Inactive)
REMARK    1  A    between atoms: N1_1  and  C1_5
REMARK    2  A    between atoms: C1_5  and  C2_6
REMARK    3  A    between atoms: C2_6  and  C3_7
REMARK    4  A    between atoms: N2_12  and  C8_13
REMARK    5  A    between atoms: C8_13  and  C9_14
ROOT
HETATM    1  C3  UNL     1      40.226  72.819  36.318  1.00  0.00     0.013 A
HETATM    2  C4  UNL     1      41.230  72.077  36.976  1.00  0.00     0.025 A
HETATM    3  C5  UNL     1      41.240  71.961  38.341  1.00  0.00     0.003 A
HETATM    4  C6  UNL     1      40.225  72.606  39.015  1.00  0.00     0.017 A
HETATM    5  C7  UNL     1      39.263  73.320  38.337  1.00  0.00     0.091 A
HETATM    6  N2  UNL     1      39.260  73.430  36.981  1.00  0.00    -0.356 N
ENDROOT
BRANCH   6   7
HETATM    7  C8  UNL     1      38.248  74.232  36.341  1.00  0.00     0.166 C
BRANCH   7   8
HETATM    8  C9  UNL     1      37.004  73.521  35.999  1.00  0.00    -0.040 A
HETATM    9  C10 UNL     1      36.139  73.085  37.015  1.00  0.00     0.009 A
HETATM   10  C11 UNL     1      34.983  72.400  36.706  1.00  0.00     0.001 A
HETATM   11  C12 UNL     1      34.629  72.115  35.398  1.00  0.00     0.000 A
HETATM   12  C13 UNL     1      35.456  72.530  34.407  1.00  0.00     0.001 A
HETATM   13  C14 UNL     1      36.624  73.222  34.726  1.00  0.00     0.009 A
ENDBRANCH   7   8
ENDBRANCH   6   7
BRANCH   1  14
HETATM   14  C2  UNL     1      40.308  72.799  34.858  1.00  0.00     0.084 C
BRANCH  14  15
HETATM   15  C1  UNL     1      40.478  71.347  34.432  1.00  0.00     0.235 C
BRANCH  15  16
HETATM   16  N1  UNL     1      39.186  70.721  34.326  1.00  0.00    -0.079 N
ATOM     17  H13 UNL     1      38.599  70.910  35.139  1.00  0.00     0.274 HD
ATOM     18  H12 UNL     1      38.601  71.163  33.617  1.00  0.00     0.274 HD
ATOM     19  H11 UNL     1      39.303  69.722  34.160  1.00  0.00     0.274 HD
ENDBRANCH  15  16
ENDBRANCH  14  15
ENDBRANCH   1  14
TORSDOF 5
ENDMDL