MODEL 4
REMARK VINA RESULT: -5.800408242      1.351      2.279
REMARK  4 active torsions:
REMARK  status: ('A' for Active; 'I' for Inactive)
REMARK    1  A    between atoms: N1_1  and  N2_4
REMARK    2  A    between atoms: C1_6  and  N3_7
REMARK    3  A    between atoms: N3_7  and  O1_9
REMARK    4  A    between atoms: O1_9  and  C2_10
ROOT
HETATM    1  N3  UNL     1     -15.174   4.352  22.221  1.00  0.00    -0.261 N
ATOM      2  H3  UNL     1     -14.384   4.570  21.614  1.00  0.00     0.195 HD
ENDROOT
BRANCH   1   3
HETATM    3  C1  UNL     1     -16.072   3.323  21.870  1.00  0.00     0.220 C
HETATM    4  N2  UNL     1     -17.058   3.046  22.631  1.00  0.00    -0.301 N
ATOM      5  H2  UNL     1     -17.202   3.566  23.496  1.00  0.00     0.187 HD
BRANCH   4   6
HETATM    6  N1  UNL     1     -17.937   2.027  22.271  1.00  0.00    -0.344 N
ATOM      7  H12 UNL     1     -17.800   1.541  21.385  1.00  0.00     0.176 HD
ATOM      8  H11 UNL     1     -18.703   1.780  22.898  1.00  0.00     0.176 HD
ENDBRANCH   4   6
ENDBRANCH   1   3
BRANCH   1   9
HETATM    9  O1  UNL     1     -15.365   5.050  23.364  1.00  0.00    -0.274 OA
BRANCH   9  10
HETATM   10  C2  UNL     1     -14.238   5.768  23.742  1.00  0.00     0.152 C
HETATM   11  C3  UNL     1     -14.318   5.993  25.227  1.00  0.00     0.034 C
HETATM   12  C4  UNL     1     -14.213   4.728  26.033  1.00  0.00     0.002 C
HETATM   13  C5  UNL     1     -13.370   3.685  25.287  1.00  0.00     0.000 C
HETATM   14  C6  UNL     1     -12.308   4.502  24.558  1.00  0.00     0.002 C
HETATM   15  C7  UNL     1     -13.002   5.024  23.314  1.00  0.00     0.034 C
ENDBRANCH   9  10
ENDBRANCH   1   9
TORSDOF 4
ENDMDL