MODEL 4
REMARK VINA RESULT: -5.140972049      1.208      1.570
REMARK  5 active torsions:
REMARK  status: ('A' for Active; 'I' for Inactive)
REMARK    1  A    between atoms: N1_1  and  C1_5
REMARK    2  A    between atoms: C1_5  and  C2_6
REMARK    3  A    between atoms: C2_6  and  C3_7
REMARK    4  A    between atoms: C3_7  and  N2_8
REMARK    5  A    between atoms: C7_12  and  N3_13
ROOT
HETATM    1  N2  UNL     1     -14.802   4.465  24.051  1.00  0.00     0.090 N
HETATM    2  C4  UNL     1     -14.568   5.808  24.618  1.00  0.00     0.272 C
HETATM    3  C5  UNL     1     -13.582   6.603  23.854  1.00  0.00     0.032 C
HETATM    4  C6  UNL     1     -12.265   5.900  23.638  1.00  0.00     0.036 C
HETATM    5  C7  UNL     1     -12.458   4.454  23.254  1.00  0.00     0.211 C
HETATM    6  C8  UNL     1     -13.484   3.856  24.169  1.00  0.00     0.305 C
ENDROOT
BRANCH   1   7
HETATM    7  C3  UNL     1     -15.245   4.642  22.715  1.00  0.00     0.274 C
BRANCH   7   8
HETATM    8  C2  UNL     1     -16.516   4.014  22.305  1.00  0.00     0.057 C
BRANCH   8   9
HETATM    9  C1  UNL     1     -16.528   2.610  21.837  1.00  0.00     0.231 C
BRANCH   9  10
HETATM   10  N1  UNL     1     -17.828   2.047  22.274  1.00  0.00    -0.079 N
ATOM     11  H13 UNL     1     -18.287   2.598  22.999  1.00  0.00     0.274 HD
ATOM     12  H12 UNL     1     -18.564   2.130  21.573  1.00  0.00     0.274 HD
ATOM     13  H11 UNL     1     -17.636   1.085  22.553  1.00  0.00     0.274 HD
ENDBRANCH   9  10
ENDBRANCH   8   9
ENDBRANCH   7   8
ENDBRANCH   1   7
BRANCH   5  14
HETATM   14  N3  UNL     1     -11.200   3.737  23.530  1.00  0.00    -0.073 N
ATOM     15  H33 UNL     1     -10.375   4.272  23.259  1.00  0.00     0.274 HD
ATOM     16  H32 UNL     1     -10.997   3.667  24.526  1.00  0.00     0.274 HD
ATOM     17  H31 UNL     1     -11.248   2.827  23.071  1.00  0.00     0.274 HD
ENDBRANCH   5  14
TORSDOF 5
ENDMDL