MODEL 1
REMARK VINA RESULT: -5.594681382      0.000      0.000
REMARK  3 active torsions:
REMARK  status: ('A' for Active; 'I' for Inactive)
REMARK    1  A    between atoms: C2_2  and  C3_3
REMARK    2  A    between atoms: C3_3  and  C4_4
REMARK    3  A    between atoms: C9_12  and  O1_13
ROOT
HETATM    1  C4  UNL     1     -15.098   4.636  22.939  1.00  0.00     0.226 C
HETATM    2  N1  UNL     1     -16.435   4.130  23.305  1.00  0.00    -0.060 N
ATOM      3  H11 UNL     1     -17.288   4.629  23.055  1.00  0.00     0.278 HD
ATOM      4  H12 UNL     1     -16.766   4.132  24.270  1.00  0.00     0.278 HD
HETATM    5  C5  UNL     1     -16.031   2.897  22.627  1.00  0.00     0.222 C
HETATM    6  C6  UNL     1     -16.296   3.022  21.162  1.00  0.00     0.036 C
HETATM    7  C7  UNL     1     -14.986   2.709  20.501  1.00  0.00     0.005 C
HETATM    8  C8  UNL     1     -13.894   2.932  21.507  1.00  0.00     0.042 C
HETATM    9  C9  UNL     1     -14.553   3.282  22.827  1.00  0.00     0.114 C
ENDROOT
BRANCH   1  10
HETATM   10  C3  UNL     1     -14.635   5.613  23.944  1.00  0.00     0.062 C
BRANCH  10  11
HETATM   11  C2  UNL     1     -13.352   6.292  23.670  1.00  0.00    -0.035 C
HETATM   12  C1  UNL     1     -12.170   5.780  23.963  1.00  0.00     0.007 C
ENDBRANCH  10  11
ENDBRANCH   1  10
BRANCH   9  13
HETATM   13  O1  UNL     1     -13.975   2.637  23.877  1.00  0.00    -0.386 OA
ATOM     14  H1  UNL     1     -13.487   3.093  24.551  1.00  0.00     0.210 HD
ENDBRANCH   9  13
TORSDOF 3
ENDMDL