MODEL 2
REMARK VINA RESULT: -5.478671655      1.615      2.175
REMARK  5 active torsions:
REMARK  status: ('A' for Active; 'I' for Inactive)
REMARK    1  A    between atoms: N1_1  and  C1_5
REMARK    2  A    between atoms: C1_5  and  C2_6
REMARK    3  A    between atoms: C2_6  and  C3_7
REMARK    4  A    between atoms: C3_7  and  N2_8
REMARK    5  A    between atoms: C8_13  and  N3_14
ROOT
HETATM    1  N2  UNL     1     -14.033   4.797  24.052  1.00  0.00    -0.366 N
HETATM    2  C4  UNL     1     -13.835   6.219  24.077  1.00  0.00     0.124 C
HETATM    3  C5  UNL     1     -14.709   6.913  25.079  1.00  0.00     0.020 C
HETATM    4  C6  UNL     1     -14.883   6.197  26.380  1.00  0.00     0.005 C
HETATM    5  C7  UNL     1     -14.952   4.697  26.286  1.00  0.00     0.054 C
HETATM    6  C8  UNL     1     -13.837   4.247  25.365  1.00  0.00     0.283 C
ENDROOT
BRANCH   1   7
HETATM    7  C3  UNL     1     -15.116   4.313  23.296  1.00  0.00     0.062 C
BRANCH   7   8
HETATM    8  C2  UNL     1     -14.585   3.662  22.021  1.00  0.00     0.071 C
BRANCH   8   9
HETATM    9  C1  UNL     1     -15.359   2.381  21.753  1.00  0.00     0.234 C
BRANCH   9  10
HETATM   10  N1  UNL     1     -14.932   1.318  22.608  1.00  0.00    -0.079 N
ATOM     11  H13 UNL     1     -14.005   0.980  22.348  1.00  0.00     0.274 HD
ATOM     12  H12 UNL     1     -14.720   1.656  23.546  1.00  0.00     0.274 HD
ATOM     13  H11 UNL     1     -15.611   0.558  22.631  1.00  0.00     0.274 HD
ENDBRANCH   9  10
ENDBRANCH   8   9
ENDBRANCH   7   8
ENDBRANCH   1   7
BRANCH   6  14
HETATM   14  N3  UNL     1     -13.515   2.868  25.425  1.00  0.00    -0.058 N
ATOM     15  H33 UNL     1     -14.182   2.334  24.867  1.00  0.00     0.276 HD
ATOM     16  H32 UNL     1     -12.656   2.692  24.906  1.00  0.00     0.276 HD
ATOM     17  H31 UNL     1     -13.443   2.462  26.359  1.00  0.00     0.276 HD
ENDBRANCH   6  14
TORSDOF 5
ENDMDL