MODEL 3
REMARK VINA RESULT: -5.403856214      2.007      3.341
REMARK  4 active torsions:
REMARK  status: ('A' for Active; 'I' for Inactive)
REMARK    1  A    between atoms: C3_3  and  C4_4
REMARK    2  A    between atoms: C4_4  and  C5_5
REMARK    3  A    between atoms: C5_5  and  N1_6
REMARK    4  A    between atoms: C8_9  and  N2_10
ROOT
HETATM    1  C1  UNL     1      -9.274   3.575  21.524  1.00  0.00     0.096 C
HETATM    2  C2  UNL     1     -10.285   3.838  22.155  1.00  0.00    -0.188 C
HETATM    3  C3  UNL     1     -11.488   4.180  22.911  1.00  0.00     0.081 C
ENDROOT
BRANCH   3   4
HETATM    4  C4  UNL     1     -12.679   4.429  21.981  1.00  0.00     0.041 C
BRANCH   4   5
HETATM    5  C5  UNL     1     -13.884   4.613  22.817  1.00  0.00     0.273 C
BRANCH   5   6
HETATM    6  N1  UNL     1     -14.817   3.531  22.816  1.00  0.00     0.090 N
HETATM    7  C6  UNL     1     -14.570   2.464  21.921  1.00  0.00     0.274 C
HETATM    8  C7  UNL     1     -15.735   2.256  21.017  1.00  0.00     0.064 C
HETATM    9  C8  UNL     1     -16.835   3.068  21.651  1.00  0.00     0.213 C
HETATM   10  C9  UNL     1     -16.186   3.950  22.689  1.00  0.00     0.305 C
BRANCH   9  11
HETATM   11  N2  UNL     1     -17.795   2.155  22.231  1.00  0.00    -0.073 N
ATOM     12  H23 UNL     1     -17.911   2.292  23.235  1.00  0.00     0.274 HD
ATOM     13  H22 UNL     1     -18.754   2.362  21.952  1.00  0.00     0.274 HD
ATOM     14  H21 UNL     1     -17.513   1.203  21.994  1.00  0.00     0.274 HD
ENDBRANCH   9  11
ENDBRANCH   5   6
ENDBRANCH   4   5
ENDBRANCH   3   4
TORSDOF 4
ENDMDL