MODEL 4
REMARK VINA RESULT: -5.177616920      1.986      4.535
REMARK  4 active torsions:
REMARK  status: ('A' for Active; 'I' for Inactive)
REMARK    1  A    between atoms: C2_2  and  C3_3
REMARK    2  A    between atoms: C3_3  and  C4_4
REMARK    3  A    between atoms: C4_4  and  N1_5
REMARK    4  A    between atoms: C4_4  and  N2_9
ROOT
HETATM    1  N2  UNL     1     -13.595   4.072  24.354  1.00  0.00    -0.363 N
HETATM    2  C5  UNL     1     -14.798   4.723  24.677  1.00  0.00     0.087 C
HETATM    3  C6  UNL     1     -14.852   4.920  26.190  1.00  0.00     0.276 C
HETATM    4  N3  UNL     1     -14.748   3.616  26.811  1.00  0.00    -0.069 N
ATOM      5  H31 UNL     1     -15.583   3.059  26.629  1.00  0.00     0.277 HD
ATOM      6  H32 UNL     1     -14.815   3.690  27.826  1.00  0.00     0.277 HD
HETATM    7  C7  UNL     1     -13.572   2.907  26.430  1.00  0.00     0.252 C
HETATM    8  C8  UNL     1     -12.749   3.670  25.383  1.00  0.00     0.151 C
ENDROOT
BRANCH   1   9
HETATM    9  C4  UNL     1     -13.047   4.336  23.074  1.00  0.00     0.286 C
BRANCH   9  10
HETATM   10  C3  UNL     1     -13.975   4.230  21.930  1.00  0.00     0.080 C
BRANCH  10  11
HETATM   11  C2  UNL     1     -14.090   2.796  21.538  1.00  0.00    -0.033 C
HETATM   12  C1  UNL     1     -15.140   2.312  20.893  1.00  0.00     0.007 C
ENDBRANCH  10  11
ENDBRANCH   9  10
BRANCH   9  13
HETATM   13  N1  UNL     1     -11.908   3.468  22.830  1.00  0.00    -0.058 N
ATOM     14  H13 UNL     1     -12.084   2.504  23.115  1.00  0.00     0.276 HD
ATOM     15  H12 UNL     1     -11.755   3.294  21.837  1.00  0.00     0.276 HD
ATOM     16  H11 UNL     1     -11.089   3.867  23.288  1.00  0.00     0.276 HD
ENDBRANCH   9  13
ENDBRANCH   1   9
TORSDOF 4
ENDMDL