MODEL 3
REMARK VINA RESULT: -5.100750522      1.100      1.316
REMARK  5 active torsions:
REMARK  status: ('A' for Active; 'I' for Inactive)
REMARK    1  A    between atoms: N1_1  and  C1_5
REMARK    2  A    between atoms: C1_5  and  C2_6
REMARK    3  A    between atoms: C2_6  and  C3_7
REMARK    4  A    between atoms: C4_8  and  C5_9
REMARK    5  A    between atoms: C5_9  and  N2_10
ROOT
HETATM    1  C3  UNL     1     -14.591   2.908  21.311  1.00  0.00    -0.103 C
HETATM    2  C4  UNL     1     -13.549   3.365  21.719  1.00  0.00    -0.076 C
ENDROOT
BRANCH   1   3
HETATM    3  C2  UNL     1     -15.861   2.353  20.845  1.00  0.00     0.121 C
BRANCH   3   4
HETATM    4  C1  UNL     1     -16.994   3.031  21.577  1.00  0.00     0.241 C
BRANCH   4   5
HETATM    5  N1  UNL     1     -17.783   2.047  22.250  1.00  0.00    -0.079 N
ATOM      6  H13 UNL     1     -18.227   1.398  21.600  1.00  0.00     0.274 HD
ATOM      7  H12 UNL     1     -17.209   1.375  22.759  1.00  0.00     0.274 HD
ATOM      8  H11 UNL     1     -18.461   2.510  22.856  1.00  0.00     0.274 HD
ENDBRANCH   4   5
ENDBRANCH   3   4
ENDBRANCH   1   3
BRANCH   2   9
HETATM    9  C5  UNL     1     -12.289   3.918  22.244  1.00  0.00     0.365 C
BRANCH   9  10
HETATM   10  N2  UNL     1     -12.567   4.644  23.443  1.00  0.00     0.099 N
HETATM   11  C6  UNL     1     -13.367   3.897  24.387  1.00  0.00     0.273 C
HETATM   12  C7  UNL     1     -13.612   4.953  25.457  1.00  0.00     0.032 C
HETATM   13  C8  UNL     1     -13.793   6.198  24.622  1.00  0.00     0.032 C
HETATM   14  C9  UNL     1     -13.192   5.909  23.259  1.00  0.00     0.273 C
ENDBRANCH   9  10
ENDBRANCH   2   9
TORSDOF 5
ENDMDL