MODEL 1
REMARK VINA RESULT: -6.469641494      0.000      0.000
REMARK  5 active torsions:
REMARK  status: ('A' for Active; 'I' for Inactive)
REMARK    1  A    between atoms: N1_2  and  C2_3
REMARK    2  A    between atoms: N1_2  and  C7_8
REMARK    3  A    between atoms: C7_8  and  N2_9
REMARK    4  A    between atoms: C7_8  and  C8_13
REMARK    5  A    between atoms: C8_13  and  O1_17
ROOT
HETATM    1  C7  UNL     1     -15.345   2.515  21.802  1.00  0.00     0.354 C
ENDROOT
BRANCH   1   2
HETATM    2  N1  UNL     1     -14.546   3.519  22.349  1.00  0.00    -0.380 N
HETATM    3  C1  UNL     1     -13.547   4.140  21.593  1.00  0.00     0.146 C
BRANCH   2   4
HETATM    4  C2  UNL     1     -14.700   3.981  23.651  1.00  0.00     0.081 C
HETATM    5  C3  UNL     1     -14.895   5.454  23.857  1.00  0.00     0.025 C
HETATM    6  C4  UNL     1     -14.777   5.588  25.364  1.00  0.00     0.002 C
HETATM    7  C5  UNL     1     -14.024   4.372  25.845  1.00  0.00     0.002 C
HETATM    8  C6  UNL     1     -13.548   3.678  24.586  1.00  0.00     0.025 C
ENDBRANCH   2   4
ENDBRANCH   1   2
BRANCH   1   9
HETATM    9  N2  UNL     1     -15.367   1.291  22.618  1.00  0.00    -0.051 N
ATOM     10  H23 UNL     1     -14.990   1.467  23.549  1.00  0.00     0.277 HD
ATOM     11  H22 UNL     1     -16.322   1.038  22.870  1.00  0.00     0.277 HD
ATOM     12  H21 UNL     1     -14.887   0.508  22.172  1.00  0.00     0.277 HD
ENDBRANCH   1   9
BRANCH   1  13
HETATM   13  C8  UNL     1     -16.759   2.989  21.748  1.00  0.00     0.160 C
HETATM   14  N3  UNL     1     -17.651   2.207  22.243  1.00  0.00    -0.380 N
ATOM     15  H32 UNL     1     -17.358   1.316  22.644  1.00  0.00     0.158 HD
ATOM     16  H31 UNL     1     -18.617   2.532  22.206  1.00  0.00     0.158 HD
BRANCH  13  17
HETATM   17  O1  UNL     1     -17.155   4.196  21.206  1.00  0.00    -0.347 OA
ATOM     18  H1  UNL     1     -17.858   4.294  20.574  1.00  0.00     0.219 HD
ENDBRANCH  13  17
ENDBRANCH   1  13
TORSDOF 5
ENDMDL