MODEL 4
REMARK VINA RESULT: -5.134896762      1.372      3.102
REMARK  2 active torsions:
REMARK  status: ('A' for Active; 'I' for Inactive)
REMARK    1  A    between atoms: C2_2  and  C3_4
REMARK    2  A    between atoms: C3_4  and  C4_5
ROOT
HETATM    1  C3  UNL     1     -14.130   4.347  23.958  1.00  0.00     0.124 C
HETATM    2  C7  UNL     1     -12.633   4.606  23.953  1.00  0.00     0.049 C
HETATM    3  C8  UNL     1     -12.579   6.107  23.746  1.00  0.00     0.030 C
HETATM    4  C9  UNL     1     -13.911   6.492  24.405  1.00  0.00     0.169 C
HETATM    5  O2  UNL     1     -14.750   5.575  23.773  1.00  0.00    -0.372 OA
ENDROOT
BRANCH   1   6
HETATM    6  C2  UNL     1     -14.527   3.801  25.273  1.00  0.00     0.157 C
HETATM    7  C1  UNL     1     -13.751   2.710  25.883  1.00  0.00     0.094 C
HETATM    8  O1  UNL     1     -15.494   4.254  25.846  1.00  0.00    -0.295 OA
ENDBRANCH   1   6
BRANCH   1   9
HETATM    9  C4  UNL     1     -14.526   3.385  22.862  1.00  0.00     0.028 A
HETATM   10  C5  UNL     1     -14.434   3.765  21.435  1.00  0.00     0.008 A
HETATM   11  C6  UNL     1     -15.760   3.802  22.068  1.00  0.00     0.008 A
ENDBRANCH   1   9
TORSDOF 2
ENDMDL