MODEL 5
REMARK VINA RESULT: -5.370089018      1.097      3.189
REMARK  2 active torsions:
REMARK  status: ('A' for Active; 'I' for Inactive)
REMARK    1  A    between atoms: O1_2  and  C2_3
REMARK    2  A    between atoms: C7_8  and  C8_9
ROOT
HETATM    1  C2  UNL     1     -14.942   3.815  22.883  1.00  0.00     0.132 C
HETATM    2  C3  UNL     1     -14.263   3.862  21.502  1.00  0.00     0.033 C
HETATM    3  C4  UNL     1     -12.804   3.529  21.603  1.00  0.00     0.002 C
HETATM    4  C5  UNL     1     -12.078   4.224  22.697  1.00  0.00     0.001 C
HETATM    5  C6  UNL     1     -12.829   4.118  24.007  1.00  0.00     0.015 C
HETATM    6  C7  UNL     1     -14.191   4.770  23.726  1.00  0.00     0.084 C
ENDROOT
BRANCH   6   7
HETATM    7  C8  UNL     1     -14.827   5.271  24.932  1.00  0.00     0.129 C
HETATM    8  C9  UNL     1     -15.194   4.263  25.987  1.00  0.00     0.091 C
HETATM    9  O2  UNL     1     -15.093   6.411  25.179  1.00  0.00    -0.298 OA
ENDBRANCH   6   7
BRANCH   1  10
HETATM   10  O1  UNL     1     -16.269   4.067  22.676  1.00  0.00    -0.390 OA
HETATM   11  C1  UNL     1     -16.890   3.141  21.876  1.00  0.00     0.202 C
ENDBRANCH   1  10
TORSDOF 2
ENDMDL