MODEL 4
REMARK VINA RESULT: -5.393396908      2.519      3.367
REMARK  3 active torsions:
REMARK  status: ('A' for Active; 'I' for Inactive)
REMARK    1  A    between atoms: C2_2  and  O2_4
REMARK    2  A    between atoms: O2_4  and  N1_5
REMARK    3  A    between atoms: C3_7  and  C4_8
ROOT
HETATM    1  N1  UNL     1     -15.392   6.995  26.105  1.00  0.00    -0.272 N
ATOM      2  H1  UNL     1     -15.570   7.121  27.102  1.00  0.00     0.193 HD
HETATM    3  C3  UNL     1     -14.948   5.872  25.684  1.00  0.00     0.092 C
ENDROOT
BRANCH   1   4
HETATM    4  O2  UNL     1     -15.634   8.031  25.239  1.00  0.00    -0.201 OA
BRANCH   4   5
HETATM    5  C2  UNL     1     -14.825   9.134  25.120  1.00  0.00     0.277 C
HETATM    6  C1  UNL     1     -13.856   9.195  24.004  1.00  0.00     0.128 C
HETATM    7  O1  UNL     1     -14.912  10.057  25.940  1.00  0.00    -0.264 OA
ENDBRANCH   4   5
ENDBRANCH   1   4
BRANCH   3   8
HETATM    8  C4  UNL     1     -14.689   5.684  24.243  1.00  0.00     0.026 C
HETATM    9  C5  UNL     1     -15.253   4.409  23.707  1.00  0.00     0.010 C
HETATM   10  C6  UNL     1     -14.104   3.453  23.490  1.00  0.00     0.001 C
HETATM   11  C7  UNL     1     -13.042   4.022  24.408  1.00  0.00     0.001 C
HETATM   12  C8  UNL     1     -13.173   5.518  24.093  1.00  0.00     0.010 C
ENDBRANCH   3   8
TORSDOF 3
ENDMDL