MODEL 4
REMARK VINA RESULT: -4.943813444      1.877      2.322
REMARK  2 active torsions:
REMARK  status: ('A' for Active; 'I' for Inactive)
REMARK    1  A    between atoms: C2_2  and  C3_3
REMARK    2  A    between atoms: C5_5  and  C7_7
ROOT
HETATM    1  C3  UNL     1     -14.292   2.677  21.862  1.00  0.00     0.144 C
HETATM    2  C4  UNL     1     -14.684   3.401  23.107  1.00  0.00     0.055 C
HETATM    3  C5  UNL     1     -13.631   4.464  23.236  1.00  0.00     0.040 C
HETATM    4  C6  UNL     1     -14.291   5.759  23.558  1.00  0.00     0.026 C
HETATM    5  C9  UNL     1     -13.059   4.538  21.846  1.00  0.00     0.185 C
HETATM    6  O2  UNL     1     -13.174   3.272  21.338  1.00  0.00    -0.381 OA
ENDROOT
BRANCH   3   7
HETATM    7  C7  UNL     1     -12.662   4.043  24.255  1.00  0.00     0.133 C
HETATM    8  C8  UNL     1     -11.247   4.423  24.310  1.00  0.00     0.091 C
HETATM    9  O1  UNL     1     -13.071   3.305  25.138  1.00  0.00    -0.297 OA
ENDBRANCH   3   7
BRANCH   1  10
HETATM   10  C2  UNL     1     -15.441   2.715  20.918  1.00  0.00    -0.005 C
HETATM   11  C1  UNL     1     -16.655   2.924  21.385  1.00  0.00     0.009 C
ENDBRANCH   1  10
TORSDOF 2
ENDMDL