MODEL 3
REMARK VINA RESULT: -5.477159825      0.697      1.671
REMARK  3 active torsions:
REMARK  status: ('A' for Active; 'I' for Inactive)
REMARK    1  A    between atoms: C2_2  and  C3_3
REMARK    2  A    between atoms: C3_3  and  O2_5
REMARK    3  A    between atoms: O2_5  and  C4_6
ROOT
HETATM    1  C4  UNL     1     -15.007   3.851  23.423  1.00  0.00     0.132 C
HETATM    2  C5  UNL     1     -16.204   4.033  22.554  1.00  0.00     0.032 C
HETATM    3  C6  UNL     1     -16.335   3.068  21.439  1.00  0.00     0.002 C
HETATM    4  C7  UNL     1     -15.073   2.563  20.861  1.00  0.00     0.000 C
HETATM    5  C8  UNL     1     -13.824   3.243  21.291  1.00  0.00     0.002 C
HETATM    6  C9  UNL     1     -13.730   3.622  22.716  1.00  0.00     0.032 C
ENDROOT
BRANCH   1   7
HETATM    7  O2  UNL     1     -14.927   5.015  24.255  1.00  0.00    -0.313 OA
BRANCH   7   8
HETATM    8  C3  UNL     1     -15.058   4.987  25.614  1.00  0.00     0.282 C
HETATM    9  O1  UNL     1     -15.156   3.877  26.182  1.00  0.00    -0.260 OA
BRANCH   8  10
HETATM   10  C2  UNL     1     -15.079   6.241  26.354  1.00  0.00     0.072 C
HETATM   11  C1  UNL     1     -15.356   7.372  25.730  1.00  0.00     0.017 C
ENDBRANCH   8  10
ENDBRANCH   7   8
ENDBRANCH   1   7
TORSDOF 3
ENDMDL