MODEL 3
REMARK VINA RESULT: -5.382899510      1.761      3.023
REMARK  2 active torsions:
REMARK  status: ('A' for Active; 'I' for Inactive)
REMARK    1  A    between atoms: O1_2  and  C2_3
REMARK    2  A    between atoms: C2_3  and  C4_6
ROOT
HETATM    1  C2  UNL     1     -14.650   4.927  24.064  1.00  0.00     0.235 C
HETATM    2  C3  UNL     1     -15.542   4.625  22.930  1.00  0.00     0.092 C
HETATM    3  N1  UNL     1     -16.255   4.400  22.040  1.00  0.00    -0.194 NA
ENDROOT
BRANCH   1   4
HETATM    4  O1  UNL     1     -14.840   3.892  24.988  1.00  0.00    -0.376 OA
HETATM    5  C1  UNL     1     -15.341   4.383  26.174  1.00  0.00     0.203 C
ENDBRANCH   1   4
BRANCH   1   6
HETATM    6  C4  UNL     1     -13.250   4.956  23.526  1.00  0.00    -0.005 C
HETATM    7  C5  UNL     1     -13.252   4.492  22.108  1.00  0.00     0.019 C
HETATM    8  C6  UNL     1     -12.708   6.353  23.704  1.00  0.00     0.012 C
HETATM    9  C7  UNL     1     -11.201   6.192  23.635  1.00  0.00     0.001 C
HETATM   10  C8  UNL     1     -10.939   4.744  24.020  1.00  0.00     0.001 C
HETATM   11  C9  UNL     1     -12.282   4.137  24.331  1.00  0.00     0.012 C
ENDBRANCH   1   6
TORSDOF 2
ENDMDL