MODEL 4
REMARK VINA RESULT: -5.292298813      1.160      3.970
REMARK  2 active torsions:
REMARK  status: ('A' for Active; 'I' for Inactive)
REMARK    1  A    between atoms: C2_2  and  C3_3
REMARK    2  A    between atoms: C6_7  and  C7_8
ROOT
HETATM    1  C3  UNL     1     -14.606   5.336  24.254  1.00  0.00     0.148 C
HETATM    2  C4  UNL     1     -13.108   5.354  24.102  1.00  0.00     0.062 C
HETATM    3  C5  UNL     1     -12.636   4.702  22.827  1.00  0.00     0.173 C
HETATM    4  O1  UNL     1     -13.767   4.426  22.058  1.00  0.00    -0.361 OA
HETATM    5  C6  UNL     1     -14.540   3.532  22.807  1.00  0.00     0.263 C
HETATM    6  O2  UNL     1     -15.180   4.137  23.859  1.00  0.00    -0.352 OA
ENDROOT
BRANCH   5   7
HETATM    7  C7  UNL     1     -15.453   2.714  21.928  1.00  0.00     0.033 C
HETATM    8  C8  UNL     1     -16.872   3.181  21.948  1.00  0.00     0.014 C
HETATM    9  C9  UNL     1     -14.926   2.717  20.512  1.00  0.00     0.014 C
ENDBRANCH   5   7
BRANCH   1  10
HETATM   10  C2  UNL     1     -14.912   5.639  25.679  1.00  0.00    -0.005 C
HETATM   11  C1  UNL     1     -15.271   4.738  26.556  1.00  0.00     0.009 C
ENDBRANCH   1  10
TORSDOF 2
ENDMDL