MODEL 4
REMARK VINA RESULT: -5.223388563      1.415      2.187
REMARK  2 active torsions:
REMARK  status: ('A' for Active; 'I' for Inactive)
REMARK    1  A    between atoms: C3_3  and  C4_4
REMARK    2  A    between atoms: C4_4  and  C5_6
ROOT
HETATM    1  C5  UNL     1     -14.950   4.561  22.466  1.00  0.00     0.195 C
HETATM    2  C6  UNL     1     -16.228   3.756  22.687  1.00  0.00     0.040 C
HETATM    3  C7  UNL     1     -16.680   3.220  21.357  1.00  0.00     0.005 C
HETATM    4  C8  UNL     1     -15.627   2.317  20.775  1.00  0.00     0.026 C
HETATM    5  C9  UNL     1     -14.371   2.483  21.629  1.00  0.00     0.168 C
HETATM    6  O2  UNL     1     -14.029   3.805  21.796  1.00  0.00    -0.378 OA
ENDROOT
BRANCH   1   7
HETATM    7  C4  UNL     1     -14.424   5.106  23.723  1.00  0.00     0.177 C
HETATM    8  O1  UNL     1     -14.917   4.695  24.800  1.00  0.00    -0.290 OA
BRANCH   7   9
HETATM    9  C3  UNL     1     -13.360   6.094  23.734  1.00  0.00     0.048 C
HETATM   10  C2  UNL     1     -12.078   5.822  23.915  1.00  0.00    -0.027 C
HETATM   11  C1  UNL     1     -11.549   4.457  24.135  1.00  0.00     0.036 C
ENDBRANCH   7   9
ENDBRANCH   1   7
TORSDOF 2
ENDMDL