MODEL 4
REMARK VINA RESULT: -4.536857541      1.590      2.133
REMARK  2 active torsions:
REMARK  status: ('A' for Active; 'I' for Inactive)
REMARK    1  A    between atoms: C7_7  and  O1_8
REMARK    2  A    between atoms: C7_7  and  O2_10
ROOT
HETATM    1  C1  UNL     1     -11.888   7.518  23.508  1.00  0.00     0.098 C
HETATM    2  C2  UNL     1     -12.547   6.495  23.616  1.00  0.00    -0.172 C
HETATM    3  C3  UNL     1     -13.280   5.288  23.754  1.00  0.00     0.064 C
HETATM    4  C4  UNL     1     -12.473   4.091  24.270  1.00  0.00     0.034 C
HETATM    5  C5  UNL     1     -14.064   4.854  22.561  1.00  0.00     0.032 C
HETATM    6  C6  UNL     1     -15.169   4.478  23.586  1.00  0.00     0.072 C
HETATM    7  C7  UNL     1     -14.586   5.481  24.546  1.00  0.00     0.180 C
ENDROOT
BRANCH   7   8
HETATM    8  O1  UNL     1     -15.136   6.710  24.579  1.00  0.00    -0.358 OA
HETATM    9  C8  UNL     1     -15.257   7.408  25.716  1.00  0.00     0.205 C
ENDBRANCH   7   8
BRANCH   7  10
HETATM   10  O2  UNL     1     -14.293   5.043  25.835  1.00  0.00    -0.358 OA
HETATM   11  C9  UNL     1     -15.347   4.384  26.440  1.00  0.00     0.205 C
ENDBRANCH   7  10
TORSDOF 2
ENDMDL