MODEL 3
REMARK VINA RESULT: -4.657494171      1.058      1.156
REMARK  2 active torsions:
REMARK  status: ('A' for Active; 'I' for Inactive)
REMARK    1  A    between atoms: O1_2  and  C2_3
REMARK    2  A    between atoms: C7_8  and  O2_9
ROOT
HETATM    1  C2  UNL     1     -14.972   4.109  23.637  1.00  0.00     0.159 C
HETATM    2  C3  UNL     1     -13.559   3.624  23.273  1.00  0.00     0.020 C
HETATM    3  C4  UNL     1     -13.053   4.579  22.237  1.00  0.00     0.007 C
HETATM    4  C5  UNL     1     -12.713   5.894  22.869  1.00  0.00     0.004 C
HETATM    5  C6  UNL     1     -13.760   6.278  23.898  1.00  0.00     0.041 C
HETATM    6  C7  UNL     1     -14.299   5.069  24.578  1.00  0.00     0.087 C
HETATM    7  C9  UNL     1     -13.157   4.051  24.686  1.00  0.00     0.048 C
ENDROOT
BRANCH   1   8
HETATM    8  O1  UNL     1     -15.681   4.650  22.595  1.00  0.00    -0.387 OA
HETATM    9  C1  UNL     1     -16.540   3.671  22.060  1.00  0.00     0.202 C
ENDBRANCH   1   8
BRANCH   6  10
HETATM   10  O2  UNL     1     -14.964   5.194  25.745  1.00  0.00    -0.382 OA
HETATM   11  C8  UNL     1     -15.195   6.472  26.185  1.00  0.00     0.202 C
ENDBRANCH   6  10
TORSDOF 2
ENDMDL