MODEL 3
REMARK VINA RESULT: -7.948078057      2.062      2.319
REMARK  4 active torsions:
REMARK  status: ('A' for Active; 'I' for Inactive)
REMARK    1  A    between atoms: C2_2  and  O2_4
REMARK    2  A    between atoms: O2_4  and  C3_5
REMARK    3  A    between atoms: C3_5  and  C5_7
REMARK       I    between atoms: C5_7  and  N1_9
REMARK    4  A    between atoms: N1_9  and  C6_11
ROOT
HETATM    1  C6  UNL     1      -6.276  23.058   4.418  1.00  0.00     0.098 C
HETATM    2  C7  UNL     1      -5.406  23.365   5.604  1.00  0.00     0.033 C
HETATM    3  C8  UNL     1      -5.638  24.749   6.169  1.00  0.00     0.021 C
HETATM    4  C9  UNL     1      -4.645  24.915   7.280  1.00  0.00     0.146 C
HETATM    5  S1  UNL     1      -4.241  26.642   7.244  1.00  0.00     0.146 S
HETATM    6  O4  UNL     1      -2.783  26.884   7.533  1.00  0.00    -0.228 OA
HETATM    7  O5  UNL     1      -5.144  27.469   8.076  1.00  0.00    -0.228 OA
HETATM    8  C10 UNL     1      -4.562  26.856   5.488  1.00  0.00     0.160 C
HETATM    9  C11 UNL     1      -5.644  25.842   5.226  1.00  0.00     0.127 C
HETATM   10  S2  UNL     1      -5.528  25.409   3.514  1.00  0.00     0.151 S
HETATM   11  O6  UNL     1      -4.255  25.955   2.880  1.00  0.00    -0.227 OA
HETATM   12  O7  UNL     1      -6.655  26.021   2.693  1.00  0.00    -0.227 OA
HETATM   13  C12 UNL     1      -5.564  23.677   3.216  1.00  0.00     0.166 C
ENDROOT
BRANCH   1  14
HETATM   14  N1  UNL     1      -6.272  21.627   4.220  1.00  0.00    -0.353 N
HETATM   15  C5  UNL     1      -7.366  20.903   3.707  1.00  0.00     0.247 C
HETATM   16  O3  UNL     1      -8.414  21.505   3.398  1.00  0.00    -0.271 OA
ATOM     17  H1  UNL     1      -5.427  21.111   4.465  1.00  0.00     0.163 HD
BRANCH  15  18
HETATM   18  C3  UNL     1      -7.298  19.445   3.528  1.00  0.00     0.219 C
HETATM   19  C4  UNL     1      -8.509  18.733   4.088  1.00  0.00     0.050 C
BRANCH  18  20
HETATM   20  O2  UNL     1      -6.160  18.879   4.124  1.00  0.00    -0.307 OA
BRANCH  20  21
HETATM   21  C2  UNL     1      -5.123  18.396   3.329  1.00  0.00     0.255 C
HETATM   22  C1  UNL     1      -4.407  19.272   2.361  1.00  0.00     0.126 C
HETATM   23  O1  UNL     1      -4.818  17.179   3.464  1.00  0.00    -0.266 OA
ENDBRANCH  20  21
ENDBRANCH  18  20
ENDBRANCH  15  18
ENDBRANCH   1  14
TORSDOF 4
ENDMDL