MODEL 3
REMARK VINA RESULT: -7.413600732      1.029      1.993
REMARK  3 active torsions:
REMARK  status: ('A' for Active; 'I' for Inactive)
REMARK    1  A    between atoms: C2_2  and  C3_4
REMARK    2  A    between atoms: C3_4  and  C4_5
REMARK    3  A    between atoms: C4_5  and  N1_8
REMARK       I    between atoms: N1_8  and  C7_10
REMARK       I    between atoms: C7_10  and  N2_12
ROOT
HETATM    1  N1  UNL     1      -6.312  20.497   2.745  1.00  0.00    -0.333 N
ATOM      2  H1  UNL     1      -5.393  20.431   3.183  1.00  0.00     0.165 HD
HETATM    3  C7  UNL     1      -6.358  20.736   1.359  1.00  0.00     0.334 C
HETATM    4  O2  UNL     1      -7.430  20.828   0.745  1.00  0.00    -0.246 OA
HETATM    5  N2  UNL     1      -5.156  20.877   0.631  1.00  0.00    -0.196 N
HETATM    6  C8  UNL     1      -4.932  21.122  -0.771  1.00  0.00     0.153 C
HETATM    7  C9  UNL     1      -6.079  21.769  -1.476  1.00  0.00     0.169 C
HETATM    8  S1  UNL     1      -5.182  22.493  -2.862  1.00  0.00     0.149 S
HETATM    9  O3  UNL     1      -5.135  21.487  -3.979  1.00  0.00    -0.228 OA
HETATM   10  O4  UNL     1      -5.754  23.795  -3.267  1.00  0.00    -0.228 OA
HETATM   11  C10 UNL     1      -3.568  22.665  -2.090  1.00  0.00     0.175 C
HETATM   12  C11 UNL     1      -3.826  22.168  -0.717  1.00  0.00     0.183 C
HETATM   13  O5  UNL     1      -2.746  21.517  -0.134  1.00  0.00    -0.251 OA
HETATM   14  S2  UNL     1      -3.510  20.796   1.209  1.00  0.00     0.368 S
HETATM   15  O6  UNL     1      -3.099  19.369   1.286  1.00  0.00    -0.175 OA
HETATM   16  O7  UNL     1      -3.308  21.562   2.447  1.00  0.00    -0.175 OA
ENDROOT
BRANCH   1  17
HETATM   17  C4  UNL     1      -7.474  20.338   3.595  1.00  0.00     0.034 C
HETATM   18  C5  UNL     1      -8.512  19.451   2.955  1.00  0.00     0.038 C
HETATM   19  C6  UNL     1      -8.137  21.691   3.814  1.00  0.00     0.038 C
BRANCH  17  20
HETATM   20  C3  UNL     1      -7.043  19.797   4.938  1.00  0.00     0.108 C
BRANCH  20  21
HETATM   21  C2  UNL     1      -5.606  20.089   5.202  1.00  0.00     0.125 C
HETATM   22  C1  UNL     1      -5.145  21.279   5.955  1.00  0.00     0.091 C
HETATM   23  O1  UNL     1      -4.725  19.330   4.792  1.00  0.00    -0.298 OA
ENDBRANCH  20  21
ENDBRANCH  17  20
ENDBRANCH   1  17
TORSDOF 3
ENDMDL