MODEL 1
REMARK VINA RESULT: -7.243775637      0.000      0.000
REMARK  5 active torsions:
REMARK  status: ('A' for Active; 'I' for Inactive)
REMARK    1  A    between atoms: C2_2  and  N1_3
REMARK    2  A    between atoms: N1_3  and  C3_4
REMARK    3  A    between atoms: C15_21  and  O5_22
REMARK    4  A    between atoms: O5_22  and  C16_23
REMARK    5  A    between atoms: C16_23  and  O6_25
ROOT
HETATM    1  N1  UNL     1      -6.588  19.161   2.874  1.00  0.00    -0.034 N
HETATM    2  C5  UNL     1      -6.752  19.821   4.178  1.00  0.00     0.275 C
HETATM    3  C6  UNL     1      -5.379  20.311   4.452  1.00  0.00     0.185 C
HETATM    4  O1  UNL     1      -4.563  19.803   3.482  1.00  0.00    -0.345 OA
HETATM    5  C7  UNL     1      -5.370  19.673   2.336  1.00  0.00     0.382 C
HETATM    6  C8  UNL     1      -5.475  21.076   1.770  1.00  0.00     0.320 C
HETATM    7  O2  UNL     1      -4.226  21.474   1.412  1.00  0.00    -0.354 OA
HETATM    8  C9  UNL     1      -3.524  22.284   2.252  1.00  0.00     0.220 C
HETATM    9  C10 UNL     1      -4.467  23.302   2.823  1.00  0.00     0.265 A
HETATM   10  C11 UNL     1      -4.908  24.335   1.776  1.00  0.00     0.324 A
HETATM   11  N2  UNL     1      -4.182  24.642   3.021  1.00  0.00     0.112 N
HETATM   12  C12 UNL     1      -4.940  25.391   3.940  1.00  0.00     0.300 C
HETATM   13  C13 UNL     1      -6.142  24.700   4.500  1.00  0.00     0.202 C
HETATM   14  O3  UNL     1      -6.561  23.606   3.826  1.00  0.00    -0.349 OA
HETATM   15  C14 UNL     1      -5.603  22.646   3.508  1.00  0.00     0.236 C
HETATM   16  O4  UNL     1      -6.244  21.883   2.524  1.00  0.00    -0.315 OA
HETATM   17  C15 UNL     1      -5.254  21.796   4.685  1.00  0.00     0.220 C
ENDROOT
BRANCH  17  18
HETATM   18  O5  UNL     1      -3.989  22.006   5.187  1.00  0.00    -0.348 OA
BRANCH  18  19
HETATM   19  C16 UNL     1      -3.892  22.687   6.359  1.00  0.00     0.253 C
HETATM   20  C17 UNL     1      -2.563  23.224   6.740  1.00  0.00     0.070 C
BRANCH  19  21
HETATM   21  O6  UNL     1      -4.250  21.757   7.371  1.00  0.00    -0.372 OA
ATOM     22  H6  UNL     1      -3.448  21.297   7.589  1.00  0.00     0.212 HD
ENDBRANCH  19  21
ENDBRANCH  18  19
ENDBRANCH  17  18
BRANCH   1  23
HETATM   23  C2  UNL     1      -6.379  17.756   3.157  1.00  0.00     0.236 C
HETATM   24  C1  UNL     1      -7.476  16.872   2.673  1.00  0.00     0.035 C
ENDBRANCH   1  23
BRANCH   1  25
HETATM   25  C3  UNL     1      -7.761  19.342   2.101  1.00  0.00     0.236 C
HETATM   26  C4  UNL     1      -8.824  19.956   3.023  1.00  0.00     0.035 C
ENDBRANCH   1  25
TORSDOF 5
ENDMDL