MODEL 5
REMARK VINA RESULT: -6.635141026      2.995      5.719
REMARK  5 active torsions:
REMARK  status: ('A' for Active; 'I' for Inactive)
REMARK    1  A    between atoms: C2_2  and  N1_3
REMARK       I    between atoms: N1_3  and  C4_5
REMARK    2  A    between atoms: C4_5  and  C5_7
REMARK    3  A    between atoms: C10_14  and  C11_15
REMARK       I    between atoms: C11_15  and  N3_17
REMARK    4  A    between atoms: N3_17  and  C12_19
REMARK    5  A    between atoms: C13_22  and  N5_24
ROOT
HETATM    1  C5  UNL     1      -3.940  25.664   3.747  1.00  0.00     0.346 C
HETATM    2  C6  UNL     1      -4.907  24.556   3.528  1.00  0.00     0.180 C
HETATM    3  O2  UNL     1      -4.041  23.451   3.581  1.00  0.00    -0.353 OA
HETATM    4  C7  UNL     1      -2.960  23.832   4.404  1.00  0.00     0.442 C
HETATM    5  N2  UNL     1      -3.261  25.117   4.932  1.00  0.00     0.135 N
HETATM    6  C8  UNL     1      -4.057  25.237   6.066  1.00  0.00     0.268 A
HETATM    7  C9  UNL     1      -5.530  24.998   5.922  1.00  0.00     0.074 A
HETATM    8  C10 UNL     1      -5.967  24.516   4.588  1.00  0.00     0.119 C
HETATM    9  C13 UNL     1      -4.751  24.267   6.908  1.00  0.00     0.131 A
HETATM   10  C14 UNL     1      -4.479  22.795   6.928  1.00  0.00     0.048 C
ENDROOT
BRANCH   8  11
HETATM   11  C11 UNL     1      -6.699  23.227   4.613  1.00  0.00     0.230 C
HETATM   12  O3  UNL     1      -7.310  22.882   5.647  1.00  0.00    -0.273 OA
HETATM   13  N3  UNL     1      -6.731  22.359   3.496  1.00  0.00    -0.306 N
ATOM     14  H3  UNL     1      -6.231  22.641   2.653  1.00  0.00     0.170 HD
BRANCH  13  15
HETATM   15  C12 UNL     1      -7.414  21.126   3.483  1.00  0.00     0.187 C
HETATM   16  N4  UNL     1      -8.753  21.064   3.006  1.00  0.00    -0.070 NA
HETATM   17  S1  UNL     1      -6.633  19.800   4.022  1.00  0.00    -0.044 SA
ENDBRANCH  13  15
ENDBRANCH   8  11
BRANCH   1  18
HETATM   18  C4  UNL     1      -4.416  27.011   3.831  1.00  0.00     0.256 C
HETATM   19  N1  UNL     1      -5.268  27.584   2.877  1.00  0.00    -0.355 N
HETATM   20  C3  UNL     1      -5.821  26.844   1.767  1.00  0.00     0.152 C
HETATM   21  O1  UNL     1      -4.063  27.731   4.814  1.00  0.00    -0.271 OA
BRANCH  19  22
HETATM   22  C2  UNL     1      -5.690  28.978   2.973  1.00  0.00     0.120 C
HETATM   23  C1  UNL     1      -7.107  29.020   2.407  1.00  0.00     0.026 C
ENDBRANCH  19  22
ENDBRANCH   1  18
BRANCH   9  24
HETATM   24  N5  UNL     1      -4.972  24.682   8.298  1.00  0.00    -0.143 N
HETATM   25  O4  UNL     1      -4.434  25.729   8.651  1.00  0.00    -0.536 OA
HETATM   26  O5  UNL     1      -5.726  23.966   9.166  1.00  0.00    -0.536 OA
ENDBRANCH   9  24
TORSDOF 5
ENDMDL