MODEL 5
REMARK VINA RESULT: -6.312605639      2.330      5.224
REMARK  6 active torsions:
REMARK  status: ('A' for Active; 'I' for Inactive)
REMARK    1  A    between atoms: C2_2  and  C4_4
REMARK    2  A    between atoms: C5_6  and  C8_16
REMARK    3  A    between atoms: N1_8  and  C7_11
REMARK    4  A    between atoms: C9_17  and  O6_18
REMARK    5  A    between atoms: O6_18  and  C10_19
REMARK    6  A    between atoms: C10_19  and  C11_20
ROOT
HETATM    1  C7  UNL     1      -6.541  22.104   3.648  1.00  0.00     0.303 C
HETATM    2  O3  UNL     1      -6.020  22.930   4.676  1.00  0.00    -0.244 OA
HETATM    3  S2  UNL     1      -4.842  21.951   5.422  1.00  0.00     0.277 S
HETATM    4  O4  UNL     1      -5.190  21.847   6.893  1.00  0.00    -0.198 OA
HETATM    5  O5  UNL     1      -3.480  22.416   5.285  1.00  0.00    -0.198 OA
HETATM    6  C8  UNL     1      -5.258  20.418   4.670  1.00  0.00     0.211 C
HETATM    7  C9  UNL     1      -6.730  20.741   4.395  1.00  0.00     0.198 C
ENDROOT
BRANCH   7   8
HETATM    8  O6  UNL     1      -7.368  19.850   3.600  1.00  0.00    -0.369 OA
BRANCH   8   9
HETATM    9  C10 UNL     1      -8.093  18.857   4.189  1.00  0.00     0.281 C
BRANCH   9  10
HETATM   10  C11 UNL     1      -8.794  17.929   3.312  1.00  0.00     0.197 C
HETATM   11  O7  UNL     1      -8.360  17.548   2.206  1.00  0.00    -0.646 OA
HETATM   12  O8  UNL     1     -10.029  17.414   3.701  1.00  0.00    -0.646 OA
ENDBRANCH   9  10
ENDBRANCH   8   9
ENDBRANCH   7   8
BRANCH   1  13
HETATM   13  N1  UNL     1      -5.569  21.809   2.656  1.00  0.00    -0.190 N
HETATM   14  O1  UNL     1      -4.328  22.413   2.836  1.00  0.00    -0.255 OA
HETATM   15  C5  UNL     1      -4.636  23.688   2.251  1.00  0.00     0.238 C
HETATM   16  S1  UNL     1      -4.960  23.347   0.505  1.00  0.00    -0.118 SA
HETATM   17  C4  UNL     1      -4.894  21.522   0.300  1.00  0.00     0.147 C
HETATM   18  C6  UNL     1      -5.689  21.034   1.482  1.00  0.00     0.260 C
HETATM   19  O2  UNL     1      -6.414  20.044   1.508  1.00  0.00    -0.270 OA
BRANCH  17  20
HETATM   20  C2  UNL     1      -5.368  21.048  -1.009  1.00  0.00     0.000 C
HETATM   21  C1  UNL     1      -4.129  20.895  -1.900  1.00  0.00     0.011 C
HETATM   22  C3  UNL     1      -6.440  21.831  -1.675  1.00  0.00     0.011 C
ENDBRANCH  17  20
ENDBRANCH   1  13
TORSDOF 6
ENDMDL