MODEL 5
REMARK VINA RESULT: -6.404350144      2.086      5.178
REMARK  5 active torsions:
REMARK  status: ('A' for Active; 'I' for Inactive)
REMARK    1  A    between atoms: O1_2  and  C2_3
REMARK    2  A    between atoms: C2_3  and  C3_5
REMARK    3  A    between atoms: C5_7  and  O3_8
REMARK    4  A    between atoms: C10_13  and  O4_14
REMARK    5  A    between atoms: C14_21  and  C15_22
REMARK       I    between atoms: C15_22  and  N2_24
ROOT
HETATM    1  C3  UNL     1      -4.723  22.664   2.835  1.00  0.00     0.071 C
HETATM    2  C4  UNL     1      -3.236  22.954   2.632  1.00  0.00     0.053 C
HETATM    3  C5  UNL     1      -3.352  22.027   1.429  1.00  0.00     0.127 C
HETATM    4  C7  UNL     1      -4.318  21.309   2.346  1.00  0.00     0.036 C
HETATM    5  C8  UNL     1      -5.344  20.436   1.817  1.00  0.00     0.047 C
HETATM    6  C9  UNL     1      -5.684  19.252   2.651  1.00  0.00     0.260 C
HETATM    7  C10 UNL     1      -4.605  18.620   3.483  1.00  0.00     0.210 C
HETATM    8  C11 UNL     1      -5.278  19.232   4.660  1.00  0.00     0.391 C
HETATM    9  O5  UNL     1      -4.858  20.439   5.141  1.00  0.00    -0.347 OA
HETATM   10  C12 UNL     1      -5.780  21.415   4.798  1.00  0.00     0.167 C
HETATM   11  C13 UNL     1      -6.912  20.768   4.108  1.00  0.00     0.309 C
HETATM   12  N1  UNL     1      -6.429  19.449   3.814  1.00  0.00     0.129 N
HETATM   13  C14 UNL     1      -5.227  22.674   4.228  1.00  0.00     0.127 C
ENDROOT
BRANCH  13  14
HETATM   14  C15 UNL     1      -4.355  23.270   5.259  1.00  0.00     0.227 C
HETATM   15  O6  UNL     1      -3.342  22.546   5.586  1.00  0.00    -0.273 OA
HETATM   16  N2  UNL     1      -4.476  24.480   5.908  1.00  0.00    -0.360 N
HETATM   17  C16 UNL     1      -5.590  25.337   5.609  1.00  0.00     0.152 C
HETATM   18  C17 UNL     1      -3.512  24.908   6.879  1.00  0.00     0.152 C
ENDBRANCH  13  14
BRANCH   1  19
HETATM   19  C2  UNL     1      -5.437  23.564   1.902  1.00  0.00     0.268 C
HETATM   20  O2  UNL     1      -5.764  23.193   0.746  1.00  0.00    -0.264 OA
BRANCH  19  21
HETATM   21  O1  UNL     1      -5.812  24.864   2.184  1.00  0.00    -0.326 OA
HETATM   22  C1  UNL     1      -5.270  25.976   1.503  1.00  0.00     0.213 C
ENDBRANCH  19  21
ENDBRANCH   1  19
BRANCH   3  23
HETATM   23  O3  UNL     1      -2.170  21.301   1.190  1.00  0.00    -0.390 OA
HETATM   24  C6  UNL     1      -1.941  21.237  -0.182  1.00  0.00     0.202 C
ENDBRANCH   3  23
BRANCH   7  25
HETATM   25  O4  UNL     1      -4.739  17.211   3.560  1.00  0.00    -0.389 OA
ATOM     26  H4  UNL     1      -4.472  16.869   4.404  1.00  0.00     0.210 HD
ENDBRANCH   7  25
TORSDOF 5
ENDMDL