MODEL 3
REMARK VINA RESULT: -8.067806058      2.620      6.988
REMARK  4 active torsions:
REMARK  status: ('A' for Active; 'I' for Inactive)
REMARK    1  A    between atoms: C2_2  and  C3_4
REMARK    2  A    between atoms: C3_4  and  C5_6
REMARK    3  A    between atoms: C5_6  and  C6_8
REMARK       I    between atoms: C6_8  and  N1_10
REMARK    4  A    between atoms: C10_15  and  S1_16
ROOT
HETATM    1  C6  UNL     1      -7.251  20.995   3.478  1.00  0.00     0.292 C
HETATM    2  O3  UNL     1      -8.342  21.388   2.945  1.00  0.00    -0.264 OA
HETATM    3  N1  UNL     1      -6.163  21.848   3.638  1.00  0.00    -0.323 N
ATOM      4  H1  UNL     1      -5.596  21.998   2.804  1.00  0.00     0.169 HD
HETATM    5  C7  UNL     1      -5.784  22.460   4.666  1.00  0.00     0.026 C
HETATM    6  C8  UNL     1      -6.508  22.324   5.912  1.00  0.00     0.024 C
HETATM    7  C9  UNL     1      -6.488  23.230   6.847  1.00  0.00     0.013 C
HETATM    8  C10 UNL     1      -5.757  24.506   6.814  1.00  0.00     0.275 C
HETATM    9  S2  UNL     1      -5.098  24.909   5.232  1.00  0.00     0.173 S
HETATM   10  O7  UNL     1      -6.222  25.421   4.375  1.00  0.00    -0.226 OA
HETATM   11  O8  UNL     1      -3.969  25.863   5.311  1.00  0.00    -0.226 OA
HETATM   12  C11 UNL     1      -4.561  23.328   4.562  1.00  0.00     0.199 C
ENDROOT
BRANCH   1  13
HETATM   13  C5  UNL     1      -7.174  19.607   3.920  1.00  0.00     0.227 C
HETATM   14  O2  UNL     1      -7.356  19.353   5.126  1.00  0.00    -0.286 OA
BRANCH  13  15
HETATM   15  C3  UNL     1      -6.890  18.504   2.986  1.00  0.00     0.130 C
HETATM   16  C4  UNL     1      -7.872  17.390   3.346  1.00  0.00     0.026 C
BRANCH  15  17
HETATM   17  C2  UNL     1      -5.496  18.034   3.082  1.00  0.00     0.134 C
HETATM   18  C1  UNL     1      -4.399  19.002   2.715  1.00  0.00     0.091 C
HETATM   19  O1  UNL     1      -5.242  16.908   3.444  1.00  0.00    -0.298 OA
ENDBRANCH  15  17
ENDBRANCH  13  15
ENDBRANCH   1  13
BRANCH   8  20
HETATM   20  S1  UNL     1      -4.502  24.550   8.072  1.00  0.00     0.124 S
HETATM   21  O4  UNL     1      -4.292  25.965   8.527  1.00  0.00    -0.594 OA
HETATM   22  O5  UNL     1      -5.025  23.733   9.236  1.00  0.00    -0.594 OA
HETATM   23  O6  UNL     1      -3.078  23.861   7.569  1.00  0.00    -0.594 OA
ENDBRANCH   8  20
TORSDOF 4
ENDMDL