MODEL 2
REMARK VINA RESULT: -7.477117413      1.204      1.204
REMARK  3 active torsions:
REMARK  status: ('A' for Active; 'I' for Inactive)
REMARK    1  A    between atoms: S1_2  and  N1_5
REMARK       I    between atoms: N1_5  and  C2_7
REMARK    2  A    between atoms: C2_7  and  C3_9
REMARK    3  A    between atoms: C6_12  and  S2_13
ROOT
HETATM    1  S2  UNL     1      -5.138  21.919   1.474  1.00  0.00    -0.044 SA
HETATM    2  C7  UNL     1      -5.614  22.215  -0.206  1.00  0.00     0.134 C
HETATM    3  N2  UNL     1      -5.940  22.421  -1.297  1.00  0.00    -0.184 NA
ENDROOT
BRANCH   1   4
HETATM    4  C6  UNL     1      -5.868  20.306   1.967  1.00  0.00     0.087 C
HETATM    5  C5  UNL     1      -5.511  19.986   3.380  1.00  0.00     0.068 C
HETATM    6  C4  UNL     1      -5.115  21.169   4.153  1.00  0.00    -0.003 C
HETATM    7  C9  UNL     1      -6.524  19.109   3.991  1.00  0.00     0.252 C
HETATM    8  C3  UNL     1      -5.431  21.243   5.438  1.00  0.00     0.031 C
HETATM    9  C10 UNL     1      -6.178  20.145   6.039  1.00  0.00     0.213 C
HETATM   10  O6  UNL     1      -7.056  19.515   5.176  1.00  0.00    -0.365 OA
HETATM   11  S3  UNL     1      -7.894  19.080   2.819  1.00  0.00     0.173 S
HETATM   12  C8  UNL     1      -7.341  20.442   1.814  1.00  0.00     0.160 C
HETATM   13  O4  UNL     1      -7.883  17.824   2.013  1.00  0.00    -0.225 OA
HETATM   14  O5  UNL     1      -9.194  19.362   3.476  1.00  0.00    -0.225 OA
BRANCH   8  15
HETATM   15  C2  UNL     1      -5.055  22.396   6.236  1.00  0.00     0.262 C
HETATM   16  N1  UNL     1      -5.826  22.795   7.336  1.00  0.00    -0.251 N
ATOM     17  H1  UNL     1      -6.657  22.254   7.573  1.00  0.00     0.181 HD
HETATM   18  O3  UNL     1      -4.022  23.062   5.948  1.00  0.00    -0.267 OA
BRANCH  16  19
HETATM   19  S1  UNL     1      -5.425  24.168   8.312  1.00  0.00     0.229 S
HETATM   20  C1  UNL     1      -5.360  25.659   7.357  1.00  0.00     0.186 C
HETATM   21  O1  UNL     1      -6.484  24.289   9.363  1.00  0.00    -0.206 OA
HETATM   22  O2  UNL     1      -4.097  23.995   8.988  1.00  0.00    -0.206 OA
ENDBRANCH  16  19
ENDBRANCH   8  15
ENDBRANCH   1   4
TORSDOF 3
ENDMDL