MODEL 3
REMARK VINA RESULT: -7.654161302      0.784      1.166
REMARK  3 active torsions:
REMARK  status: ('A' for Active; 'I' for Inactive)
REMARK       I    between atoms: C1_2  and  N1_3
REMARK    1  A    between atoms: C1_2  and  C6_14
REMARK    2  A    between atoms: C4_9  and  C5_10
REMARK    3  A    between atoms: C5_10  and  S3_11
ROOT
HETATM    1  O1  UNL     1      -7.017  21.858   2.094  1.00  0.00    -0.271 OA
HETATM    2  C1  UNL     1      -7.016  21.685   3.360  1.00  0.00     0.245 C
HETATM    3  N1  UNL     1      -6.874  22.839   4.150  1.00  0.00    -0.331 N
ATOM      4  H1  UNL     1      -7.688  23.438   4.294  1.00  0.00     0.168 HD
HETATM    5  C2  UNL     1      -5.745  23.174   4.706  1.00  0.00     0.015 C
HETATM    6  C3  UNL     1      -4.487  22.397   4.580  1.00  0.00     0.140 C
HETATM    7  S1  UNL     1      -3.250  23.585   3.901  1.00  0.00    -0.091 SA
HETATM    8  S2  UNL     1      -4.346  25.345   4.532  1.00  0.00    -0.086 SA
HETATM    9  C4  UNL     1      -5.542  24.378   5.548  1.00  0.00     0.119 C
ENDROOT
BRANCH   2  10
HETATM   10  C6  UNL     1      -7.160  20.316   3.933  1.00  0.00     0.185 C
HETATM   11  C7  UNL     1      -8.170  19.583   3.100  1.00  0.00     0.036 C
HETATM   12  C8  UNL     1      -8.357  18.198   3.698  1.00  0.00     0.019 C
HETATM   13  C9  UNL     1      -7.266  17.329   3.069  1.00  0.00     0.163 C
HETATM   14  S4  UNL     1      -5.749  18.227   3.150  1.00  0.00     0.227 S
HETATM   15  O4  UNL     1      -5.243  18.508   1.751  1.00  0.00    -0.206 OA
HETATM   16  O5  UNL     1      -4.721  17.358   3.818  1.00  0.00    -0.206 OA
HETATM   17  N2  UNL     1      -5.882  19.703   4.001  1.00  0.00    -0.306 N
ATOM     18  H2  UNL     1      -5.103  20.111   4.518  1.00  0.00     0.173 HD
ENDBRANCH   2  10
BRANCH   9  19
HETATM   19  C5  UNL     1      -4.804  23.982   6.790  1.00  0.00     0.178 C
BRANCH  19  20
HETATM   20  S3  UNL     1      -5.406  24.913   8.198  1.00  0.00     0.252 S
HETATM   21  O2  UNL     1      -4.262  26.067   8.624  1.00  0.00    -0.212 OA
HETATM   22  O3  UNL     1      -5.788  23.899   9.467  1.00  0.00    -0.212 OA
ENDBRANCH  19  20
ENDBRANCH   9  19
TORSDOF 3
ENDMDL