MODEL 2
REMARK VINA RESULT: -4.127926374      0.083      1.061
REMARK  5 active torsions:
REMARK  status: ('A' for Active; 'I' for Inactive)
REMARK    1  A    between atoms: N1_2  and  C4_5
REMARK    2  A    between atoms: C4_5  and  C5_6
REMARK    3  A    between atoms: C6_9  and  C7_10
REMARK    4  A    between atoms: C8_12  and  O2_13
REMARK    5  A    between atoms: C9_15  and  O3_16
ROOT
HETATM    1  C5  UNL     1      21.589  61.745  28.442  1.00  0.00     0.164 C
HETATM    2  N2  UNL     1      20.927  61.368  27.237  1.00  0.00    -0.091 NA
HETATM    3  O1  UNL     1      19.584  61.327  27.345  1.00  0.00    -0.276 OA
HETATM    4  C6  UNL     1      19.032  62.576  27.594  1.00  0.00     0.207 C
HETATM    5  C8  UNL     1      19.646  63.155  28.867  1.00  0.00     0.181 C
HETATM    6  C9  UNL     1      20.487  62.045  29.468  1.00  0.00     0.172 C
ENDROOT
BRANCH   1   7
HETATM    7  C4  UNL     1      22.445  60.677  29.038  1.00  0.00     0.262 C
BRANCH   7   8
HETATM    8  N1  UNL     1      23.840  60.857  28.912  1.00  0.00    -0.077 N
HETATM    9  C1  UNL     1      24.360  60.865  27.585  1.00  0.00     0.271 C
HETATM   10  C2  UNL     1      24.272  62.090  29.568  1.00  0.00     0.271 C
HETATM   11  C3  UNL     1      24.503  59.773  29.652  1.00  0.00     0.271 C
ENDBRANCH   7   8
ENDBRANCH   1   7
BRANCH   6  12
HETATM   12  O3  UNL     1      20.998  62.358  30.702  1.00  0.00    -0.391 OA
ATOM     13  H3  UNL     1      20.864  61.662  31.334  1.00  0.00     0.210 HD
ENDBRANCH   6  12
BRANCH   5  14
HETATM   14  O2  UNL     1      18.683  63.582  29.753  1.00  0.00    -0.390 OA
ATOM     15  H2  UNL     1      18.987  63.547  30.652  1.00  0.00     0.210 HD
ENDBRANCH   5  14
BRANCH   4  16
HETATM   16  C7  UNL     1      17.556  62.339  27.917  1.00  0.00     0.258 C
HETATM   17  F1  UNL     1      16.826  63.402  27.470  1.00  0.00    -0.253 F
ENDBRANCH   4  16
TORSDOF 5
ENDMDL