MODEL 3
REMARK VINA RESULT: -4.651277384      2.937      5.219
REMARK  4 active torsions:
REMARK  status: ('A' for Active; 'I' for Inactive)
REMARK    1  A    between atoms: C4_6  and  C5_7
REMARK    2  A    between atoms: C5_7  and  N2_8
REMARK    3  A    between atoms: C5_7  and  O2_12
REMARK    4  A    between atoms: C5_7  and  C6_14
ROOT
HETATM    1  C1  UNL     1      17.430  63.200  28.413  1.00  0.00     0.312 C
HETATM    2  N1  UNL     1      18.897  63.272  28.362  1.00  0.00     0.120 N
HETATM    3  C2  UNL     1      19.475  62.719  27.161  1.00  0.00     0.310 A
HETATM    4  C3  UNL     1      20.043  61.541  27.861  1.00  0.00     0.214 A
HETATM    5  O1  UNL     1      21.443  61.571  28.070  1.00  0.00    -0.344 OA
HETATM    6  C4  UNL     1      21.489  61.361  29.434  1.00  0.00     0.392 C
HETATM    7  N3  UNL     1      20.619  62.453  29.893  1.00  0.00    -0.009 N
ATOM      8  H31 UNL     1      21.000  63.396  29.807  1.00  0.00     0.283 HD
ATOM      9  H32 UNL     1      20.476  62.519  30.901  1.00  0.00     0.283 HD
HETATM   10  C8  UNL     1      19.439  62.167  29.099  1.00  0.00     0.452 A
ENDROOT
BRANCH   6  11
HETATM   11  C5  UNL     1      22.846  61.432  30.031  1.00  0.00     0.293 C
BRANCH  11  12
HETATM   12  N2  UNL     1      22.735  60.940  31.406  1.00  0.00    -0.039 N
ATOM     13  H23 UNL     1      23.397  61.382  32.044  1.00  0.00     0.278 HD
ATOM     14  H22 UNL     1      21.881  61.244  31.872  1.00  0.00     0.278 HD
ATOM     15  H21 UNL     1      22.832  59.925  31.368  1.00  0.00     0.278 HD
ENDBRANCH  11  12
BRANCH  11  16
HETATM   16  O2  UNL     1      23.342  62.732  30.043  1.00  0.00    -0.359 OA
ATOM     17  H2  UNL     1      23.792  62.933  30.855  1.00  0.00     0.213 HD
ENDBRANCH  11  16
BRANCH  11  18
HETATM   18  C6  UNL     1      23.764  60.577  29.279  1.00  0.00     0.057 C
HETATM   19  C7  UNL     1      24.043  60.758  27.997  1.00  0.00     0.085 C
HETATM   20 CL1  UNL     1      25.139  59.735  27.108  1.00  0.00    -0.097 Cl
ENDBRANCH  11  18
ENDBRANCH   6  11
TORSDOF 4
ENDMDL