MODEL 4
REMARK VINA RESULT: -4.873650267      2.992      4.756
REMARK  5 active torsions:
REMARK  status: ('A' for Active; 'I' for Inactive)
REMARK    1  A    between atoms: N1_2  and  N2_3
REMARK    2  A    between atoms: N1_2  and  S1_6
REMARK    3  A    between atoms: S1_6  and  N3_9
REMARK    4  A    between atoms: N3_9  and  S2_11
REMARK    5  A    between atoms: S2_11  and  N4_12
ROOT
HETATM    1  S1  UNL     1      23.223  61.546  29.293  1.00  0.00     0.329 S
HETATM    2  O1  UNL     1      24.264  62.467  29.849  1.00  0.00    -0.186 OA
HETATM    3  O2  UNL     1      22.162  61.378  30.344  1.00  0.00    -0.186 OA
ENDROOT
BRANCH   1   4
HETATM    4  N1  UNL     1      23.973  60.065  28.886  1.00  0.00    -0.113 NA
HETATM    5  C1  UNL     1      24.575  60.098  27.558  1.00  0.00     0.157 C
BRANCH   4   6
HETATM    6  N2  UNL     1      25.034  59.733  29.763  1.00  0.00    -0.349 NA
ATOM      7  H22 UNL     1      25.229  60.470  30.440  1.00  0.00     0.172 HD
ATOM      8  H21 UNL     1      25.832  59.547  29.155  1.00  0.00     0.172 HD
ENDBRANCH   4   6
ENDBRANCH   1   4
BRANCH   1   9
HETATM    9  N3  UNL     1      22.538  62.226  27.900  1.00  0.00    -0.180 N
ATOM     10  H3  UNL     1      23.061  62.840  27.276  1.00  0.00     0.194 HD
BRANCH   9  11
HETATM   11  S2  UNL     1      20.907  61.805  27.623  1.00  0.00     0.326 S
HETATM   12  O3  UNL     1      20.802  60.306  27.605  1.00  0.00    -0.182 OA
HETATM   13  O4  UNL     1      20.344  62.377  26.384  1.00  0.00    -0.182 OA
BRANCH  11  14
HETATM   14  N4  UNL     1      19.996  62.343  29.011  1.00  0.00    -0.311 N
ATOM     15  H42 UNL     1      19.002  62.570  29.018  1.00  0.00     0.170 HD
ATOM     16  H41 UNL     1      20.645  62.384  29.798  1.00  0.00     0.170 HD
ENDBRANCH  11  14
ENDBRANCH   9  11
ENDBRANCH   1   9
TORSDOF 5
ENDMDL