MODEL 4
REMARK VINA RESULT: -3.334718433      1.256      1.256
REMARK  5 active torsions:
REMARK  status: ('A' for Active; 'I' for Inactive)
REMARK    1  A    between atoms: C3_7  and  C4_8
REMARK    2  A    between atoms: C3_7  and  C5_11
REMARK    3  A    between atoms: C4_8  and  O1_9
REMARK    4  A    between atoms: C5_11  and  S1_12
REMARK    5  A    between atoms: S1_12  and  N3_13
ROOT
HETATM    1  N1  UNL     1      20.801  59.630  26.361  1.00  0.00    -0.087 NA
HETATM    2  C1  UNL     1      21.489  60.623  27.106  1.00  0.00     0.105 A
HETATM    3  N2  UNL     1      22.758  60.927  27.119  1.00  0.00    -0.362 N
ATOM      4  H2  UNL     1      23.586  60.577  26.637  1.00  0.00     0.162 HD
HETATM    5  C2  UNL     1      22.507  61.967  28.098  1.00  0.00     0.198 A
HETATM    6 CL1  UNL     1      23.384  61.600  29.598  1.00  0.00    -0.101 Cl
HETATM    7  C3  UNL     1      21.052  61.636  28.099  1.00  0.00     0.083 A
ENDROOT
BRANCH   7   8
HETATM    8  C4  UNL     1      20.485  61.070  29.370  1.00  0.00     0.185 C
BRANCH   8   9
HETATM    9  O1  UNL     1      20.609  61.961  30.431  1.00  0.00    -0.400 OA
ATOM     10  H1  UNL     1      20.886  62.821  30.137  1.00  0.00     0.209 HD
ENDBRANCH   8   9
ENDBRANCH   7   8
BRANCH   7  11
HETATM   11  C5  UNL     1      20.142  62.657  27.432  1.00  0.00     0.154 C
BRANCH  11  12
HETATM   12  S1  UNL     1      18.634  62.851  28.346  1.00  0.00     0.109 S
HETATM   13  O2  UNL     1      17.346  62.790  27.302  1.00  0.00    -0.236 OA
BRANCH  12  14
HETATM   14  N3  UNL     1      18.654  64.313  29.262  1.00  0.00    -0.350 NA
ATOM     15  H32 UNL     1      17.726  64.732  29.332  1.00  0.00     0.166 HD
ATOM     16  H31 UNL     1      19.301  64.989  28.856  1.00  0.00     0.166 HD
ENDBRANCH  12  14
ENDBRANCH  11  12
ENDBRANCH   7  11
TORSDOF 5
ENDMDL