MODEL 3
REMARK VINA RESULT: -4.039268915      8.572     10.570
REMARK  6 active torsions:
REMARK  status: ('A' for Active; 'I' for Inactive)
REMARK    1  A    between atoms: C3_3  and  N1_4
REMARK       I    between atoms: C4_6  and  N2_7
REMARK       I    between atoms: C4_6  and  N5_16
REMARK    2  A    between atoms: N2_7  and  N3_9
REMARK    3  A    between atoms: N3_9  and  C5_11
REMARK    4  A    between atoms: N4_12  and  O1_14
REMARK    5  A    between atoms: N5_16  and  N6_18
REMARK    6  A    between atoms: N6_18  and  O2_20
ROOT
HETATM    1  C1  UNL     1      14.882  63.520  20.450  1.00  0.00     0.014 C
HETATM    2  C2  UNL     1      14.560  63.316  21.596  1.00  0.00    -0.097 C
HETATM    3  C3  UNL     1      14.152  63.046  22.993  1.00  0.00     0.231 C
ENDROOT
BRANCH   3   4
HETATM    4  N1  UNL     1      14.404  61.678  23.308  1.00  0.00    -0.213 N
HETATM    5  C4  UNL     1      13.737  60.670  22.927  1.00  0.00     0.711 C
HETATM    6  N2  UNL     1      14.157  59.382  23.356  1.00  0.00    -0.130 N
HETATM    7  N5  UNL     1      12.592  60.772  22.093  1.00  0.00    -0.108 N
ATOM      8  H2  UNL     1      14.054  58.568  22.750  1.00  0.00     0.205 HD
HETATM    9  C6  UNL     1      12.584  60.319  20.720  1.00  0.00     0.199 C
ATOM     10  H1  UNL     1      15.209  61.490  23.906  1.00  0.00     0.178 HD
BRANCH   6  11
HETATM   11  N3  UNL     1      14.711  59.263  24.624  1.00  0.00    -0.280 N
ATOM     12  H3  UNL     1      15.268  60.030  25.001  1.00  0.00     0.188 HD
BRANCH  11  13
HETATM   13  C5  UNL     1      14.520  58.112  25.391  1.00  0.00     0.221 C
HETATM   14  N4  UNL     1      14.541  58.163  26.682  1.00  0.00    -0.264 N
ATOM     15  H4  UNL     1      14.699  59.051  27.157  1.00  0.00     0.195 HD
BRANCH  14  16
HETATM   16  O1  UNL     1      14.351  57.013  27.413  1.00  0.00    -0.289 OA
ATOM     17  H1  UNL     1      14.152  57.072  28.341  1.00  0.00     0.244 HD
ENDBRANCH  14  16
ENDBRANCH  11  13
ENDBRANCH   6  11
BRANCH   7  18
HETATM   18  N6  UNL     1      11.443  61.339  22.651  1.00  0.00    -0.194 N
ATOM     19  H6  UNL     1      10.578  61.286  22.111  1.00  0.00     0.216 HD
BRANCH  18  20
HETATM   20  O2  UNL     1      11.398  61.898  23.748  1.00  0.00    -0.274 OA
ATOM     21  H2  UNL     1      10.644  61.895  24.327  1.00  0.00     0.246 HD
ENDBRANCH  18  20
ENDBRANCH   7  18
ENDBRANCH   3   4
TORSDOF 6
ENDMDL