MODEL 4
REMARK VINA RESULT: -6.120300569      3.887      6.269
REMARK  4 active torsions:
REMARK  status: ('A' for Active; 'I' for Inactive)
REMARK    1  A    between atoms: N3_4  and  C2_6
REMARK    2  A    between atoms: C2_6  and  C3_7
REMARK    3  A    between atoms: C3_7  and  N4_8
REMARK    4  A    between atoms: N4_8  and  C4_10
ROOT
HETATM    1  N4  UNL     1      21.351  61.345  29.365  1.00  0.00    -0.375 N
ATOM      2  H4  UNL     1      21.604  60.518  28.824  1.00  0.00     0.160 HD
ENDROOT
BRANCH   1   3
HETATM    3  C3  UNL     1      22.212  61.749  30.429  1.00  0.00     0.140 C
BRANCH   3   4
HETATM    4  C2  UNL     1      23.600  62.118  29.990  1.00  0.00     0.141 C
BRANCH   4   5
HETATM    5  N3  UNL     1      23.920  61.415  28.765  1.00  0.00    -0.365 N
HETATM    6  C1  UNL     1      24.530  60.282  28.728  1.00  0.00     0.197 C
HETATM    7  N1  UNL     1      24.959  59.591  29.877  1.00  0.00    -0.067 NA
HETATM    8  N2  UNL     1      24.779  59.703  27.435  1.00  0.00    -0.067 NA
ATOM      9  H3  UNL     1      23.647  61.842  27.880  1.00  0.00     0.161 HD
ENDBRANCH   4   5
ENDBRANCH   3   4
ENDBRANCH   1   3
BRANCH   1  10
HETATM   10  C4  UNL     1      20.148  62.042  29.018  1.00  0.00     0.125 C
HETATM   11  N5  UNL     1      19.807  63.109  29.559  1.00  0.00    -0.345 N
HETATM   12  C5  UNL     1      18.624  63.768  29.197  1.00  0.00     0.172 C
ATOM     13  H5  UNL     1      20.401  63.514  30.283  1.00  0.00     0.167 HD
HETATM   14  S1  UNL     1      17.752  62.479  28.331  1.00  0.00     0.097 S
HETATM   15  O1  UNL     1      17.025  63.017  26.945  1.00  0.00    -0.249 OA
HETATM   16  C6  UNL     1      19.232  61.509  27.977  1.00  0.00     0.335 C
HETATM   17  F1  UNL     1      19.708  61.869  26.722  1.00  0.00    -0.227 F
ENDBRANCH   1  10
TORSDOF 4
ENDMDL