MODEL 3
REMARK VINA RESULT: -10.141650954      1.813      3.740
REMARK  11 active torsions:
REMARK  status: ('A' for Active; 'I' for Inactive)
REMARK    1  A    between atoms: C3_4  and  O1_5
REMARK    2  A    between atoms: O1_5  and  C4_6
REMARK    3  A    between atoms: C4_6  and  C5_8
REMARK    4  A    between atoms: C5_8  and  C6_9
REMARK    5  A    between atoms: C6_9  and  N1_10
REMARK    6  A    between atoms: N1_10  and  C7_13
REMARK    7  A    between atoms: C7_13  and  C8_14
REMARK    8  A    between atoms: C8_14  and  C9_15
REMARK    9  A    between atoms: C8_14  and  N6_28
REMARK   10  A    between atoms: C11_20  and  N4_21
REMARK   11  A    between atoms: C15_37  and  O4_38
ROOT
HETATM    1  C8  UNL     1       3.427  19.884  15.757  1.00  0.00     0.179 C
ENDROOT
BRANCH   1   2
HETATM    2  C7  UNL     1       4.760  20.304  15.252  1.00  0.00     0.264 C
BRANCH   2   3
HETATM    3  N1  UNL     1       4.905  20.049  13.807  1.00  0.00    -0.072 N
ATOM      4  H12 UNL     1       5.680  20.569  13.397  1.00  0.00     0.277 HD
ATOM      5  H11 UNL     1       4.150  20.465  13.262  1.00  0.00     0.277 HD
BRANCH   3   6
HETATM    6  C6  UNL     1       5.021  18.620  13.592  1.00  0.00     0.242 C
BRANCH   6   7
HETATM    7  C5  UNL     1       6.035  18.273  12.524  1.00  0.00     0.138 C
BRANCH   7   8
HETATM    8  C4  UNL     1       6.032  19.353  11.493  1.00  0.00     0.263 C
HETATM    9  O2  UNL     1       7.055  20.092  11.372  1.00  0.00    -0.265 OA
BRANCH   8  10
HETATM   10  O1  UNL     1       4.981  19.619  10.640  1.00  0.00    -0.282 OA
BRANCH  10  11
HETATM   11  C3  UNL     1       4.336  18.613   9.909  1.00  0.00     0.362 A
HETATM   12  C2  UNL     1       2.881  18.448  10.184  1.00  0.00     0.251 A
HETATM   13  C1  UNL     1       2.593  17.031  10.680  1.00  0.00     0.084 C
HETATM   14  F1  UNL     1       2.363  19.367  11.067  1.00  0.00    -0.212 F
HETATM   15  N13 UNL     1       2.276  18.590   8.873  1.00  0.00    -0.166 N
HETATM   16  N11 UNL     1       3.194  18.811   7.951  1.00  0.00    -0.092 N
HETATM   17  C18 UNL     1       1.076  18.571   8.283  1.00  0.00     0.350 A
HETATM   18  O6  UNL     1       4.449  18.839   8.506  1.00  0.00    -0.215 OA
HETATM   19  C17 UNL     1       2.624  18.944   6.732  1.00  0.00     0.370 A
HETATM   20  O7  UNL     1       3.213  19.162   5.640  1.00  0.00    -0.243 OA
HETATM   21  N12 UNL     1       1.309  18.790   6.964  1.00  0.00    -0.256 N
ATOM     22  H12 UNL     1       0.585  18.832   6.247  1.00  0.00     0.175 HD
HETATM   23  O8  UNL     1      -0.070  18.397   8.747  1.00  0.00    -0.245 OA
ENDBRANCH  10  11
ENDBRANCH   8  10
ENDBRANCH   7   8
ENDBRANCH   6   7
ENDBRANCH   3   6
ENDBRANCH   2   3
ENDBRANCH   1   2
BRANCH   1  24
HETATM   24  C9  UNL     1       2.349  20.858  15.644  1.00  0.00     0.078 A
HETATM   25  C10 UNL     1       1.191  20.464  14.967  1.00  0.00     0.145 A
HETATM   26  N2  UNL     1       1.080  19.173  14.401  1.00  0.00    -0.081 NA
HETATM   27  N3  UNL     1       0.139  21.281  14.811  1.00  0.00    -0.178 N
HETATM   28  C11 UNL     1       0.155  22.513  15.304  1.00  0.00     0.680 A
ATOM     29  H3  UNL     1      -0.684  20.952  14.307  1.00  0.00     0.185 HD
HETATM   30  N5  UNL     1       1.252  22.931  15.964  1.00  0.00    -0.156 N
HETATM   31  C12 UNL     1       2.323  22.135  16.134  1.00  0.00     0.271 A
ATOM     32  H5  UNL     1       1.272  23.877  16.344  1.00  0.00     0.187 HD
HETATM   33  O3  UNL     1       3.295  22.609  16.760  1.00  0.00    -0.267 OA
BRANCH  28  34
HETATM   34  N4  UNL     1      -0.875  23.269  15.134  1.00  0.00    -0.234 N
ATOM     35  H42 UNL     1      -0.888  24.027  14.452  1.00  0.00     0.174 HD
ATOM     36  H41 UNL     1      -1.708  23.104  15.700  1.00  0.00     0.174 HD
ENDBRANCH  28  34
ENDBRANCH   1  24
BRANCH   1  37
HETATM   37  N6  UNL     1       3.622  19.461  17.151  1.00  0.00    -0.249 N
HETATM   38  N7  UNL     1       4.528  19.908  18.017  1.00  0.00    -0.237 N
HETATM   39  N8  UNL     1       4.410  19.306  19.167  1.00  0.00    -0.278 N
ATOM     40  H7  UNL     1       5.223  20.625  17.808  1.00  0.00     0.208 HD
HETATM   41  C13 UNL     1       3.388  18.421  19.080  1.00  0.00     0.163 A
ATOM     42  H8  UNL     1       4.987  19.473  19.991  1.00  0.00     0.189 HD
HETATM   43  C14 UNL     1       2.908  18.533  17.812  1.00  0.00     0.157 A
HETATM   44  C16 UNL     1       2.794  17.480  20.011  1.00  0.00     0.276 A
HETATM   45  N9  UNL     1       1.804  17.707  17.413  1.00  0.00    -0.330 N
HETATM   46  C15 UNL     1       1.157  16.755  18.259  1.00  0.00     0.330 A
ATOM     47  H9  UNL     1       1.457  17.806  16.460  1.00  0.00     0.165 HD
HETATM   48  N10 UNL     1       1.715  16.685  19.580  1.00  0.00    -0.312 N
ATOM     49  H10 UNL     1       1.308  16.025  20.242  1.00  0.00     0.167 HD
HETATM   50  O5  UNL     1       3.248  17.387  21.180  1.00  0.00    -0.266 OA
BRANCH  46  51
HETATM   51  O4  UNL     1      -0.206  17.068  18.283  1.00  0.00    -0.359 OA
ATOM     52  H4  UNL     1      -0.536  16.980  17.396  1.00  0.00     0.214 HD
ENDBRANCH  46  51
ENDBRANCH   1  37
TORSDOF 11
ENDMDL