MODEL 3
REMARK VINA RESULT: -8.122824224      2.056      5.919
REMARK  18 active torsions:
REMARK  status: ('A' for Active; 'I' for Inactive)
REMARK       I    between atoms: C2_2  and  N1_4
REMARK    1  A    between atoms: N1_4  and  N9_40
REMARK    2  A    between atoms: C4_8  and  N3_9
REMARK    3  A    between atoms: C6_13  and  C7_14
REMARK    4  A    between atoms: C7_14  and  O2_15
REMARK    5  A    between atoms: C7_14  and  C8_17
REMARK    6  A    between atoms: C8_17  and  O3_18
REMARK    7  A    between atoms: C8_17  and  C9_20
REMARK    8  A    between atoms: C9_20  and  O4_21
REMARK    9  A    between atoms: C12_29  and  C13_30
REMARK   10  A    between atoms: C13_30  and  C14_35
REMARK   11  A    between atoms: N6_31  and  O5_33
REMARK       I    between atoms: N9_40  and  C16_42
REMARK   12  A    between atoms: C16_42  and  C17_44
REMARK   13  A    between atoms: C17_44  and  O8_45
REMARK   14  A    between atoms: C17_44  and  C18_47
REMARK   15  A    between atoms: C18_47  and  O9_48
REMARK   16  A    between atoms: C18_47  and  C19_51
REMARK   17  A    between atoms: C19_51  and  O10_52
REMARK   18  A    between atoms: C19_51  and  O11_54
ROOT
HETATM    1  C1  UNL     1       1.616  22.581  13.066  1.00  0.00     0.120 C
HETATM    2  C2  UNL     1       2.598  21.956  13.952  1.00  0.00     0.255 C
HETATM    3  O1  UNL     1       3.248  22.732  14.729  1.00  0.00    -0.271 OA
HETATM    4  N1  UNL     1       2.882  20.584  14.018  1.00  0.00    -0.048 N
HETATM    5  C3  UNL     1       3.732  20.039  14.794  1.00  0.00     0.708 C
HETATM    6  N2  UNL     1       4.517  20.803  15.725  1.00  0.00    -0.173 N
ATOM      7  H2  UNL     1       4.383  21.813  15.762  1.00  0.00     0.186 HD
HETATM    8  C4  UNL     1       5.567  20.151  16.686  1.00  0.00     0.143 C
HETATM    9  C5  UNL     1       6.100  18.908  16.231  1.00  0.00     0.102 C
HETATM   10  C6  UNL     1       5.491  18.148  16.970  1.00  0.00     0.068 C
HETATM   11  N4  UNL     1       5.014  16.683  16.598  1.00  0.00    -0.383 N
ATOM     12  H4  UNL     1       4.923  15.891  17.234  1.00  0.00     0.160 HD
HETATM   13  C10 UNL     1       4.738  16.691  15.205  1.00  0.00     0.179 C
HETATM   14  C11 UNL     1       5.056  18.008  14.562  1.00  0.00     0.073 C
HETATM   15  N5  UNL     1       4.089  18.662  14.953  1.00  0.00    -0.190 N
ATOM     16  H5  UNL     1       3.413  18.120  15.491  1.00  0.00     0.184 HD
HETATM   17  C12 UNL     1       6.407  18.172  14.031  1.00  0.00     0.092 C
HETATM   18  N8  UNL     1       7.136  18.742  15.105  1.00  0.00    -0.348 N
ATOM     19  H8  UNL     1       8.126  18.986  15.128  1.00  0.00     0.166 HD
ENDROOT
BRANCH   4  20
HETATM   20  N9  UNL     1       2.102  19.770  13.104  1.00  0.00    -0.239 N
HETATM   21  C15 UNL     1       0.898  19.260  13.708  1.00  0.00     0.182 C
HETATM   22  C16 UNL     1       2.531  19.584  11.797  1.00  0.00     0.273 C
HETATM   23  O7  UNL     1       3.624  20.168  11.466  1.00  0.00    -0.268 OA
BRANCH  22  24
HETATM   24  C17 UNL     1       1.848  18.794  10.783  1.00  0.00     0.284 C
BRANCH  24  25
HETATM   25  O8  UNL     1       1.744  19.602   9.593  1.00  0.00    -0.380 OA
ATOM     26  H8  UNL     1       2.579  20.037   9.465  1.00  0.00     0.210 HD
ENDBRANCH  24  25
BRANCH  24  27
HETATM   27  C18 UNL     1       2.650  17.563  10.329  1.00  0.00     0.287 C
HETATM   28  F1  UNL     1       3.516  17.922   9.346  1.00  0.00    -0.203 F
BRANCH  27  29
HETATM   29  O9  UNL     1       3.332  17.098  11.470  1.00  0.00    -0.356 OA
ATOM     30  H9  UNL     1       4.204  17.470  11.426  1.00  0.00     0.213 HD
ENDBRANCH  27  29
BRANCH  27  31
HETATM   31  C19 UNL     1       1.731  16.501   9.827  1.00  0.00     0.325 C
BRANCH  31  32
HETATM   32  O10 UNL     1       2.290  15.231   9.871  1.00  0.00    -0.366 OA
ATOM     33  H10 UNL     1       1.769  14.578   9.420  1.00  0.00     0.212 HD
ENDBRANCH  31  32
BRANCH  31  34
HETATM   34  O11 UNL     1       1.432  16.823   8.482  1.00  0.00    -0.366 OA
ATOM     35  H11 UNL     1       2.264  16.917   8.032  1.00  0.00     0.212 HD
ENDBRANCH  31  34
ENDBRANCH  27  31
ENDBRANCH  24  27
ENDBRANCH  22  24
ENDBRANCH   4  20
BRANCH   8  36
HETATM   36  N3  UNL     1       5.626  20.882  17.532  1.00  0.00    -0.383 N
ATOM     37  H32 UNL     1       5.293  21.799  17.828  1.00  0.00     0.157 HD
ATOM     38  H31 UNL     1       6.234  20.412  18.203  1.00  0.00     0.157 HD
ENDBRANCH   8  36
BRANCH  17  39
HETATM   39  C13 UNL     1       7.021  17.922  12.836  1.00  0.00     0.147 C
HETATM   40  N6  UNL     1       7.913  16.995  12.670  1.00  0.00    -0.262 N
ATOM     41  H6  UNL     1       8.343  16.847  11.757  1.00  0.00     0.194 HD
BRANCH  40  42
HETATM   42  O5  UNL     1       8.264  16.228  13.723  1.00  0.00    -0.289 OA
ATOM     43  H5  UNL     1       9.026  16.469  14.237  1.00  0.00     0.244 HD
ENDBRANCH  40  42
BRANCH  39  44
HETATM   44  C14 UNL     1       6.661  18.736  11.638  1.00  0.00     0.285 C
HETATM   45  N7  UNL     1       6.177  18.102  10.480  1.00  0.00    -0.056 NA
HETATM   46  O6  UNL     1       6.788  19.980  11.657  1.00  0.00    -0.269 OA
ENDBRANCH  39  44
ENDBRANCH  17  39
BRANCH  10  47
HETATM   47  C7  UNL     1       4.647  18.689  17.963  1.00  0.00     0.200 C
BRANCH  47  48
HETATM   48  O2  UNL     1       3.420  17.951  17.636  1.00  0.00    -0.387 OA
ATOM     49  H2  UNL     1       2.786  18.621  17.861  1.00  0.00     0.210 HD
ENDBRANCH  47  48
BRANCH  47  50
HETATM   50  C8  UNL     1       4.759  18.079  19.363  1.00  0.00     0.176 C
BRANCH  50  51
HETATM   51  O3  UNL     1       4.191  16.811  19.444  1.00  0.00    -0.390 OA
ATOM     52  H3  UNL     1       4.831  16.115  19.352  1.00  0.00     0.210 HD
ENDBRANCH  50  51
BRANCH  50  53
HETATM   53  C9  UNL     1       4.077  18.972  20.363  1.00  0.00     0.198 C
BRANCH  53  54
HETATM   54  O4  UNL     1       2.703  18.907  20.368  1.00  0.00    -0.398 OA
ATOM     55  H4  UNL     1       2.285  19.097  19.536  1.00  0.00     0.209 HD
ENDBRANCH  53  54
ENDBRANCH  50  53
ENDBRANCH  47  50
ENDBRANCH  10  47
TORSDOF 18
ENDMDL