MODEL 3
REMARK VINA RESULT: -7.605054196      4.568      6.535
REMARK  18 active torsions:
REMARK  status: ('A' for Active; 'I' for Inactive)
REMARK    1  A    between atoms: C3_6  and  N3_7
REMARK    2  A    between atoms: C4_8  and  C5_9
REMARK    3  A    between atoms: C5_9  and  O1_10
REMARK    4  A    between atoms: N4_13  and  C7_14
REMARK    5  A    between atoms: C7_14  and  C8_15
REMARK    6  A    between atoms: C8_15  and  C9_16
REMARK    7  A    between atoms: C9_16  and  O2_17
REMARK    8  A    between atoms: C9_16  and  C10_19
REMARK    9  A    between atoms: C10_19  and  O3_20
REMARK   10  A    between atoms: O3_20  and  C11_21
REMARK   11  A    between atoms: C12_24  and  C13_25
REMARK   12  A    between atoms: C13_25  and  O4_26
REMARK   13  A    between atoms: C14_28  and  O5_29
REMARK   14  A    between atoms: C16_35  and  N7_36
REMARK   15  A    between atoms: C17_39  and  N8_40
REMARK   16  A    between atoms: N8_40  and  N9_42
REMARK   17  A    between atoms: C20_50  and  N11_51
REMARK   18  A    between atoms: N12_54  and  N13_55
ROOT
HETATM    1  N3  UNL     1       2.560  20.130  14.030  1.00  0.00    -0.127 N
HETATM    2  C4  UNL     1       1.387  19.715  13.536  1.00  0.00     0.075 A
HETATM    3  C6  UNL     1       1.357  19.152  12.289  1.00  0.00     0.121 A
HETATM    4  N4  UNL     1       2.475  18.987  11.500  1.00  0.00    -0.339 N
HETATM    5  C16 UNL     1       3.626  19.408  12.019  1.00  0.00     0.148 A
HETATM    6  C17 UNL     1       3.676  19.989  13.299  1.00  0.00     0.187 A
ENDROOT
BRANCH   4   7
HETATM    7  C7  UNL     1       2.302  18.426  10.174  1.00  0.00     0.133 C
BRANCH   7   8
HETATM    8  C8  UNL     1       1.115  17.568   9.985  1.00  0.00     0.054 C
BRANCH   8   9
HETATM    9  C9  UNL     1       0.991  16.717   8.788  1.00  0.00     0.144 C
BRANCH   9  10
HETATM   10  O2  UNL     1       0.024  15.747   8.829  1.00  0.00    -0.393 OA
ATOM     11  H2  UNL     1       0.153  15.050   9.462  1.00  0.00     0.210 HD
ENDBRANCH   9  10
BRANCH   9  12
HETATM   12  C10 UNL     1       0.689  17.644   7.605  1.00  0.00     0.209 C
BRANCH  12  13
HETATM   13  O3  UNL     1      -0.440  18.447   7.889  1.00  0.00    -0.329 OA
BRANCH  13  14
HETATM   14  C11 UNL     1      -0.772  19.560   7.132  1.00  0.00     0.213 A
HETATM   15  N5  UNL     1       0.184  20.337   6.600  1.00  0.00    -0.330 N
HETATM   16  C12 UNL     1      -0.095  21.411   5.869  1.00  0.00     0.086 A
ATOM     17  H5  UNL     1       1.161  20.094   6.762  1.00  0.00     0.168 HD
HETATM   18  C14 UNL     1      -1.428  21.708   5.672  1.00  0.00     0.168 A
HETATM   19  N6  UNL     1      -2.414  20.953   6.191  1.00  0.00    -0.299 N
HETATM   20  C15 UNL     1      -2.098  19.873   6.925  1.00  0.00     0.298 A
ATOM     21  H6  UNL     1      -3.391  21.197   6.029  1.00  0.00     0.171 HD
HETATM   22  O6  UNL     1      -3.024  19.167   7.410  1.00  0.00    -0.263 OA
BRANCH  16  23
HETATM   23  C13 UNL     1       0.964  22.290   5.265  1.00  0.00     0.225 C
BRANCH  23  24
HETATM   24  O4  UNL     1       0.845  23.580   5.749  1.00  0.00    -0.395 OA
ATOM     25  H4  UNL     1       1.671  23.869   6.116  1.00  0.00     0.209 HD
ENDBRANCH  23  24
ENDBRANCH  16  23
BRANCH  18  26
HETATM   26  O5  UNL     1      -1.751  22.825   4.913  1.00  0.00    -0.344 OA
ATOM     27  H5  UNL     1      -2.649  23.135   4.926  1.00  0.00     0.219 HD
ENDBRANCH  18  26
ENDBRANCH  13  14
ENDBRANCH  12  13
ENDBRANCH   9  12
ENDBRANCH   8   9
ENDBRANCH   7   8
ENDBRANCH   4   7
BRANCH   5  28
HETATM   28  N7  UNL     1       4.722  19.249  11.382  1.00  0.00    -0.382 N
ATOM     29  H72 UNL     1       4.934  18.325  11.008  1.00  0.00     0.157 HD
ATOM     30  H71 UNL     1       5.348  20.038  11.222  1.00  0.00     0.157 HD
ENDBRANCH   5  28
BRANCH   2  31
HETATM   31  C5  UNL     1       0.114  19.849  14.314  1.00  0.00     0.223 C
BRANCH  31  32
HETATM   32  O1  UNL     1      -0.435  21.122  14.147  1.00  0.00    -0.395 OA
ATOM     33  H1  UNL     1      -1.257  21.199  14.618  1.00  0.00     0.209 HD
ENDBRANCH  31  32
ENDBRANCH   2  31
BRANCH   6  34
HETATM   34  N8  UNL     1       4.810  20.375  13.737  1.00  0.00    -0.288 N
ATOM     35  H8  UNL     1       5.053  21.362  13.649  1.00  0.00     0.188 HD
BRANCH  34  36
HETATM   36  N9  UNL     1       5.714  19.534  14.319  1.00  0.00    -0.344 N
ATOM     37  H92 UNL     1       5.417  19.038  15.159  1.00  0.00     0.176 HD
ATOM     38  H91 UNL     1       6.654  19.385  13.954  1.00  0.00     0.176 HD
ENDBRANCH  34  36
ENDBRANCH   6  34
BRANCH   1  39
HETATM   39  C3  UNL     1       2.678  20.725  15.316  1.00  0.00     0.695 A
HETATM   40  N2  UNL     1       3.125  20.045  16.386  1.00  0.00    -0.173 N
HETATM   41  C2  UNL     1       3.254  20.563  17.621  1.00  0.00     0.158 A
ATOM     42  H2  UNL     1       3.385  19.068  16.253  1.00  0.00     0.186 HD
HETATM   43  N1  UNL     1       3.665  20.099  18.816  1.00  0.00    -0.257 N
HETATM   44  C19 UNL     1       2.909  21.887  17.833  1.00  0.00     0.125 A
HETATM   45  C1  UNL     1       4.118  18.725  19.008  1.00  0.00     0.182 C
HETATM   46  N12 UNL     1       3.607  21.019  19.751  1.00  0.00    -0.182 N
HETATM   47  C20 UNL     1       3.135  22.140  19.148  1.00  0.00     0.158 A
HETATM   48  C18 UNL     1       2.449  22.588  16.734  1.00  0.00     0.277 A
HETATM   49  N10 UNL     1       2.338  22.027  15.520  1.00  0.00    -0.154 N
HETATM   50  O7  UNL     1       2.135  23.804  16.938  1.00  0.00    -0.266 OA
ATOM     51  H10 UNL     1       1.993  22.585  14.738  1.00  0.00     0.187 HD
BRANCH  46  52
HETATM   52  N13 UNL     1       3.953  20.901  21.108  1.00  0.00    -0.322 N
ATOM     53 2H13 UNL     1       4.520  21.563  21.639  1.00  0.00     0.179 HD
ATOM     54 1H13 UNL     1       3.700  20.159  21.761  1.00  0.00     0.179 HD
ENDBRANCH  46  52
BRANCH  47  55
HETATM   55  N11 UNL     1       2.945  23.253  19.764  1.00  0.00    -0.382 N
ATOM     56 2H11 UNL     1       2.421  24.034  19.368  1.00  0.00     0.157 HD
ATOM     57 1H11 UNL     1       3.279  23.502  20.695  1.00  0.00     0.157 HD
ENDBRANCH  47  55
ENDBRANCH   1  39
TORSDOF 18
ENDMDL