MODEL 4
REMARK VINA RESULT: -9.013230951      3.785      5.435
REMARK  16 active torsions:
REMARK  status: ('A' for Active; 'I' for Inactive)
REMARK    1  A    between atoms: C2_2  and  C7_21
REMARK    2  A    between atoms: N1_3  and  C3_5
REMARK    3  A    between atoms: C3_5  and  O1_6
REMARK    4  A    between atoms: C3_5  and  C4_8
REMARK    5  A    between atoms: C4_8  and  N3_13
REMARK    6  A    between atoms: N2_9  and  O2_11
REMARK    7  A    between atoms: N3_13  and  C5_15
REMARK    8  A    between atoms: C5_15  and  O3_16
REMARK    9  A    between atoms: C5_15  and  C6_18
REMARK   10  A    between atoms: C6_18  and  O4_19
REMARK       I    between atoms: C7_21  and  N4_23
REMARK   11  A    between atoms: N4_23  and  C8_25
REMARK   12  A    between atoms: C10_29  and  N5_31
REMARK   13  A    between atoms: C14_38  and  O8_39
REMARK   14  A    between atoms: C14_38  and  N8_41
REMARK   15  A    between atoms: N8_41  and  N9_43
REMARK   16  A    between atoms: C16_48  and  O9_49
ROOT
HETATM    1  C8  UNL     1       3.867  18.276  14.265  1.00  0.00     0.214 C
HETATM    2  C9  UNL     1       4.193  16.929  14.771  1.00  0.00     0.286 C
HETATM    3  O6  UNL     1       4.839  16.149  14.046  1.00  0.00    -0.263 OA
HETATM    4  O7  UNL     1       3.778  16.585  16.001  1.00  0.00    -0.285 OA
HETATM    5  C10 UNL     1       3.884  17.357  17.210  1.00  0.00     0.177 C
HETATM    6  C11 UNL     1       5.177  16.880  17.740  1.00  0.00     0.075 C
HETATM    7  C15 UNL     1       4.068  18.750  16.718  1.00  0.00     0.146 C
HETATM    8 BR1  UNL     1       3.620  20.127  17.982  1.00  0.00    -0.083 Br
HETATM    9  C16 UNL     1       3.450  19.152  15.424  1.00  0.00     0.169 C
ENDROOT
BRANCH   1  10
HETATM   10  N4  UNL     1       2.845  18.253  13.244  1.00  0.00    -0.340 N
HETATM   11  C7  UNL     1       3.126  18.393  11.884  1.00  0.00     0.264 C
HETATM   12  O5  UNL     1       4.308  18.545  11.501  1.00  0.00    -0.266 OA
ATOM     13  H4  UNL     1       1.873  18.129  13.530  1.00  0.00     0.163 HD
BRANCH  11  14
HETATM   14  C2  UNL     1       2.068  18.362  10.904  1.00  0.00     0.071 C
HETATM   15  C1  UNL     1       0.711  18.816  11.272  1.00  0.00     0.074 C
HETATM   16  N1  UNL     1       2.300  17.942   9.717  1.00  0.00    -0.357 N
ATOM     17  H1  UNL     1       3.252  17.640   9.511  1.00  0.00     0.162 HD
BRANCH  16  18
HETATM   18  C3  UNL     1       1.351  17.855   8.654  1.00  0.00     0.288 C
BRANCH  18  19
HETATM   19  O1  UNL     1       1.275  16.536   8.202  1.00  0.00    -0.369 OA
ATOM     20  H1  UNL     1       0.410  16.372   7.844  1.00  0.00     0.212 HD
ENDBRANCH  18  19
BRANCH  18  21
HETATM   21  C4  UNL     1       1.689  18.802   7.578  1.00  0.00     0.148 C
HETATM   22  N2  UNL     1       0.859  19.629   7.057  1.00  0.00    -0.253 N
ATOM     23  H2  UNL     1       1.220  20.232   6.318  1.00  0.00     0.195 HD
BRANCH  22  24
HETATM   24  O2  UNL     1      -0.444  19.788   7.382  1.00  0.00    -0.288 OA
ATOM     25  H2  UNL     1      -1.193  19.697   6.804  1.00  0.00     0.244 HD
ENDBRANCH  22  24
BRANCH  21  26
HETATM   26  N3  UNL     1       3.053  18.767   7.106  1.00  0.00    -0.347 N
ATOM     27  H3  UNL     1       3.812  18.958   7.760  1.00  0.00     0.163 HD
BRANCH  26  28
HETATM   28  C5  UNL     1       3.369  18.470   5.733  1.00  0.00     0.242 C
BRANCH  28  29
HETATM   29  O3  UNL     1       3.072  19.626   4.989  1.00  0.00    -0.375 OA
ATOM     30  H3  UNL     1       2.654  19.335   4.187  1.00  0.00     0.212 HD
ENDBRANCH  28  29
BRANCH  28  31
HETATM   31  C6  UNL     1       2.563  17.333   5.159  1.00  0.00     0.217 C
BRANCH  31  32
HETATM   32  O4  UNL     1       3.067  16.948   3.924  1.00  0.00    -0.397 OA
ATOM     33  H4  UNL     1       2.481  16.333   3.499  1.00  0.00     0.209 HD
ENDBRANCH  31  32
ENDBRANCH  28  31
ENDBRANCH  26  28
ENDBRANCH  21  26
ENDBRANCH  18  21
ENDBRANCH  16  18
ENDBRANCH  11  14
ENDBRANCH   1  10
BRANCH   9  34
HETATM   34  O9  UNL     1       2.085  19.408  15.472  1.00  0.00    -0.392 OA
ATOM     35  H9  UNL     1       1.563  18.803  14.959  1.00  0.00     0.210 HD
ENDBRANCH   9  34
BRANCH   5  36
HETATM   36  N5  UNL     1       2.693  17.100  17.924  1.00  0.00    -0.235 N
HETATM   37  N6  UNL     1       1.549  16.900  17.267  1.00  0.00    -0.289 N
HETATM   38  C12 UNL     1       0.533  16.681  18.064  1.00  0.00     0.199 A
ATOM     39  H6  UNL     1       1.473  16.915  16.250  1.00  0.00     0.188 HD
HETATM   40  N7  UNL     1       1.045  16.741  19.291  1.00  0.00    -0.333 N
HETATM   41  C13 UNL     1       2.376  17.000  19.206  1.00  0.00     0.179 A
ATOM     42  H7  UNL     1       0.523  16.613  20.157  1.00  0.00     0.168 HD
HETATM   43  C14 UNL     1       3.186  17.106  20.387  1.00  0.00     0.201 C
BRANCH  43  44
HETATM   44  O8  UNL     1       4.154  18.009  20.551  1.00  0.00    -0.342 OA
ATOM     45  H8  UNL     1       5.031  17.921  20.196  1.00  0.00     0.219 HD
ENDBRANCH  43  44
BRANCH  43  46
HETATM   46  N8  UNL     1       3.482  15.749  20.885  1.00  0.00    -0.283 N
ATOM     47  H8  UNL     1       3.880  15.003  20.315  1.00  0.00     0.188 HD
BRANCH  46  48
HETATM   48  N9  UNL     1       3.151  15.612  22.230  1.00  0.00    -0.343 N
ATOM     49  H92 UNL     1       3.726  15.979  22.988  1.00  0.00     0.176 HD
ATOM     50  H91 UNL     1       2.274  15.106  22.353  1.00  0.00     0.176 HD
ENDBRANCH  46  48
ENDBRANCH  43  46
ENDBRANCH   5  36
TORSDOF 16
ENDMDL