MODEL 4
REMARK VINA RESULT: -7.885422331      1.193      2.148
REMARK  16 active torsions:
REMARK  status: ('A' for Active; 'I' for Inactive)
REMARK    1  A    between atoms: C2_2  and  O1_3
REMARK    2  A    between atoms: N1_6  and  C4_7
REMARK    3  A    between atoms: C5_10  and  N3_11
REMARK    4  A    between atoms: C7_17  and  O2_18
REMARK    5  A    between atoms: O2_18  and  C8_19
REMARK    6  A    between atoms: C8_19  and  C9_21
REMARK    7  A    between atoms: C11_26  and  C12_27
REMARK    8  A    between atoms: C12_27  and  O5_28
REMARK    9  A    between atoms: C12_27  and  C13_30
REMARK   10  A    between atoms: C13_30  and  O6_31
REMARK   11  A    between atoms: C13_30  and  C14_33
REMARK   12  A    between atoms: C14_33  and  O7_34
REMARK   13  A    between atoms: C14_33  and  C15_36
REMARK   14  A    between atoms: C15_36  and  O8_37
REMARK   15  A    between atoms: C16_39  and  C17_40
REMARK   16  A    between atoms: C18_44  and  C19_45
ROOT
HETATM    1  C4  UNL     1       3.252  19.969  16.350  1.00  0.00     0.708 A
HETATM    2  N2  UNL     1       1.911  20.430  16.238  1.00  0.00    -0.022 N
ATOM      3  H2  UNL     1       1.401  20.630  17.099  1.00  0.00     0.203 HD
HETATM    4  C5  UNL     1       1.293  20.612  15.110  1.00  0.00     0.692 A
HETATM    5  N4  UNL     1       1.922  20.362  13.980  1.00  0.00    -0.172 N
ATOM      6  H4  UNL     1       1.455  20.497  13.084  1.00  0.00     0.186 HD
HETATM    7  C6  UNL     1       3.203  19.921  14.031  1.00  0.00     0.183 A
HETATM    8  C7  UNL     1       3.778  19.646  12.824  1.00  0.00     0.175 A
HETATM    9  C10 UNL     1       5.044  19.169  12.810  1.00  0.00     0.221 A
HETATM   10  O4  UNL     1       5.528  18.923  11.646  1.00  0.00    -0.284 OA
HETATM   11  C11 UNL     1       5.796  18.950  13.963  1.00  0.00     0.061 A
HETATM   12  C16 UNL     1       5.159  19.244  15.184  1.00  0.00     0.148 A
HETATM   13  N5  UNL     1       3.873  19.724  15.207  1.00  0.00    -0.121 N
ENDROOT
BRANCH   1  14
HETATM   14  N1  UNL     1       3.572  19.865  17.700  1.00  0.00    -0.172 N
HETATM   15  C3  UNL     1       3.284  18.700  18.456  1.00  0.00     0.215 C
HETATM   16  C2  UNL     1       3.563  18.854  19.933  1.00  0.00     0.175 C
HETATM   17  C1  UNL     1       3.855  17.473  20.545  1.00  0.00     0.080 C
HETATM   18  O13 UNL     1       4.625  19.639  20.257  1.00  0.00    -0.348 OA
HETATM   19  C20 UNL     1       4.654  20.875  19.695  1.00  0.00     0.236 C
HETATM   20  C18 UNL     1       3.902  21.043  18.443  1.00  0.00     0.129 C
BRANCH  16  21
HETATM   21  O1  UNL     1       2.419  19.290  20.592  1.00  0.00    -0.364 OA
ATOM     22  H1  UNL     1       2.681  19.357  21.502  1.00  0.00     0.213 HD
ENDBRANCH  16  21
BRANCH  20  23
HETATM   23  C19 UNL     1       4.379  22.256  17.724  1.00  0.00     0.225 C
HETATM   24  O11 UNL     1       3.478  23.122  17.207  1.00  0.00    -0.643 OA
HETATM   25  O12 UNL     1       5.462  22.901  18.360  1.00  0.00    -0.643 OA
ENDBRANCH  20  23
ENDBRANCH   1  14
BRANCH   4  26
HETATM   26  N3  UNL     1       0.072  21.035  15.071  1.00  0.00    -0.234 N
ATOM     27  H32 UNL     1      -0.640  20.546  15.613  1.00  0.00     0.174 HD
ATOM     28  H31 UNL     1      -0.193  21.844  14.508  1.00  0.00     0.174 HD
ENDBRANCH   4  26
BRANCH  12  29
HETATM   29  C17 UNL     1       5.843  18.773  16.319  1.00  0.00     0.228 C
HETATM   30  O9  UNL     1       5.948  17.795  16.985  1.00  0.00    -0.643 OA
HETATM   31  O10 UNL     1       6.754  19.821  16.859  1.00  0.00    -0.643 OA
ENDBRANCH  12  29
BRANCH   8  32
HETATM   32  O2  UNL     1       3.081  19.856  11.629  1.00  0.00    -0.266 OA
BRANCH  32  33
HETATM   33  C8  UNL     1       2.226  18.925  11.128  1.00  0.00     0.329 C
HETATM   34  O3  UNL     1       1.064  18.848  11.592  1.00  0.00    -0.259 OA
BRANCH  33  35
HETATM   35  C9  UNL     1       2.624  17.979  10.033  1.00  0.00     0.452 C
HETATM   36  F1  UNL     1       3.673  18.479   9.287  1.00  0.00    -0.203 F
HETATM   37  F2  UNL     1       3.042  16.784  10.588  1.00  0.00    -0.203 F
ENDBRANCH  33  35
ENDBRANCH  32  33
ENDBRANCH   8  32
BRANCH  11  38
HETATM   38  C12 UNL     1       7.154  18.481  13.748  1.00  0.00     0.189 C
BRANCH  38  39
HETATM   39  O5  UNL     1       8.035  19.323  14.487  1.00  0.00    -0.388 OA
ATOM     40  H5  UNL     1       8.857  18.860  14.603  1.00  0.00     0.210 HD
ENDBRANCH  38  39
BRANCH  38  41
HETATM   41  C13 UNL     1       7.612  17.122  14.043  1.00  0.00     0.182 C
BRANCH  41  42
HETATM   42  O6  UNL     1       8.947  16.906  13.593  1.00  0.00    -0.390 OA
ATOM     43  H6  UNL     1       9.267  17.635  13.076  1.00  0.00     0.210 HD
ENDBRANCH  41  42
BRANCH  41  44
HETATM   44  C14 UNL     1       6.723  16.048  13.374  1.00  0.00     0.173 C
BRANCH  44  45
HETATM   45  O7  UNL     1       7.497  15.319  12.501  1.00  0.00    -0.391 OA
ATOM     46  H7  UNL     1       7.825  14.551  12.954  1.00  0.00     0.210 HD
ENDBRANCH  44  45
BRANCH  44  47
HETATM   47  C15 UNL     1       5.848  15.281  14.265  1.00  0.00     0.198 C
BRANCH  47  48
HETATM   48  O8  UNL     1       4.996  14.388  13.629  1.00  0.00    -0.398 OA
ATOM     49  H8  UNL     1       4.078  14.473  13.859  1.00  0.00     0.209 HD
ENDBRANCH  47  48
ENDBRANCH  44  47
ENDBRANCH  41  44
ENDBRANCH  38  41
ENDBRANCH  11  38
TORSDOF 16
ENDMDL