MODEL 3
REMARK VINA RESULT: -9.139536788      0.959      1.222
REMARK  18 active torsions:
REMARK  status: ('A' for Active; 'I' for Inactive)
REMARK    1  A    between atoms: N1_2  and  C2_5
REMARK    2  A    between atoms: C3_7  and  C4_8
REMARK    3  A    between atoms: C5_12  and  N3_13
REMARK    4  A    between atoms: C6_19  and  N5_20
REMARK    5  A    between atoms: N6_24  and  C7_25
REMARK    6  A    between atoms: C8_28  and  C9_29
REMARK    7  A    between atoms: C9_29  and  N8_30
REMARK    8  A    between atoms: C9_29  and  N9_34
REMARK    9  A    between atoms: C10_38  and  C11_39
REMARK   10  A    between atoms: C11_39  and  O4_40
REMARK   11  A    between atoms: C11_39  and  N10_42
REMARK   12  A    between atoms: N10_42  and  C12_45
REMARK   13  A    between atoms: C12_45  and  C13_46
REMARK   14  A    between atoms: C13_46  and  C14_48
REMARK   15  A    between atoms: C14_48  and  C15_50
REMARK   16  A    between atoms: C15_50  and  O6_53
REMARK   17  A    between atoms: C18_56  and  O8_57
REMARK   18  A    between atoms: C20_60  and  N11_61
ROOT
HETATM    1  C2  UNL     1       2.768  17.318  17.535  1.00  0.00     0.334 C
HETATM    2  O1  UNL     1       3.547  17.937  18.479  1.00  0.00    -0.313 OA
HETATM    3  C3  UNL     1       4.022  19.142  17.952  1.00  0.00     0.261 C
HETATM    4  O3  UNL     1       5.377  19.096  17.950  1.00  0.00    -0.297 OA
HETATM    5  C6  UNL     1       6.057  19.099  16.754  1.00  0.00     0.436 C
HETATM    6  N6  UNL     1       5.499  18.308  15.724  1.00  0.00    -0.270 N
HETATM    7  C18 UNL     1       4.398  17.363  15.735  1.00  0.00     0.238 C
HETATM    8  C19 UNL     1       3.114  17.957  16.196  1.00  0.00     0.127 C
HETATM    9  C20 UNL     1       3.341  19.388  16.654  1.00  0.00     0.266 C
ENDROOT
BRANCH   6  10
HETATM   10  C7  UNL     1       6.112  18.447  14.424  1.00  0.00     0.232 A
HETATM   11  N7  UNL     1       7.443  18.636  14.230  1.00  0.00    -0.320 N
HETATM   12  C8  UNL     1       7.709  18.724  12.895  1.00  0.00     0.104 A
ATOM     13  H7  UNL     1       8.140  18.703  14.972  1.00  0.00     0.169 HD
HETATM   14  C10 UNL     1       6.492  18.581  12.280  1.00  0.00     0.139 A
HETATM   15  O7  UNL     1       5.582  18.423  13.238  1.00  0.00    -0.277 OA
BRANCH  12  16
HETATM   16  C9  UNL     1       9.084  18.892  12.372  1.00  0.00     0.430 C
BRANCH  16  17
HETATM   17  N8  UNL     1       9.141  19.279  11.004  1.00  0.00    -0.045 N
ATOM     18  H83 UNL     1       8.232  19.620  10.691  1.00  0.00     0.277 HD
ATOM     19  H82 UNL     1       9.690  20.132  10.896  1.00  0.00     0.277 HD
ATOM     20  H81 UNL     1       9.484  18.550  10.379  1.00  0.00     0.277 HD
ENDBRANCH  16  17
BRANCH  16  21
HETATM   21  N9  UNL     1       9.858  19.781  13.241  1.00  0.00    -0.045 N
ATOM     22  H93 UNL     1       9.274  20.212  13.958  1.00  0.00     0.277 HD
ATOM     23  H92 UNL     1      10.489  19.261  13.851  1.00  0.00     0.277 HD
ATOM     24  H91 UNL     1      10.355  20.478  12.687  1.00  0.00     0.277 HD
ENDBRANCH  16  21
ENDBRANCH  12  16
BRANCH  14  25
HETATM   25  C11 UNL     1       6.286  18.605  10.831  1.00  0.00     0.379 C
BRANCH  25  26
HETATM   26  O4  UNL     1       6.734  17.325  10.359  1.00  0.00    -0.365 OA
ATOM     27  H4  UNL     1       7.082  17.483   9.490  1.00  0.00     0.212 HD
ENDBRANCH  25  26
BRANCH  25  28
HETATM   28  N10 UNL     1       4.988  18.868  10.308  1.00  0.00    -0.040 N
ATOM     29 2H10 UNL     1       4.602  19.726  10.704  1.00  0.00     0.280 HD
ATOM     30 1H10 UNL     1       5.039  19.147   9.329  1.00  0.00     0.280 HD
BRANCH  28  31
HETATM   31  C12 UNL     1       4.075  17.758  10.485  1.00  0.00     0.281 C
BRANCH  31  32
HETATM   32  C13 UNL     1       2.670  18.314  10.677  1.00  0.00     0.268 C
HETATM   33  F1  UNL     1       2.772  19.704  10.796  1.00  0.00    -0.239 F
BRANCH  32  34
HETATM   34  C14 UNL     1       1.888  18.057   9.404  1.00  0.00     0.195 C
HETATM   35  O5  UNL     1       2.449  17.964   8.338  1.00  0.00    -0.291 OA
BRANCH  34  36
HETATM   36  C15 UNL     1       0.420  17.931   9.480  1.00  0.00     0.114 C
HETATM   37  C16 UNL     1      -0.044  16.538   9.180  1.00  0.00     0.054 C
HETATM   38  C17 UNL     1      -0.140  18.792   8.297  1.00  0.00     0.054 C
BRANCH  36  39
HETATM   39  O6  UNL     1      -0.090  18.443  10.669  1.00  0.00    -0.383 OA
ATOM     40  H6  UNL     1      -0.677  19.175  10.520  1.00  0.00     0.211 HD
ENDBRANCH  36  39
ENDBRANCH  34  36
ENDBRANCH  32  34
ENDBRANCH  31  32
ENDBRANCH  28  31
ENDBRANCH  25  28
ENDBRANCH  14  25
ENDBRANCH   6  10
BRANCH   5  41
HETATM   41  N5  UNL     1       6.452  20.440  16.369  1.00  0.00    -0.034 N
ATOM     42  H53 UNL     1       7.363  20.444  15.912  1.00  0.00     0.279 HD
ATOM     43  H52 UNL     1       5.885  20.788  15.595  1.00  0.00     0.279 HD
ATOM     44  H51 UNL     1       6.430  21.081  17.163  1.00  0.00     0.279 HD
ENDBRANCH   5  41
BRANCH   7  45
HETATM   45  O8  UNL     1       4.829  16.309  16.550  1.00  0.00    -0.376 OA
ATOM     46  H8  UNL     1       4.807  16.655  17.435  1.00  0.00     0.212 HD
ENDBRANCH   7  45
BRANCH   3  47
HETATM   47  C4  UNL     1       3.592  20.189  18.928  1.00  0.00     0.171 A
HETATM   48  N2  UNL     1       2.955  19.995  20.095  1.00  0.00    -0.240 N
HETATM   49  O2  UNL     1       2.769  21.161  20.668  1.00  0.00    -0.200 OA
ATOM     50  H2  UNL     1       2.666  19.094  20.472  1.00  0.00     0.196 HD
HETATM   51  C5  UNL     1       3.253  22.125  19.928  1.00  0.00     0.242 A
HETATM   52  N4  UNL     1       3.762  21.537  18.859  1.00  0.00    -0.304 N
ATOM     53  H4  UNL     1       4.218  22.027  18.089  1.00  0.00     0.171 HD
BRANCH  51  54
HETATM   54  N3  UNL     1       3.263  23.400  20.147  1.00  0.00    -0.364 N
ATOM     55  H32 UNL     1       3.636  23.844  20.985  1.00  0.00     0.159 HD
ATOM     56  H31 UNL     1       2.919  24.159  19.560  1.00  0.00     0.159 HD
ENDBRANCH  51  54
ENDBRANCH   3  47
BRANCH   1  57
HETATM   57  N1  UNL     1       1.357  17.352  17.800  1.00  0.00    -0.052 N
HETATM   58  C1  UNL     1       0.684  16.617  16.750  1.00  0.00     0.270 C
ATOM     59  H12 UNL     1       1.000  18.302  17.908  1.00  0.00     0.279 HD
ATOM     60  H11 UNL     1       1.122  17.011  18.732  1.00  0.00     0.279 HD
ENDBRANCH   1  57
BRANCH   9  61
HETATM   61  N11 UNL     1       2.050  20.012  16.731  1.00  0.00    -0.069 N
ATOM     62 3H11 UNL     1       1.648  20.092  15.798  1.00  0.00     0.275 HD
ATOM     63 2H11 UNL     1       1.383  19.375  17.166  1.00  0.00     0.275 HD
ATOM     64 1H11 UNL     1       2.020  20.918  17.200  1.00  0.00     0.275 HD
ENDBRANCH   9  61
TORSDOF 18
ENDMDL