MODEL 4
REMARK VINA RESULT: -8.267212157      2.872      5.166
REMARK  17 active torsions:
REMARK  status: ('A' for Active; 'I' for Inactive)
REMARK    1  A    between atoms: N5_15  and  C6_16
REMARK    2  A    between atoms: C6_16  and  O1_17
REMARK    3  A    between atoms: N7_28  and  C12_29
REMARK    4  A    between atoms: C12_29  and  C13_30
REMARK    5  A    between atoms: C13_30  and  O3_31
REMARK    6  A    between atoms: C13_30  and  C14_33
REMARK    7  A    between atoms: C13_30  and  C17_44
REMARK    8  A    between atoms: C14_33  and  O4_34
REMARK    9  A    between atoms: C14_33  and  C15_36
REMARK   10  A    between atoms: C15_36  and  N8_37
REMARK   11  A    between atoms: C15_36  and  C16_41
REMARK   12  A    between atoms: C16_41  and  O5_42
REMARK   13  A    between atoms: C17_44  and  O6_45
REMARK   14  A    between atoms: C17_44  and  C18_47
REMARK   15  A    between atoms: C18_47  and  O7_48
REMARK   16  A    between atoms: C18_47  and  C19_50
REMARK   17  A    between atoms: C19_50  and  O8_51
ROOT
HETATM    1  C6  UNL     1       3.946  18.326  13.570  1.00  0.00     0.150 C
HETATM    2  C7  UNL     1       2.952  18.101  14.722  1.00  0.00     0.069 C
HETATM    3  C8  UNL     1       2.870  19.621  14.772  1.00  0.00     0.031 C
HETATM    4  C9  UNL     1       1.585  20.213  15.187  1.00  0.00     0.163 C
HETATM    5 CL1  UNL     1       1.902  21.720  16.069  1.00  0.00    -0.116 Cl
HETATM    6  C10 UNL     1       0.592  20.393  14.112  1.00  0.00     0.198 C
HETATM    7  O2  UNL     1      -0.334  21.204  14.232  1.00  0.00    -0.289 OA
HETATM    8  C11 UNL     1       0.717  19.599  12.896  1.00  0.00     0.121 A
HETATM    9  N6  UNL     1      -0.135  19.106  11.990  1.00  0.00    -0.279 N
ATOM     10  H6  UNL     1      -1.145  19.240  12.033  1.00  0.00     0.189 HD
HETATM   11  N7  UNL     1       0.470  18.429  11.034  1.00  0.00    -0.230 N
HETATM   12  N9  UNL     1       1.774  18.507  11.368  1.00  0.00    -0.285 N
ATOM     13  H9  UNL     1       2.531  18.082  10.832  1.00  0.00     0.188 HD
HETATM   14  C20 UNL     1       1.947  19.208  12.487  1.00  0.00     0.068 A
HETATM   15  C21 UNL     1       3.138  19.610  13.303  1.00  0.00     0.102 C
ENDROOT
BRANCH  11  16
HETATM   16  C12 UNL     1       0.020  17.739   9.884  1.00  0.00     0.212 C
BRANCH  16  17
HETATM   17  C13 UNL     1       0.169  18.454   8.552  1.00  0.00     0.133 C
BRANCH  17  18
HETATM   18  O3  UNL     1       1.154  19.442   8.640  1.00  0.00    -0.383 OA
ATOM     19  H3  UNL     1       1.715  19.282   9.390  1.00  0.00     0.210 HD
ENDBRANCH  17  18
BRANCH  17  20
HETATM   20  C14 UNL     1       0.881  17.365   7.702  1.00  0.00     0.189 C
BRANCH  20  21
HETATM   21  O4  UNL     1       0.032  16.649   6.911  1.00  0.00    -0.390 OA
ATOM     22  H4  UNL     1      -0.244  15.826   7.296  1.00  0.00     0.210 HD
ENDBRANCH  20  21
BRANCH  20  23
HETATM   23  C15 UNL     1       2.116  17.762   7.027  1.00  0.00     0.238 C
BRANCH  23  24
HETATM   24  N8  UNL     1       2.543  19.115   7.085  1.00  0.00    -0.070 N
ATOM     25  H83 UNL     1       3.402  19.161   7.634  1.00  0.00     0.274 HD
ATOM     26  H82 UNL     1       2.879  19.390   6.162  1.00  0.00     0.274 HD
ATOM     27  H81 UNL     1       1.902  19.831   7.425  1.00  0.00     0.274 HD
ENDBRANCH  23  24
BRANCH  23  28
HETATM   28  C16 UNL     1       1.877  17.480   5.525  1.00  0.00     0.199 C
BRANCH  28  29
HETATM   29  O5  UNL     1       2.617  16.402   5.106  1.00  0.00    -0.399 OA
ATOM     30  H5  UNL     1       2.117  15.860   4.506  1.00  0.00     0.209 HD
ENDBRANCH  28  29
ENDBRANCH  23  28
ENDBRANCH  20  23
ENDBRANCH  17  20
BRANCH  17  31
HETATM   31  C17 UNL     1      -1.068  18.808   7.858  1.00  0.00     0.187 C
BRANCH  31  32
HETATM   32  O6  UNL     1      -2.129  18.842   8.798  1.00  0.00    -0.390 OA
ATOM     33  H6  UNL     1      -2.224  19.729   9.124  1.00  0.00     0.210 HD
ENDBRANCH  31  32
BRANCH  31  34
HETATM   34  C18 UNL     1      -1.166  19.996   7.002  1.00  0.00     0.173 C
BRANCH  34  35
HETATM   35  O7  UNL     1       0.001  20.402   6.385  1.00  0.00    -0.391 OA
ATOM     36  H7  UNL     1       0.503  21.072   6.834  1.00  0.00     0.210 HD
ENDBRANCH  34  35
BRANCH  34  37
HETATM   37  C19 UNL     1      -2.099  19.646   5.804  1.00  0.00     0.198 C
BRANCH  37  38
HETATM   38  O8  UNL     1      -2.368  18.298   5.817  1.00  0.00    -0.398 OA
ATOM     39  H8  UNL     1      -1.800  17.870   6.447  1.00  0.00     0.209 HD
ENDBRANCH  37  38
ENDBRANCH  34  37
ENDBRANCH  31  34
ENDBRANCH  17  31
ENDBRANCH  16  17
ENDBRANCH  11  16
BRANCH   1  40
HETATM   40  N5  UNL     1       5.276  18.568  14.041  1.00  0.00    -0.293 N
HETATM   41  C3  UNL     1       6.351  18.803  13.240  1.00  0.00     0.143 A
HETATM   42  N3  UNL     1       6.494  18.877  11.902  1.00  0.00    -0.336 N
HETATM   43  C4  UNL     1       7.459  18.992  14.025  1.00  0.00     0.122 A
HETATM   44  C2  UNL     1       7.685  19.127  11.333  1.00  0.00     0.183 A
ATOM     45  H3  UNL     1       5.678  18.739  11.305  1.00  0.00     0.168 HD
HETATM   46  N2  UNL     1       8.766  19.311  12.078  1.00  0.00    -0.337 N
HETATM   47  C1  UNL     1       8.689  19.251  13.415  1.00  0.00     0.131 A
ATOM     48  H2  UNL     1       9.664  19.499  11.630  1.00  0.00     0.168 HD
HETATM   49  N1  UNL     1       9.704  19.420  14.187  1.00  0.00    -0.383 N
ATOM     50  H12 UNL     1      10.602  19.610  13.741  1.00  0.00     0.157 HD
ATOM     51  H11 UNL     1       9.645  19.375  15.204  1.00  0.00     0.157 HD
HETATM   52  N4  UNL     1       7.062  18.871  15.285  1.00  0.00    -0.346 N
HETATM   53  C5  UNL     1       5.741  18.615  15.300  1.00  0.00     0.188 A
ATOM     54  H4  UNL     1       7.659  18.958  16.108  1.00  0.00     0.167 HD
ENDBRANCH   1  40
BRANCH   1  55
HETATM   55  O1  UNL     1       3.824  17.418  12.537  1.00  0.00    -0.369 OA
ATOM     56  H1  UNL     1       3.045  17.499  12.000  1.00  0.00     0.212 HD
ENDBRANCH   1  55
TORSDOF 17
ENDMDL