MODEL 1
REMARK VINA RESULT: -9.194226403      0.000      0.000
REMARK  18 active torsions:
REMARK  status: ('A' for Active; 'I' for Inactive)
REMARK    1  A    between atoms: C1_2  and  C2_4
REMARK    2  A    between atoms: C8_20  and  C9_21
REMARK    3  A    between atoms: C11_23  and  O2_24
REMARK    4  A    between atoms: C11_23  and  N7_26
REMARK    5  A    between atoms: N7_26  and  C12_28
REMARK    6  A    between atoms: C12_28  and  C13_29
REMARK    7  A    between atoms: C12_28  and  C14_32
REMARK    8  A    between atoms: C13_29  and  O3_30
REMARK    9  A    between atoms: C14_32  and  O4_33
REMARK   10  A    between atoms: C15_38  and  C16_39
REMARK   11  A    between atoms: C16_39  and  C17_40
REMARK   12  A    between atoms: C16_39  and  C18_43
REMARK   13  A    between atoms: C17_40  and  O6_41
REMARK   14  A    between atoms: C18_43  and  O7_44
REMARK   15  A    between atoms: C19_46  and  O8_47
REMARK   16  A    between atoms: C19_46  and  C20_49
REMARK   17  A    between atoms: C21_50  and  N9_51
REMARK   18  A    between atoms: N9_51  and  O9_53
ROOT
HETATM    1  C2  UNL     1       3.539  18.269  19.437  1.00  0.00     0.174 A
HETATM    2  N2  UNL     1       4.835  18.519  19.068  1.00  0.00    -0.314 N
ATOM      3  H2  UNL     1       5.580  18.543  19.763  1.00  0.00     0.170 HD
HETATM    4  C3  UNL     1       5.100  18.731  17.768  1.00  0.00     0.203 A
HETATM    5  F1  UNL     1       6.393  18.978  17.420  1.00  0.00    -0.185 F
HETATM    6  C4  UNL     1       4.100  18.694  16.841  1.00  0.00     0.081 A
HETATM    7  C5  UNL     1       2.798  18.451  17.207  1.00  0.00     0.095 A
HETATM    8  N3  UNL     1       2.581  18.243  18.518  1.00  0.00    -0.334 N
ATOM      9  H3  UNL     1       1.625  18.054  18.823  1.00  0.00     0.168 HD
HETATM   10  C6  UNL     1       1.789  18.579  16.175  1.00  0.00     0.156 A
HETATM   11  N4  UNL     1       0.456  18.357  16.291  1.00  0.00    -0.334 N
ATOM     12  H4  UNL     1      -0.032  18.075  17.141  1.00  0.00     0.168 HD
HETATM   13  C7  UNL     1      -0.106  18.570  15.096  1.00  0.00     0.199 A
HETATM   14  N5  UNL     1       0.887  18.911  14.289  1.00  0.00    -0.288 N
ATOM     15  H5  UNL     1       0.770  19.135  13.301  1.00  0.00     0.188 HD
HETATM   16  N6  UNL     1       2.045  18.924  14.917  1.00  0.00    -0.235 N
HETATM   17  C8  UNL     1       3.420  19.245  14.474  1.00  0.00     0.103 C
HETATM   18  C19 UNL     1       4.449  18.816  15.428  1.00  0.00     0.203 C
ENDROOT
BRANCH  17  19
HETATM   19  C9  UNL     1       3.573  20.488  13.744  1.00  0.00     0.062 A
HETATM   20  C10 UNL     1       3.067  21.739  14.078  1.00  0.00     0.120 A
HETATM   21  C11 UNL     1       2.286  22.237  15.166  1.00  0.00     0.166 C
HETATM   22  N8  UNL     1       3.358  22.594  13.010  1.00  0.00    -0.256 N
HETATM   23  O5  UNL     1       3.973  21.923  12.133  1.00  0.00    -0.236 OA
ATOM     24  H8  UNL     1       3.117  23.584  12.950  1.00  0.00     0.195 HD
HETATM   25  C15 UNL     1       4.155  20.652  12.477  1.00  0.00     0.120 A
BRANCH  21  26
HETATM   26  O2  UNL     1       1.101  21.565  15.490  1.00  0.00    -0.345 OA
ATOM     27  H2  UNL     1       0.326  22.085  15.668  1.00  0.00     0.219 HD
ENDBRANCH  21  26
BRANCH  21  28
HETATM   28  N7  UNL     1       2.911  22.672  16.386  1.00  0.00    -0.360 N
ATOM     29  H7  UNL     1       3.866  23.031  16.364  1.00  0.00     0.162 HD
BRANCH  28  30
HETATM   30  C12 UNL     1       2.229  22.608  17.595  1.00  0.00     0.130 C
BRANCH  30  31
HETATM   31  C13 UNL     1       1.828  24.019  18.042  1.00  0.00     0.191 C
BRANCH  31  32
HETATM   32  O3  UNL     1       0.646  23.997  18.777  1.00  0.00    -0.399 OA
ATOM     33  H3  UNL     1       0.179  24.820  18.700  1.00  0.00     0.209 HD
ENDBRANCH  31  32
ENDBRANCH  30  31
BRANCH  30  34
HETATM   34  C14 UNL     1       3.203  22.094  18.687  1.00  0.00     0.191 C
BRANCH  34  35
HETATM   35  O4  UNL     1       2.574  21.835  19.867  1.00  0.00    -0.399 OA
ATOM     36  H4  UNL     1       2.922  22.350  20.585  1.00  0.00     0.209 HD
ENDBRANCH  34  35
ENDBRANCH  30  34
ENDBRANCH  28  30
ENDBRANCH  21  28
BRANCH  25  37
HETATM   37  C16 UNL     1       4.874  19.697  11.646  1.00  0.00     0.003 C
BRANCH  37  38
HETATM   38  C17 UNL     1       3.924  18.912  10.728  1.00  0.00     0.203 C
BRANCH  38  39
HETATM   39  O6  UNL     1       4.655  18.016   9.992  1.00  0.00    -0.396 OA
ATOM     40  H6  UNL     1       4.061  17.486   9.472  1.00  0.00     0.209 HD
ENDBRANCH  38  39
ENDBRANCH  37  38
BRANCH  37  41
HETATM   41  C18 UNL     1       6.190  19.154  11.886  1.00  0.00     0.203 C
BRANCH  41  42
HETATM   42  O7  UNL     1       7.126  20.085  11.277  1.00  0.00    -0.396 OA
ATOM     43  H7  UNL     1       7.994  19.772  11.504  1.00  0.00     0.209 HD
ENDBRANCH  41  42
ENDBRANCH  37  41
ENDBRANCH  25  37
ENDBRANCH  17  19
BRANCH  18  44
HETATM   44  O8  UNL     1       5.592  19.584  15.283  1.00  0.00    -0.368 OA
ATOM     45  H8  UNL     1       5.784  19.717  14.361  1.00  0.00     0.212 HD
ENDBRANCH  18  44
BRANCH  18  46
HETATM   46  C20 UNL     1       4.949  17.412  15.130  1.00  0.00    -0.031 C
HETATM   47  C21 UNL     1       5.346  16.290  14.890  1.00  0.00     0.035 C
BRANCH  47  48
HETATM   48  N9  UNL     1       5.792  14.983  14.575  1.00  0.00    -0.226 N
ATOM     49  H9  UNL     1       6.548  14.574  15.123  1.00  0.00     0.204 HD
BRANCH  48  50
HETATM   50  O9  UNL     1       5.243  14.254  13.560  1.00  0.00    -0.282 OA
ATOM     51  H9  UNL     1       5.648  13.458  13.233  1.00  0.00     0.245 HD
ENDBRANCH  48  50
ENDBRANCH  47  48
ENDBRANCH  18  46
BRANCH   1  52
HETATM   52  C1  UNL     1       3.305  18.100  20.843  1.00  0.00     0.298 C
HETATM   53  N1  UNL     1       3.282  19.274  21.661  1.00  0.00    -0.054 NA
HETATM   54  O1  UNL     1       3.119  16.960  21.334  1.00  0.00    -0.268 OA
ENDBRANCH   1  52
TORSDOF 18
ENDMDL