MODEL 2
REMARK VINA RESULT: -9.155974380      1.766      2.045
REMARK  15 active torsions:
REMARK  status: ('A' for Active; 'I' for Inactive)
REMARK    1  A    between atoms: C2_2  and  N1_3
REMARK    2  A    between atoms: C2_2  and  C4_12
REMARK    3  A    between atoms: N1_3  and  C3_5
REMARK    4  A    between atoms: C5_17  and  C6_18
REMARK    5  A    between atoms: C6_18  and  N8_19
REMARK    6  A    between atoms: N8_19  and  C7_21
REMARK    7  A    between atoms: C8_22  and  N9_23
REMARK    8  A    between atoms: C10_28  and  N10_29
REMARK    9  A    between atoms: C11_33  and  O1_34
REMARK   10  A    between atoms: O1_34  and  C12_35
REMARK   11  A    between atoms: C12_35  and  C13_37
REMARK   12  A    between atoms: C14_39  and  O3_40
REMARK   13  A    between atoms: C15_42  and  N11_43
REMARK   14  A    between atoms: N11_43  and  C16_44
REMARK   15  A    between atoms: C18_48  and  C19_49
ROOT
HETATM    1  C4  UNL     1       1.055  19.494  13.975  1.00  0.00     0.090 A
HETATM    2  N6  UNL     1       0.123  19.481  13.092  1.00  0.00    -0.299 N
ATOM      3  H6  UNL     1      -0.830  19.800  13.264  1.00  0.00     0.186 HD
HETATM    4  N7  UNL     1       0.562  18.985  11.886  1.00  0.00    -0.299 N
ATOM      5  H7  UNL     1      -0.030  18.895  11.059  1.00  0.00     0.186 HD
HETATM    6  C5  UNL     1       1.787  18.653  11.917  1.00  0.00     0.085 A
HETATM    7  C15 UNL     1       2.256  18.955  13.313  1.00  0.00     0.160 A
ENDROOT
BRANCH   6   8
HETATM    8  C6  UNL     1       2.684  18.074  10.853  1.00  0.00     0.176 C
BRANCH   8   9
HETATM    9  N8  UNL     1       1.928  17.099  10.151  1.00  0.00    -0.407 N
ATOM     10  H8  UNL     1       1.584  16.254  10.608  1.00  0.00     0.154 HD
BRANCH   9  11
HETATM   11  C7  UNL     1       1.674  17.359   8.784  1.00  0.00     0.138 C
HETATM   12  C8  UNL     1       0.260  16.972   8.410  1.00  0.00     0.210 C
HETATM   13  C9  UNL     1      -0.071  17.363   6.988  1.00  0.00     0.070 C
HETATM   14  C10 UNL     1       1.102  17.820   6.185  1.00  0.00     0.217 C
HETATM   15  C11 UNL     1       2.010  18.789   6.855  1.00  0.00     0.193 C
HETATM   16  C14 UNL     1       1.837  18.800   8.379  1.00  0.00     0.174 C
BRANCH  12  17
HETATM   17  N9  UNL     1       0.094  15.554   8.633  1.00  0.00    -0.073 N
ATOM     18  H93 UNL     1       0.531  14.990   7.903  1.00  0.00     0.274 HD
ATOM     19  H92 UNL     1       0.645  15.215   9.421  1.00  0.00     0.274 HD
ATOM     20  H91 UNL     1      -0.901  15.354   8.737  1.00  0.00     0.274 HD
ENDBRANCH  12  17
BRANCH  14  21
HETATM   21  N10 UNL     1       1.774  16.655   5.637  1.00  0.00    -0.072 N
ATOM     22 3H10 UNL     1       1.119  15.948   5.302  1.00  0.00     0.274 HD
ATOM     23 2H10 UNL     1       2.236  16.852   4.749  1.00  0.00     0.274 HD
ATOM     24 1H10 UNL     1       2.417  16.288   6.338  1.00  0.00     0.274 HD
ENDBRANCH  14  21
BRANCH  15  25
HETATM   25  O1  UNL     1       3.357  18.408   6.542  1.00  0.00    -0.310 OA
BRANCH  25  26
HETATM   26  C12 UNL     1       4.213  19.176   5.801  1.00  0.00     0.273 C
HETATM   27  O2  UNL     1       5.370  18.775   5.584  1.00  0.00    -0.264 OA
BRANCH  26  28
HETATM   28  C13 UNL     1       3.833  20.501   5.222  1.00  0.00     0.225 C
HETATM   29 CL1  UNL     1       5.216  21.561   5.030  1.00  0.00    -0.120 Cl
ENDBRANCH  26  28
ENDBRANCH  25  26
ENDBRANCH  15  25
BRANCH  16  30
HETATM   30  O3  UNL     1       0.673  19.535   8.618  1.00  0.00    -0.391 OA
ATOM     31  H3  UNL     1       0.829  20.247   9.229  1.00  0.00     0.210 HD
ENDBRANCH  16  30
ENDBRANCH   9  11
ENDBRANCH   8   9
ENDBRANCH   6   8
BRANCH   7  32
HETATM   32  N11 UNL     1       3.397  18.770  13.672  1.00  0.00    -0.386 NA
BRANCH  32  33
HETATM   33  C16 UNL     1       4.461  18.647  14.460  1.00  0.00     0.178 C
HETATM   34  N12 UNL     1       5.234  19.613  14.923  1.00  0.00    -0.365 N
HETATM   35  C17 UNL     1       6.337  19.213  15.767  1.00  0.00     0.166 C
ATOM     36  H12 UNL     1       5.062  20.592  14.696  1.00  0.00     0.161 HD
HETATM   37  C18 UNL     1       5.849  18.345  16.927  1.00  0.00     0.303 C
HETATM   38  N13 UNL     1       4.974  17.294  16.425  1.00  0.00    -0.052 N
HETATM   39  C20 UNL     1       4.944  17.285  14.975  1.00  0.00     0.325 C
ATOM     40 2H13 UNL     1       5.232  16.381  16.800  1.00  0.00     0.278 HD
ATOM     41 1H13 UNL     1       4.036  17.366  16.819  1.00  0.00     0.278 HD
BRANCH  37  42
HETATM   42  C19 UNL     1       5.041  19.231  17.802  1.00  0.00     0.206 C
HETATM   43  O4  UNL     1       5.369  20.411  18.035  1.00  0.00    -0.646 OA
HETATM   44  O5  UNL     1       3.882  18.738  18.384  1.00  0.00    -0.646 OA
ENDBRANCH  37  42
ENDBRANCH  32  33
ENDBRANCH   7  32
BRANCH   1  45
HETATM   45  C2  UNL     1       0.974  19.951  15.384  1.00  0.00     0.135 C
HETATM   46  C1  UNL     1       1.563  21.303  15.633  1.00  0.00     0.039 C
BRANCH  45  47
HETATM   47  N1  UNL     1       1.656  18.996  16.240  1.00  0.00    -0.350 N
ATOM     48  H1  UNL     1       2.600  19.216  16.560  1.00  0.00     0.163 HD
BRANCH  47  49
HETATM   49  C3  UNL     1       1.071  17.765  16.655  1.00  0.00     0.206 C
HETATM   50  N2  UNL     1       0.539  16.850  15.919  1.00  0.00    -0.256 N
HETATM   51  N3  UNL     1       0.085  15.801  16.749  1.00  0.00    -0.006 NA
ATOM     52  H2  UNL     1       0.458  16.879  14.902  1.00  0.00     0.187 HD
HETATM   53  N4  UNL     1       0.478  16.033  18.065  1.00  0.00    -0.006 NA
HETATM   54  N5  UNL     1       0.977  17.330  18.009  1.00  0.00    -0.256 N
ATOM     55  H5  UNL     1       1.239  17.890  18.822  1.00  0.00     0.187 HD
ENDBRANCH  47  49
ENDBRANCH  45  47
ENDBRANCH   1  45
TORSDOF 15
ENDMDL