MODEL 4
REMARK VINA RESULT: -8.856082943      4.308      8.272
REMARK  14 active torsions:
REMARK  status: ('A' for Active; 'I' for Inactive)
REMARK       I    between atoms: C1_2  and  N2_4
REMARK    1  A    between atoms: N2_4  and  N3_6
REMARK       I    between atoms: N3_6  and  C2_8
REMARK       I    between atoms: C2_8  and  N4_10
REMARK    2  A    between atoms: N4_10  and  N5_12
REMARK    3  A    between atoms: N5_12  and  C3_13
REMARK    4  A    between atoms: C3_13  and  O3_14
REMARK    5  A    between atoms: C3_13  and  O4_16
REMARK    6  A    between atoms: O4_16  and  C4_17
REMARK    7  A    between atoms: C4_17  and  C5_18
REMARK    8  A    between atoms: C6_20  and  N6_21
REMARK    9  A    between atoms: N10_30  and  O6_31
REMARK   10  A    between atoms: C11_38  and  O8_39
REMARK   11  A    between atoms: C11_38  and  S1_41
REMARK   12  A    between atoms: S1_41  and  C12_42
REMARK   13  A    between atoms: C12_42  and  C13_43
REMARK   14  A    between atoms: C14_49  and  C15_50
ROOT
HETATM    1  C5  UNL     1       3.399  20.020  11.666  1.00  0.00     0.204 C
HETATM    2  O5  UNL     1       3.105  18.919  10.932  1.00  0.00    -0.337 OA
HETATM    3  C6  UNL     1       1.854  18.416  10.915  1.00  0.00     0.341 C
HETATM    4  N11 UNL     1       1.027  18.781  12.045  1.00  0.00    -0.314 N
ATOM      5  H11 UNL     1       0.011  18.728  11.981  1.00  0.00     0.167 HD
HETATM    6  C10 UNL     1       1.645  19.210  13.233  1.00  0.00     0.269 C
HETATM    7  O7  UNL     1       1.219  18.899  14.384  1.00  0.00    -0.269 OA
HETATM    8  C11 UNL     1       2.872  20.082  13.063  1.00  0.00     0.216 C
ENDROOT
BRANCH   1   9
HETATM    9  C4  UNL     1       4.931  20.054  11.779  1.00  0.00     0.209 C
BRANCH   9  10
HETATM   10  O4  UNL     1       5.468  18.809  11.468  1.00  0.00    -0.344 OA
BRANCH  10  11
HETATM   11  C3  UNL     1       6.817  18.841  11.845  1.00  0.00     0.378 C
BRANCH  11  12
HETATM   12  N5  UNL     1       6.909  18.858  13.288  1.00  0.00    -0.077 NA
BRANCH  12  13
HETATM   13  N4  UNL     1       6.314  17.775  13.894  1.00  0.00    -0.250 N
HETATM   14  C2  UNL     1       5.941  17.849  15.254  1.00  0.00     0.350 C
HETATM   15  N3  UNL     1       5.321  16.708  15.861  1.00  0.00    -0.247 N
HETATM   16  O2  UNL     1       6.142  18.879  15.914  1.00  0.00    -0.244 OA
ATOM     17  H3  UNL     1       5.161  15.868  15.306  1.00  0.00     0.192 HD
ATOM     18  H4  UNL     1       6.145  16.921  13.363  1.00  0.00     0.187 HD
BRANCH  15  19
HETATM   19  N2  UNL     1       4.934  16.732  17.201  1.00  0.00    -0.250 N
HETATM   20  C1  UNL     1       3.600  17.086  17.577  1.00  0.00     0.347 C
HETATM   21  N1  UNL     1       3.208  17.110  18.938  1.00  0.00    -0.038 NA
HETATM   22  O1  UNL     1       2.777  17.378  16.667  1.00  0.00    -0.249 OA
ATOM     23  H2  UNL     1       5.613  16.492  17.924  1.00  0.00     0.191 HD
ENDBRANCH  15  19
ENDBRANCH  12  13
ENDBRANCH  11  12
BRANCH  11  24
HETATM   24  O3  UNL     1       7.431  20.013  11.371  1.00  0.00    -0.357 OA
ATOM     25  H3  UNL     1       7.129  20.153  10.482  1.00  0.00     0.214 HD
ENDBRANCH  11  24
ENDBRANCH  10  11
ENDBRANCH   9  10
ENDBRANCH   1   9
BRANCH   8  26
HETATM   26  O8  UNL     1       3.789  19.641  14.006  1.00  0.00    -0.369 OA
ATOM     27  H8  UNL     1       3.530  18.827  14.421  1.00  0.00     0.212 HD
ENDBRANCH   8  26
BRANCH   8  28
HETATM   28  S1  UNL     1       2.339  21.750  13.474  1.00  0.00    -0.113 SA
BRANCH  28  29
HETATM   29  C12 UNL     1       1.293  21.862  14.921  1.00  0.00     0.139 C
BRANCH  29  30
HETATM   30  C13 UNL     1       2.000  21.638  16.207  1.00  0.00     0.073 A
HETATM   31  N12 UNL     1       2.656  20.538  16.645  1.00  0.00    -0.243 N
HETATM   32  O9  UNL     1       3.098  20.780  17.824  1.00  0.00    -0.157 OA
ATOM     33  H12 UNL     1       2.777  19.668  16.128  1.00  0.00     0.196 HD
HETATM   34  N13 UNL     1       2.780  21.978  18.208  1.00  0.00    -0.238 N
HETATM   35  C14 UNL     1       2.076  22.576  17.214  1.00  0.00     0.123 A
ATOM     36  H13 UNL     1       3.018  22.399  19.106  1.00  0.00     0.196 HD
BRANCH  35  37
HETATM   37  C15 UNL     1       1.525  23.957  17.245  1.00  0.00     0.407 C
HETATM   38  F1  UNL     1       2.481  24.932  17.286  1.00  0.00    -0.207 F
HETATM   39  F2  UNL     1       0.643  24.165  18.279  1.00  0.00    -0.207 F
ENDBRANCH  35  37
ENDBRANCH  29  30
ENDBRANCH  28  29
ENDBRANCH   8  28
BRANCH   3  40
HETATM   40  N6  UNL     1       1.127  18.586   9.684  1.00  0.00    -0.278 N
HETATM   41  C7  UNL     1      -0.188  18.637   9.421  1.00  0.00     0.191 A
HETATM   42  N7  UNL     1      -0.384  18.812   8.102  1.00  0.00    -0.334 N
HETATM   43  C8  UNL     1       0.799  18.876   7.505  1.00  0.00     0.171 A
ATOM     44  H7  UNL     1      -1.291  18.884   7.638  1.00  0.00     0.168 HD
HETATM   45  N8  UNL     1       1.493  19.019   6.350  1.00  0.00    -0.266 N
HETATM   46  C9  UNL     1       1.744  18.736   8.484  1.00  0.00     0.205 A
HETATM   47  N9  UNL     1       2.786  18.971   6.598  1.00  0.00    -0.213 N
ATOM     48  H8  UNL     1       1.078  19.145   5.427  1.00  0.00     0.190 HD
HETATM   49  N10 UNL     1       2.973  18.799   7.892  1.00  0.00    -0.127 N
ATOM     50  H9  UNL     1       3.526  19.054   5.901  1.00  0.00     0.211 HD
BRANCH  49  51
HETATM   51  O6  UNL     1       4.195  18.700   8.538  1.00  0.00    -0.265 OA
ATOM     52  H6  UNL     1       5.004  18.375   8.162  1.00  0.00     0.247 HD
ENDBRANCH  49  51
ENDBRANCH   3  40
TORSDOF 14
ENDMDL