MODEL 3
REMARK VINA RESULT: -8.799326792      0.894      1.124
REMARK  14 active torsions:
REMARK  status: ('A' for Active; 'I' for Inactive)
REMARK    1  A    between atoms: C4_4  and  O1_5
REMARK    2  A    between atoms: N1_7  and  C5_8
REMARK    3  A    between atoms: C5_8  and  C6_9
REMARK    4  A    between atoms: C6_9  and  N2_10
REMARK    5  A    between atoms: C7_12  and  C8_13
REMARK    6  A    between atoms: C7_12  and  C9_15
REMARK       I    between atoms: C9_15  and  N3_17
REMARK    7  A    between atoms: N3_17  and  N4_19
REMARK       I    between atoms: N4_19  and  C10_21
REMARK       I    between atoms: C10_21  and  N5_23
REMARK    8  A    between atoms: C11_26  and  C12_27
REMARK    9  A    between atoms: C16_38  and  C17_39
REMARK   10  A    between atoms: N11_41  and  C19_42
REMARK   11  A    between atoms: C19_42  and  C20_43
REMARK   12  A    between atoms: C20_43  and  O5_44
REMARK   13  A    between atoms: C21_50  and  O6_51
REMARK   14  A    between atoms: C22_53  and  O7_54
ROOT
HETATM    1  N4  UNL     1       3.033   7.638   3.931  1.00  0.00    -0.247 N
ATOM      2  H4  UNL     1       3.424   8.338   4.562  1.00  0.00     0.192 HD
HETATM    3  C10 UNL     1       2.178   6.686   4.493  1.00  0.00     0.362 C
HETATM    4  O4  UNL     1       1.695   5.805   3.739  1.00  0.00    -0.243 OA
HETATM    5  N5  UNL     1       1.819   6.654   5.862  1.00  0.00    -0.180 N
HETATM    6  N6  UNL     1       0.994   5.769   6.453  1.00  0.00    -0.285 N
ATOM      7  H6  UNL     1       0.539   5.000   5.961  1.00  0.00     0.188 HD
HETATM    8  C11 UNL     1       0.842   6.011   7.742  1.00  0.00     0.094 A
HETATM    9  C16 UNL     1       1.596   7.109   8.051  1.00  0.00     0.077 A
HETATM   10  C21 UNL     1       2.192   7.487   6.860  1.00  0.00     0.181 A
ENDROOT
BRANCH  10  11
HETATM   11  O6  UNL     1       3.041   8.589   6.806  1.00  0.00    -0.344 OA
ATOM     12  H6  UNL     1       3.950   8.655   7.075  1.00  0.00     0.219 HD
ENDBRANCH  10  11
BRANCH   1  13
HETATM   13  N3  UNL     1       3.397   7.718   2.594  1.00  0.00    -0.261 N
HETATM   14  C9  UNL     1       4.535   8.274   2.042  1.00  0.00     0.289 C
HETATM   15  O3  UNL     1       5.485   8.813   2.650  1.00  0.00    -0.264 OA
ATOM     16  H3  UNL     1       2.737   7.313   1.931  1.00  0.00     0.190 HD
BRANCH  14  17
HETATM   17  C7  UNL     1       4.654   8.245   0.524  1.00  0.00     0.140 C
HETATM   18  N2  UNL     1       4.506   7.051  -0.097  1.00  0.00    -0.361 N
ATOM     19  H2  UNL     1       5.372   6.701  -0.509  1.00  0.00     0.165 HD
BRANCH  18  20
HETATM   20  C6  UNL     1       3.441   6.217  -0.288  1.00  0.00     0.081 C
BRANCH  20  21
HETATM   21  C5  UNL     1       3.625   4.734  -0.344  1.00  0.00     0.177 C
BRANCH  21  22
HETATM   22  N1  UNL     1       2.422   4.074   0.190  1.00  0.00    -0.303 N
HETATM   23  C4  UNL     1       1.283   3.891  -0.445  1.00  0.00     0.144 A
HETATM   24  C3  UNL     1       0.396   3.234   0.426  1.00  0.00     0.067 A
HETATM   25  C2  UNL     1       1.082   3.045   1.602  1.00  0.00    -0.007 A
HETATM   26  C1  UNL     1       0.529   2.385   2.820  1.00  0.00     0.052 C
HETATM   27  C22 UNL     1       2.350   3.575   1.441  1.00  0.00     0.150 A
BRANCH  23  28
HETATM   28  O1  UNL     1       0.918   4.241  -1.730  1.00  0.00    -0.346 OA
ATOM     29  H1  UNL     1       0.983   5.135  -2.045  1.00  0.00     0.219 HD
ENDBRANCH  23  28
BRANCH  27  30
HETATM   30  O7  UNL     1       3.327   3.566   2.416  1.00  0.00    -0.345 OA
ATOM     31  H7  UNL     1       4.238   3.348   2.259  1.00  0.00     0.219 HD
ENDBRANCH  27  30
ENDBRANCH  21  22
ENDBRANCH  20  21
ENDBRANCH  18  20
BRANCH  17  32
HETATM   32  C8  UNL     1       3.957   9.414  -0.042  1.00  0.00     0.293 C
HETATM   33  O2  UNL     1       2.983   9.974   0.383  1.00  0.00    -0.300 OA
ENDBRANCH  17  32
ENDBRANCH  14  17
ENDBRANCH   1  13
BRANCH   8  34
HETATM   34  C12 UNL     1       0.004   5.225   8.668  1.00  0.00     0.096 A
HETATM   35  C13 UNL     1       0.428   4.248   9.541  1.00  0.00     0.167 A
HETATM   36  N7  UNL     1      -0.655   3.755  10.223  1.00  0.00    -0.094 N
HETATM   37  N8  UNL     1      -1.009   2.875  11.149  1.00  0.00    -0.275 N
HETATM   38  C15 UNL     1      -1.723   4.426   9.768  1.00  0.00     0.704 A
HETATM   39  C14 UNL     1      -2.333   2.964  11.310  1.00  0.00     0.215 A
ATOM     40  H8  UNL     1      -0.383   2.243  11.649  1.00  0.00     0.189 HD
HETATM   41  N9  UNL     1      -2.763   3.913  10.462  1.00  0.00    -0.185 N
ATOM     42  H9  UNL     1      -3.734   4.206  10.357  1.00  0.00     0.185 HD
HETATM   43  N10 UNL     1      -1.318   5.310   8.833  1.00  0.00    -0.186 N
ATOM     44  H10 UNL     1      -1.932   5.948   8.326  1.00  0.00     0.184 HD
ENDBRANCH   8  34
BRANCH   9  45
HETATM   45  C17 UNL     1       1.735   7.730   9.352  1.00  0.00     0.083 A
HETATM   46  C18 UNL     1       2.653   7.453  10.353  1.00  0.00     0.143 A
HETATM   47  N11 UNL     1       2.418   8.263  11.372  1.00  0.00    -0.285 N
HETATM   48  N12 UNL     1       1.404   9.026  11.052  1.00  0.00    -0.240 N
HETATM   49  N13 UNL     1       0.970   8.734   9.850  1.00  0.00    -0.284 N
ATOM     50  H12 UNL     1       1.008   9.748  11.654  1.00  0.00     0.208 HD
ATOM     51  H13 UNL     1       0.190   9.183   9.371  1.00  0.00     0.188 HD
BRANCH  47  52
HETATM   52  C19 UNL     1       3.089   8.378  12.661  1.00  0.00     0.175 C
BRANCH  52  53
HETATM   53  C20 UNL     1       2.593   7.280  13.572  1.00  0.00     0.185 C
BRANCH  53  54
HETATM   54  O5  UNL     1       1.192   7.254  13.568  1.00  0.00    -0.399 OA
ATOM     55  H5  UNL     1       0.872   6.980  14.419  1.00  0.00     0.209 HD
ENDBRANCH  53  54
ENDBRANCH  52  53
ENDBRANCH  47  52
ENDBRANCH   9  45
TORSDOF 14
ENDMDL