MODEL 4
REMARK VINA RESULT: -8.831128612      2.619      4.549
REMARK  14 active torsions:
REMARK  status: ('A' for Active; 'I' for Inactive)
REMARK    1  A    between atoms: C2_2  and  O1_3
REMARK    2  A    between atoms: C2_2  and  C3_5
REMARK    3  A    between atoms: C3_5  and  O2_6
REMARK    4  A    between atoms: O2_6  and  C4_7
REMARK    5  A    between atoms: C7_10  and  N1_11
REMARK    6  A    between atoms: C10_16  and  C11_17
REMARK    7  A    between atoms: C11_17  and  N3_18
REMARK    8  A    between atoms: C11_17  and  C20_52
REMARK    9  A    between atoms: N3_18  and  N4_20
REMARK   10  A    between atoms: N5_22  and  C12_24
REMARK   11  A    between atoms: C13_27  and  N7_28
REMARK   12  A    between atoms: N7_28  and  N8_30
REMARK   13  A    between atoms: C18_38  and  N11_39
REMARK       I    between atoms: N11_39  and  C19_41
REMARK       I    between atoms: C19_41  and  N12_42
REMARK       I    between atoms: C19_41  and  N13_46
REMARK   14  A    between atoms: C20_52  and  N15_55
ROOT
HETATM    1  N4  UNL     1       0.838   4.552   6.558  1.00  0.00    -0.228 N
ATOM      2  H4  UNL     1       1.769   4.199   6.775  1.00  0.00     0.209 HD
HETATM    3  N5  UNL     1       0.693   5.177   5.478  1.00  0.00    -0.117 N
ATOM      4  H5  UNL     1      -0.242   5.526   5.270  1.00  0.00     0.207 HD
ENDROOT
BRANCH   1   5
HETATM    5  N3  UNL     1      -0.171   4.306   7.479  1.00  0.00    -0.285 N
ATOM      6  H3  UNL     1      -0.576   3.370   7.508  1.00  0.00     0.188 HD
BRANCH   5   7
HETATM    7  C11 UNL     1      -0.677   5.293   8.393  1.00  0.00     0.090 C
BRANCH   7   8
HETATM    8  C10 UNL     1      -0.063   5.322   9.728  1.00  0.00     0.084 A
HETATM    9  N1  UNL     1       0.540   6.259  10.449  1.00  0.00    -0.289 N
HETATM   10  C8  UNL     1       0.936   5.706  11.632  1.00  0.00     0.190 A
HETATM   11  N2  UNL     1       0.599   4.436  11.687  1.00  0.00    -0.359 N
HETATM   12  C9  UNL     1      -0.016   4.164  10.536  1.00  0.00     0.121 A
ATOM     13  H2  UNL     1       0.774   3.789  12.455  1.00  0.00     0.166 HD
BRANCH   9  14
HETATM   14  C7  UNL     1       0.761   7.622  10.088  1.00  0.00     0.128 A
HETATM   15  C6  UNL     1       1.967   8.005   9.542  1.00  0.00     0.054 A
HETATM   16  C5  UNL     1       2.220   9.302   9.146  1.00  0.00     0.061 A
HETATM   17  C4  UNL     1       1.222  10.262   9.302  1.00  0.00     0.157 A
HETATM   18  N17 UNL     1       0.065   9.843   9.838  1.00  0.00    -0.278 N
HETATM   19  N16 UNL     1      -0.136   8.611  10.200  1.00  0.00    -0.283 N
ATOM     20  H17 UNL     1      -0.687  10.520   9.968  1.00  0.00     0.189 HD
ATOM     21  H16 UNL     1      -1.046   8.380  10.598  1.00  0.00     0.188 HD
BRANCH  17  22
HETATM   22  O2  UNL     1       1.425  11.579   8.920  1.00  0.00    -0.332 OA
BRANCH  22  23
HETATM   23  C3  UNL     1       0.440  12.496   8.573  1.00  0.00     0.208 C
BRANCH  23  24
HETATM   24  C2  UNL     1       0.006  13.437   9.648  1.00  0.00     0.138 C
HETATM   25  C1  UNL     1       1.261  14.190  10.111  1.00  0.00     0.041 C
BRANCH  24  26
HETATM   26  O1  UNL     1      -0.513  12.826  10.772  1.00  0.00    -0.394 OA
ATOM     27  H1  UNL     1       0.227  12.455  11.238  1.00  0.00     0.210 HD
ENDBRANCH  24  26
ENDBRANCH  23  24
ENDBRANCH  22  23
ENDBRANCH  17  22
ENDBRANCH   9  14
ENDBRANCH   7   8
BRANCH   7  28
HETATM   28  C20 UNL     1      -2.137   5.570   8.325  1.00  0.00     0.162 C
HETATM   29  C21 UNL     1      -2.446   7.000   7.922  1.00  0.00     0.053 C
HETATM   30  C22 UNL     1      -2.948   4.667   7.443  1.00  0.00     0.053 C
BRANCH  28  31
HETATM   31  N15 UNL     1      -2.765   5.429   9.660  1.00  0.00    -0.065 N
ATOM     32 3H15 UNL     1      -3.777   5.325   9.590  1.00  0.00     0.275 HD
ATOM     33 2H15 UNL     1      -2.546   4.529  10.086  1.00  0.00     0.275 HD
ATOM     34 1H15 UNL     1      -2.508   6.206  10.268  1.00  0.00     0.275 HD
ENDBRANCH  28  31
ENDBRANCH   7  28
ENDBRANCH   5   7
ENDBRANCH   1   5
BRANCH   3  35
HETATM   35  C12 UNL     1       1.688   5.440   4.536  1.00  0.00     0.701 A
HETATM   36  N6  UNL     1       2.095   6.708   4.347  1.00  0.00    -0.174 N
HETATM   37  C13 UNL     1       3.038   7.074   3.478  1.00  0.00     0.139 A
ATOM     38  H6  UNL     1       1.654   7.438   4.906  1.00  0.00     0.186 HD
HETATM   39  C17 UNL     1       3.624   6.073   2.731  1.00  0.00     0.099 A
HETATM   40  C18 UNL     1       3.238   4.753   2.889  1.00  0.00     0.123 A
HETATM   41  N14 UNL     1       2.274   4.482   3.796  1.00  0.00    -0.175 N
ATOM     42  H14 UNL     1       1.979   3.514   3.924  1.00  0.00     0.186 HD
BRANCH  37  43
HETATM   43  N7  UNL     1       3.431   8.429   3.319  1.00  0.00    -0.280 N
ATOM     44  H7  UNL     1       4.191   8.631   2.668  1.00  0.00     0.189 HD
BRANCH  43  45
HETATM   45  N8  UNL     1       2.856   9.491   3.983  1.00  0.00    -0.262 N
HETATM   46  C14 UNL     1       2.787   9.714   5.414  1.00  0.00     0.171 C
HETATM   47  C15 UNL     1       1.535  10.559   5.541  1.00  0.00     0.144 C
HETATM   48  N9  UNL     1       1.452  11.212   4.267  1.00  0.00    -0.362 N
HETATM   49  C16 UNL     1       2.200  10.606   3.387  1.00  0.00     0.205 C
ATOM     50  H9  UNL     1       0.885  12.038   4.074  1.00  0.00     0.162 HD
HETATM   51  N10 UNL     1       2.311  11.041   2.029  1.00  0.00    -0.062 NA
ENDBRANCH  43  45
ENDBRANCH  37  43
BRANCH  40  52
HETATM   52  N11 UNL     1       3.780   3.815   2.196  1.00  0.00    -0.327 N
HETATM   53  C19 UNL     1       4.024   3.986   0.780  1.00  0.00     0.481 C
HETATM   54  N12 UNL     1       4.882   2.875   0.349  1.00  0.00    -0.033 N
HETATM   55  N13 UNL     1       2.785   3.857   0.031  1.00  0.00    -0.033 N
ATOM     56 3H12 UNL     1       5.740   2.798   0.895  1.00  0.00     0.278 HD
ATOM     57 2H12 UNL     1       4.495   1.959   0.580  1.00  0.00     0.278 HD
ATOM     58 1H12 UNL     1       5.053   2.996  -0.649  1.00  0.00     0.278 HD
ATOM     59 3H13 UNL     1       2.310   2.976   0.230  1.00  0.00     0.278 HD
ATOM     60 2H13 UNL     1       2.067   4.496   0.372  1.00  0.00     0.278 HD
ATOM     61 1H13 UNL     1       2.956   3.978  -0.967  1.00  0.00     0.278 HD
ATOM     62  H11 UNL     1       4.041   2.939   2.650  1.00  0.00     0.164 HD
ENDBRANCH  40  52
ENDBRANCH   3  35
TORSDOF 14
ENDMDL