MODEL 2
REMARK VINA RESULT: -9.073792467      4.011      9.030
REMARK  17 active torsions:
REMARK  status: ('A' for Active; 'I' for Inactive)
REMARK    1  A    between atoms: O1_2  and  C2_3
REMARK    2  A    between atoms: C4_5  and  N1_6
REMARK    3  A    between atoms: C5_11  and  C6_12
REMARK    4  A    between atoms: C6_12  and  N4_13
REMARK    5  A    between atoms: N4_13  and  C7_15
REMARK    6  A    between atoms: C7_15  and  O2_16
REMARK    7  A    between atoms: C7_15  and  C8_18
REMARK    8  A    between atoms: C10_22  and  C11_23
REMARK    9  A    between atoms: C11_23  and  N6_24
REMARK   10  A    between atoms: N6_24  and  C12_26
REMARK   11  A    between atoms: C16_33  and  N8_34
REMARK   12  A    between atoms: C17_37  and  C18_38
REMARK   13  A    between atoms: C18_38  and  N9_39
REMARK   14  A    between atoms: C18_38  and  O5_43
REMARK   15  A    between atoms: C18_38  and  C19_45
REMARK       I    between atoms: C19_45  and  N10_47
REMARK   16  A    between atoms: N10_47  and  N11_49
REMARK   17  A    between atoms: C20_52  and  O7_53
ROOT
HETATM    1  C2  UNL     1       1.580   8.293   6.423  1.00  0.00     0.104 A
HETATM    2  C3  UNL     1       1.525   7.158   5.677  1.00  0.00     0.075 A
HETATM    3  C4  UNL     1       0.771   6.058   6.052  1.00  0.00     0.113 A
HETATM    4  C16 UNL     1       0.055   6.158   7.231  1.00  0.00     0.147 A
HETATM    5  C17 UNL     1       0.059   7.277   8.047  1.00  0.00     0.085 A
HETATM    6  C20 UNL     1       0.857   8.345   7.594  1.00  0.00     0.113 A
ENDROOT
BRANCH   3   7
HETATM    7  N1  UNL     1       0.876   4.870   5.295  1.00  0.00    -0.178 N
HETATM    8  N2  UNL     1       1.172   3.687   5.869  1.00  0.00    -0.219 N
HETATM    9  N3  UNL     1       1.128   2.718   5.006  1.00  0.00    -0.270 N
ATOM     10  H2  UNL     1       1.402   3.568   6.856  1.00  0.00     0.210 HD
HETATM   11  C5  UNL     1       0.785   3.268   3.799  1.00  0.00     0.131 A
ATOM     12  H3  UNL     1       1.315   1.733   5.192  1.00  0.00     0.190 HD
HETATM   13  N7  UNL     1       0.652   4.563   4.036  1.00  0.00    -0.264 N
ATOM     14  H7  UNL     1       0.404   5.248   3.321  1.00  0.00     0.190 HD
BRANCH  11  15
HETATM   15  C6  UNL     1       0.529   2.364   2.659  1.00  0.00     0.196 C
BRANCH  15  16
HETATM   16  N4  UNL     1       0.266   3.131   1.452  1.00  0.00    -0.386 N
ATOM     17  H4  UNL     1      -0.537   3.753   1.365  1.00  0.00     0.156 HD
BRANCH  16  18
HETATM   18  C7  UNL     1       1.206   2.955   0.405  1.00  0.00     0.256 C
BRANCH  18  19
HETATM   19  O2  UNL     1       0.517   3.066  -0.835  1.00  0.00    -0.372 OA
ATOM     20  H2  UNL     1       1.136   2.894  -1.535  1.00  0.00     0.212 HD
ENDBRANCH  18  19
BRANCH  18  21
HETATM   21  C8  UNL     1       2.399   3.782   0.354  1.00  0.00     0.047 A
HETATM   22  C9  UNL     1       3.699   3.274   0.521  1.00  0.00     0.107 A
HETATM   23  N5  UNL     1       4.671   4.093   0.371  1.00  0.00    -0.361 N
HETATM   24  C10 UNL     1       4.466   5.361   0.072  1.00  0.00     0.068 A
ATOM     25  H5  UNL     1       5.627   3.757   0.487  1.00  0.00     0.165 HD
HETATM   26  S1  UNL     1       2.759   5.394   0.003  1.00  0.00    -0.074 SA
BRANCH  24  27
HETATM   27  C11 UNL     1       5.506   6.436  -0.167  1.00  0.00     0.179 C
BRANCH  27  28
HETATM   28  N6  UNL     1       5.773   6.992   1.107  1.00  0.00    -0.408 N
ATOM     29  H6  UNL     1       6.361   6.492   1.773  1.00  0.00     0.154 HD
BRANCH  28  30
HETATM   30  C12 UNL     1       5.220   8.239   1.448  1.00  0.00     0.015 C
HETATM   31  C13 UNL     1       4.504   8.969   0.334  1.00  0.00     0.037 C
HETATM   32  C14 UNL     1       4.181   8.012   2.541  1.00  0.00     0.037 C
HETATM   33  C15 UNL     1       6.300   9.128   2.066  1.00  0.00     0.037 C
ENDBRANCH  28  30
ENDBRANCH  27  28
ENDBRANCH  24  27
ENDBRANCH  18  21
ENDBRANCH  16  18
ENDBRANCH  15  16
ENDBRANCH  11  15
ENDBRANCH   3   7
BRANCH   4  34
HETATM   34  N8  UNL     1      -0.640   4.993   7.642  1.00  0.00    -0.112 N
HETATM   35  O3  UNL     1      -1.747   4.632   7.243  1.00  0.00    -0.532 OA
HETATM   36  O4  UNL     1      -0.008   4.176   8.587  1.00  0.00    -0.532 OA
ENDBRANCH   4  34
BRANCH   1  37
HETATM   37  O1  UNL     1       2.353   9.386   6.003  1.00  0.00    -0.353 OA
HETATM   38  C1  UNL     1       1.945  10.159   4.914  1.00  0.00     0.210 C
ENDBRANCH   1  37
BRANCH   5  39
HETATM   39  C18 UNL     1      -0.780   7.459   9.217  1.00  0.00     0.338 C
BRANCH  39  40
HETATM   40  N9  UNL     1      -0.433   6.657  10.366  1.00  0.00    -0.033 N
ATOM     41  H93 UNL     1       0.231   7.161  10.954  1.00  0.00     0.279 HD
ATOM     42  H92 UNL     1      -1.229   6.596  11.001  1.00  0.00     0.279 HD
ATOM     43  H91 UNL     1      -0.078   5.723  10.161  1.00  0.00     0.279 HD
ENDBRANCH  39  40
BRANCH  39  44
HETATM   44  O5  UNL     1      -0.325   8.778   9.795  1.00  0.00    -0.354 OA
ATOM     45  H5  UNL     1      -0.743   8.814  10.647  1.00  0.00     0.213 HD
ENDBRANCH  39  44
BRANCH  39  46
HETATM   46  C19 UNL     1      -2.194   7.700   9.080  1.00  0.00     0.304 C
HETATM   47  O6  UNL     1      -2.912   7.654   8.144  1.00  0.00    -0.266 OA
HETATM   48  N10 UNL     1      -2.893   8.091  10.358  1.00  0.00    -0.272 N
ATOM     49  H10 UNL     1      -2.331   8.145  11.208  1.00  0.00     0.189 HD
BRANCH  48  50
HETATM   50  N11 UNL     1      -4.214   8.375  10.458  1.00  0.00    -0.342 N
ATOM     51 2H11 UNL     1      -4.509   9.294  10.129  1.00  0.00     0.176 HD
ATOM     52 1H11 UNL     1      -4.918   7.740  10.833  1.00  0.00     0.176 HD
ENDBRANCH  48  50
ENDBRANCH  39  46
ENDBRANCH   5  39
BRANCH   6  53
HETATM   53  O7  UNL     1       0.957   9.517   8.296  1.00  0.00    -0.357 OA
ATOM     54  H7  UNL     1       0.132   9.936   8.510  1.00  0.00     0.217 HD
ENDBRANCH   6  53
TORSDOF 17
ENDMDL