MODEL 1
REMARK VINA RESULT: -8.377856139      0.000      0.000
REMARK  19 active torsions:
REMARK  status: ('A' for Active; 'I' for Inactive)
REMARK    1  A    between atoms: C2_2  and  O1_3
REMARK    2  A    between atoms: C2_2  and  N1_5
REMARK    3  A    between atoms: N1_5  and  C3_7
REMARK    4  A    between atoms: C4_8  and  C5_9
REMARK    5  A    between atoms: C5_9  and  O2_10
REMARK    6  A    between atoms: C5_9  and  C6_12
REMARK    7  A    between atoms: C6_12  and  O3_13
REMARK    8  A    between atoms: C6_12  and  C7_15
REMARK    9  A    between atoms: C8_19  and  C9_20
REMARK   10  A    between atoms: C9_20  and  C10_22
REMARK   11  A    between atoms: C10_22  and  O8_23
REMARK   12  A    between atoms: C10_22  and  N2_25
REMARK   13  A    between atoms: N2_25  and  C11_27
REMARK   14  A    between atoms: C11_27  and  C12_28
REMARK   15  A    between atoms: C11_27  and  C19_42
REMARK   16  A    between atoms: C13_31  and  N4_32
REMARK   17  A    between atoms: C18_39  and  O10_40
REMARK   18  A    between atoms: C19_42  and  O11_43
REMARK   19  A    between atoms: C19_42  and  O12_45
ROOT
HETATM    1  C9  UNL     1       0.434   3.337   4.610  1.00  0.00     0.273 C
HETATM    2  O7  UNL     1       1.258   2.503   4.989  1.00  0.00    -0.279 OA
ENDROOT
BRANCH   1   3
HETATM    3  C8  UNL     1       0.058   4.384   5.611  1.00  0.00     0.206 A
HETATM    4  O6  UNL     1      -0.967   4.340   6.388  1.00  0.00    -0.285 OA
HETATM    5  C4  UNL     1      -1.300   5.273   7.252  1.00  0.00     0.142 A
HETATM    6  C3  UNL     1      -0.488   6.385   7.355  1.00  0.00     0.136 A
HETATM    7  C20 UNL     1       0.633   6.475   6.530  1.00  0.00     0.277 A
HETATM    8  N5  UNL     1       0.846   5.468   5.702  1.00  0.00    -0.298 N
HETATM    9  O13 UNL     1       1.408   7.495   6.603  1.00  0.00    -0.266 OA
ATOM     10  H5  UNL     1       1.662   5.516   5.092  1.00  0.00     0.171 HD
BRANCH   5  11
HETATM   11  C5  UNL     1      -2.496   5.213   8.086  1.00  0.00     0.119 C
BRANCH  11  12
HETATM   12  O2  UNL     1      -3.222   6.372   8.072  1.00  0.00    -0.359 OA
ATOM     13  H2  UNL     1      -3.189   6.846   8.895  1.00  0.00     0.217 HD
ENDBRANCH  11  12
BRANCH  11  14
HETATM   14  C6  UNL     1      -2.639   4.325   9.254  1.00  0.00     0.278 C
BRANCH  14  15
HETATM   15  O3  UNL     1      -3.561   5.013  10.190  1.00  0.00    -0.378 OA
ATOM     16  H3  UNL     1      -4.428   4.945   9.809  1.00  0.00     0.211 HD
ENDBRANCH  14  15
BRANCH  14  17
HETATM   17  C7  UNL     1      -1.458   3.957  10.039  1.00  0.00     0.209 C
HETATM   18  O4  UNL     1      -1.230   4.586  11.167  1.00  0.00    -0.646 OA
HETATM   19  O5  UNL     1      -0.546   2.985   9.714  1.00  0.00    -0.646 OA
ENDBRANCH  14  17
ENDBRANCH  11  14
ENDBRANCH   5  11
BRANCH   6  20
HETATM   20  N1  UNL     1      -0.609   7.444   8.267  1.00  0.00    -0.357 N
ATOM     21  H1  UNL     1      -0.929   8.332   7.881  1.00  0.00     0.162 HD
BRANCH  20  22
HETATM   22  C2  UNL     1      -0.341   7.431   9.666  1.00  0.00     0.214 C
HETATM   23  C1  UNL     1       0.478   8.722  10.017  1.00  0.00     0.063 C
BRANCH  22  24
HETATM   24  O1  UNL     1      -1.452   7.458  10.484  1.00  0.00    -0.377 OA
ATOM     25  H1  UNL     1      -2.188   7.651   9.914  1.00  0.00     0.212 HD
ENDBRANCH  22  24
ENDBRANCH  20  22
ENDBRANCH   6  20
ENDBRANCH   1   3
BRANCH   1  26
HETATM   26  C10 UNL     1      -0.202   3.421   3.341  1.00  0.00     0.192 C
BRANCH  26  27
HETATM   27  O8  UNL     1      -1.494   3.297   3.254  1.00  0.00    -0.343 OA
ATOM     28  H8  UNL     1      -1.998   3.927   2.751  1.00  0.00     0.219 HD
ENDBRANCH  26  27
BRANCH  26  29
HETATM   29  N2  UNL     1       0.399   3.648   2.060  1.00  0.00    -0.353 N
ATOM     30  H2  UNL     1      -0.157   3.951   1.261  1.00  0.00     0.162 HD
BRANCH  29  31
HETATM   31  C11 UNL     1       1.852   3.427   1.941  1.00  0.00     0.192 C
BRANCH  31  32
HETATM   32  C12 UNL     1       2.557   4.741   1.848  1.00  0.00     0.080 A
HETATM   33  N3  UNL     1       2.502   5.493   0.792  1.00  0.00    -0.335 N
HETATM   34  C13 UNL     1       3.111   6.671   0.779  1.00  0.00     0.149 A
ATOM     35  H3  UNL     1       1.988   5.178  -0.031  1.00  0.00     0.168 HD
HETATM   36  S1  UNL     1       3.812   6.735   2.337  1.00  0.00    -0.027 SA
HETATM   37  C18 UNL     1       3.272   5.229   2.921  1.00  0.00     0.135 A
BRANCH  34  38
HETATM   38  N4  UNL     1       3.124   7.628  -0.298  1.00  0.00    -0.357 N
HETATM   39  C14 UNL     1       3.801   8.874  -0.250  1.00  0.00     0.151 C
HETATM   40  C15 UNL     1       3.899   9.373  -1.703  1.00  0.00     0.187 C
HETATM   41  O9  UNL     1       2.611   9.562  -2.202  1.00  0.00    -0.388 OA
HETATM   42  C16 UNL     1       1.792   8.470  -2.122  1.00  0.00     0.187 C
HETATM   43  C17 UNL     1       2.401   7.254  -1.510  1.00  0.00     0.151 C
ENDBRANCH  34  38
BRANCH  37  44
HETATM   44  O10 UNL     1       3.470   4.596   4.165  1.00  0.00    -0.352 OA
ATOM     45  H10 UNL     1       2.948   4.706   4.951  1.00  0.00     0.218 HD
ENDBRANCH  37  44
ENDBRANCH  31  32
BRANCH  31  46
HETATM   46  C19 UNL     1       2.127   2.592   0.698  1.00  0.00     0.282 C
BRANCH  46  47
HETATM   47  O11 UNL     1       3.463   2.898   0.364  1.00  0.00    -0.369 OA
ATOM     48  H11 UNL     1       3.658   2.325  -0.369  1.00  0.00     0.212 HD
ENDBRANCH  46  47
BRANCH  46  49
HETATM   49  O12 UNL     1       1.369   3.004  -0.350  1.00  0.00    -0.369 OA
ATOM     50  H12 UNL     1       1.471   2.426  -1.098  1.00  0.00     0.212 HD
ENDBRANCH  46  49
ENDBRANCH  31  46
ENDBRANCH  29  31
ENDBRANCH  26  29
ENDBRANCH   1  26
TORSDOF 19
ENDMDL