MODEL 5
REMARK VINA RESULT: -8.417893491      2.872     10.631
REMARK  20 active torsions:
REMARK  status: ('A' for Active; 'I' for Inactive)
REMARK    1  A    between atoms: N2_4  and  C1_6
REMARK    2  A    between atoms: C1_6  and  O2_11
REMARK    3  A    between atoms: N3_7  and  O1_9
REMARK    4  A    between atoms: O2_11  and  N4_12
REMARK    5  A    between atoms: C2_14  and  N5_15
REMARK    6  A    between atoms: C2_14  and  O6_29
REMARK    7  A    between atoms: N5_15  and  N6_17
REMARK       I    between atoms: N6_17  and  C3_19
REMARK    8  A    between atoms: C3_19  and  C4_21
REMARK    9  A    between atoms: C4_21  and  N7_22
REMARK   10  A    between atoms: C5_24  and  C6_25
REMARK   11  A    between atoms: C6_25  and  C7_26
REMARK   12  A    between atoms: O6_29  and  C8_30
REMARK   13  A    between atoms: C8_30  and  C9_31
REMARK   14  A    between atoms: C10_32  and  C11_33
REMARK   15  A    between atoms: C11_33  and  N8_34
REMARK   16  A    between atoms: N8_34  and  C12_35
REMARK   17  A    between atoms: N8_34  and  N9_39
REMARK   18  A    between atoms: C12_35  and  C13_36
REMARK   19  A    between atoms: C13_36  and  O7_37
REMARK   20  A    between atoms: C18_51  and  N14_52
ROOT
HETATM    1  O6  UNL     1       2.561   4.716   7.954  1.00  0.00    -0.316 OA
ENDROOT
BRANCH   1   2
HETATM    2  C2  UNL     1       2.010   5.068   6.714  1.00  0.00     0.259 C
HETATM    3  N4  UNL     1       2.340   6.265   6.257  1.00  0.00    -0.219 N
ATOM      4  H4  UNL     1       2.958   6.856   6.813  1.00  0.00     0.198 HD
BRANCH   3   5
HETATM    5  O2  UNL     1       1.879   6.725   5.073  1.00  0.00    -0.194 OA
BRANCH   5   6
HETATM    6  C1  UNL     1       2.701   7.403   4.189  1.00  0.00     0.281 C
HETATM    7  N3  UNL     1       3.503   6.725   3.445  1.00  0.00    -0.230 N
ATOM      8  H3  UNL     1       4.115   7.207   2.787  1.00  0.00     0.198 HD
BRANCH   6   9
HETATM    9  N2  UNL     1       2.601   8.819   4.161  1.00  0.00    -0.269 N
HETATM   10  N1  UNL     1       3.458   9.496   4.823  1.00  0.00    -0.342 N
ATOM     11  H12 UNL     1       4.187   9.017   5.353  1.00  0.00     0.176 HD
ATOM     12  H11 UNL     1       3.387  10.513   4.802  1.00  0.00     0.176 HD
ATOM     13  H2  UNL     1       1.866   9.282   3.626  1.00  0.00     0.190 HD
ENDBRANCH   6   9
BRANCH   7  14
HETATM   14  O1  UNL     1       3.538   5.358   3.535  1.00  0.00    -0.287 OA
ATOM     15  H1  UNL     1       4.171   4.932   4.100  1.00  0.00     0.244 HD
ENDBRANCH   7  14
ENDBRANCH   5   6
ENDBRANCH   3   5
BRANCH   2  16
HETATM   16  N5  UNL     1       1.165   4.316   5.908  1.00  0.00    -0.261 N
ATOM     17  H5  UNL     1       0.213   4.153   6.237  1.00  0.00     0.190 HD
BRANCH  16  18
HETATM   18  N6  UNL     1       1.526   3.781   4.700  1.00  0.00    -0.266 N
HETATM   19  C3  UNL     1       0.500   3.372   3.768  1.00  0.00     0.253 C
HETATM   20  O3  UNL     1      -0.698   3.559   4.193  1.00  0.00    -0.270 OA
ATOM     21  H6  UNL     1       2.512   3.671   4.459  1.00  0.00     0.190 HD
BRANCH  19  22
HETATM   22  C4  UNL     1       0.762   2.796   2.448  1.00  0.00     0.223 C
BRANCH  22  23
HETATM   23  N7  UNL     1       2.147   2.976   2.109  1.00  0.00    -0.393 N
HETATM   24  C5  UNL     1       2.584   2.845   0.925  1.00  0.00     0.066 C
ATOM     25  H7  UNL     1       2.804   3.217   2.851  1.00  0.00     0.159 HD
BRANCH  24  26
HETATM   26  C6  UNL     1       4.013   3.029   0.569  1.00  0.00     0.157 C
BRANCH  26  27
HETATM   27  C7  UNL     1       4.266   4.472   0.372  1.00  0.00     0.177 C
HETATM   28  O4  UNL     1       5.398   4.848  -0.004  1.00  0.00    -0.648 OA
HETATM   29  O5  UNL     1       3.275   5.385   0.597  1.00  0.00    -0.648 OA
ENDBRANCH  26  27
ENDBRANCH  24  26
ENDBRANCH  22  23
ENDBRANCH  19  22
ENDBRANCH  16  18
ENDBRANCH   2  16
ENDBRANCH   1   2
BRANCH   1  30
HETATM   30  C8  UNL     1       3.943   4.618   8.066  1.00  0.00     0.206 C
BRANCH  30  31
HETATM   31  C9  UNL     1       4.495   5.024   9.392  1.00  0.00    -0.003 C
HETATM   32  C10 UNL     1       4.055   4.383  10.457  1.00  0.00    -0.008 C
BRANCH  32  33
HETATM   33  C11 UNL     1       4.475   4.634  11.859  1.00  0.00     0.170 C
BRANCH  33  34
HETATM   34  N8  UNL     1       3.339   5.126  12.600  1.00  0.00    -0.313 N
BRANCH  34  35
HETATM   35  C12 UNL     1       3.119   4.584  13.930  1.00  0.00     0.169 C
BRANCH  35  36
HETATM   36  C13 UNL     1       3.043   3.069  13.942  1.00  0.00     0.185 C
BRANCH  36  37
HETATM   37  O7  UNL     1       1.940   2.736  13.156  1.00  0.00    -0.399 OA
ATOM     38  H7  UNL     1       2.292   2.466  12.316  1.00  0.00     0.209 HD
ENDBRANCH  36  37
ENDBRANCH  35  36
ENDBRANCH  34  35
BRANCH  34  39
HETATM   39  N9  UNL     1       2.455   6.097  12.121  1.00  0.00    -0.235 N
HETATM   40  C14 UNL     1       2.599   7.429  12.051  1.00  0.00     0.209 A
HETATM   41  N10 UNL     1       1.501   8.002  11.493  1.00  0.00    -0.345 N
HETATM   42  C15 UNL     1       0.621   7.035  11.189  1.00  0.00     0.126 A
ATOM     43  H10 UNL     1       1.367   9.001  11.331  1.00  0.00     0.167 HD
HETATM   44  C16 UNL     1       1.218   5.861  11.582  1.00  0.00     0.159 A
HETATM   45  C19 UNL     1      -0.638   7.068  10.608  1.00  0.00     0.174 A
HETATM   46  N11 UNL     1       0.544   4.721  11.387  1.00  0.00    -0.334 N
HETATM   47  C17 UNL     1      -0.697   4.749  10.814  1.00  0.00     0.211 A
ATOM     48  H11 UNL     1       0.956   3.831  11.666  1.00  0.00     0.168 HD
HETATM   49  N12 UNL     1      -1.279   5.899  10.430  1.00  0.00    -0.218 N
HETATM   50  N13 UNL     1      -2.461   6.137   9.860  1.00  0.00    -0.123 N
HETATM   51  C18 UNL     1      -2.595   7.464   9.663  1.00  0.00     0.692 A
ATOM     52  H13 UNL     1      -3.152   5.429   9.612  1.00  0.00     0.206 HD
HETATM   53  N15 UNL     1      -1.456   8.018  10.133  1.00  0.00    -0.171 N
ATOM     54  H15 UNL     1      -1.250   9.017  10.128  1.00  0.00     0.186 HD
BRANCH  51  55
HETATM   55  N14 UNL     1      -3.626   8.026   9.130  1.00  0.00    -0.233 N
ATOM     56 2H14 UNL     1      -4.344   8.608   9.560  1.00  0.00     0.174 HD
ATOM     57 1H14 UNL     1      -3.878   7.961   8.144  1.00  0.00     0.174 HD
ENDBRANCH  51  55
ENDBRANCH  34  39
ENDBRANCH  33  34
ENDBRANCH  32  33
ENDBRANCH  30  31
ENDBRANCH   1  30
TORSDOF 20
ENDMDL