MODEL 1
REMARK VINA RESULT: -8.854384230      0.000      0.000
REMARK  17 active torsions:
REMARK  status: ('A' for Active; 'I' for Inactive)
REMARK    1  A    between atoms: O1_2  and  C2_3
REMARK    2  A    between atoms: C2_3  and  C3_5
REMARK    3  A    between atoms: C3_5  and  C4_6
REMARK    4  A    between atoms: C3_5  and  N15_54
REMARK    5  A    between atoms: C4_6  and  S1_7
REMARK    6  A    between atoms: S1_7  and  C5_8
REMARK    7  A    between atoms: C6_11  and  N2_12
REMARK    8  A    between atoms: N2_12  and  C7_14
REMARK    9  A    between atoms: C8_19  and  S2_20
REMARK   10  A    between atoms: S2_20  and  C9_21
REMARK   11  A    between atoms: C9_21  and  C10_22
REMARK   12  A    between atoms: C10_22  and  N5_23
REMARK   13  A    between atoms: N5_23  and  C11_25
REMARK   14  A    between atoms: C17_35  and  N8_36
REMARK   15  A    between atoms: N9_39  and  O3_40
REMARK   16  A    between atoms: C18_48  and  N13_49
REMARK   17  A    between atoms: N15_54  and  O4_55
ROOT
HETATM    1  C7  UNL     1       3.127   5.220   7.423  1.00  0.00     0.726 A
HETATM    2  N3  UNL     1       3.521   4.285   6.542  1.00  0.00    -0.128 N
ATOM      3  H3  UNL     1       4.208   3.594   6.844  1.00  0.00     0.205 HD
HETATM    4  N4  UNL     1       3.060   4.214   5.300  1.00  0.00    -0.264 N
ATOM      5  H4  UNL     1       3.392   3.482   4.672  1.00  0.00     0.189 HD
HETATM    6  C8  UNL     1       2.153   5.110   4.870  1.00  0.00     0.174 A
HETATM    7  N10 UNL     1       1.748   6.051   5.734  1.00  0.00    -0.264 N
ATOM      8  H10 UNL     1       1.061   6.739   5.427  1.00  0.00     0.189 HD
HETATM    9  N11 UNL     1       2.208   6.118   6.972  1.00  0.00    -0.128 N
ATOM     10  H11 UNL     1       1.872   6.851   7.596  1.00  0.00     0.205 HD
ENDROOT
BRANCH   1  11
HETATM   11  N2  UNL     1       3.581   5.282   8.633  1.00  0.00    -0.019 N
ATOM     12  H2  UNL     1       4.466   5.745   8.843  1.00  0.00     0.203 HD
BRANCH  11  13
HETATM   13  C6  UNL     1       2.803   4.681   9.660  1.00  0.00     0.713 A
HETATM   14  N1  UNL     1       1.493   5.016   9.723  1.00  0.00    -0.169 N
HETATM   15  C5  UNL     1       0.705   4.484  10.670  1.00  0.00     0.174 A
ATOM     16  H1  UNL     1       1.104   5.676   9.049  1.00  0.00     0.186 HD
HETATM   17  N14 UNL     1       1.229   3.607  11.565  1.00  0.00    -0.170 N
HETATM   18  C18 UNL     1       2.524   3.262  11.517  1.00  0.00     0.692 A
ATOM     19  H14 UNL     1       0.629   3.204  12.284  1.00  0.00     0.186 HD
HETATM   20  N12 UNL     1       3.295   3.810  10.558  1.00  0.00    -0.022 N
ATOM     21  H12 UNL     1       4.282   3.556  10.512  1.00  0.00     0.203 HD
BRANCH  15  22
HETATM   22  S1  UNL     1      -1.032   4.860  10.840  1.00  0.00    -0.091 SA
BRANCH  22  23
HETATM   23  C4  UNL     1      -1.913   3.964   9.531  1.00  0.00     0.116 C
BRANCH  23  24
HETATM   24  C3  UNL     1      -2.385   4.968   8.493  1.00  0.00     0.215 C
BRANCH  24  25
HETATM   25  C2  UNL     1      -1.227   5.288   7.620  1.00  0.00     0.281 C
HETATM   26  O2  UNL     1      -0.440   4.351   7.269  1.00  0.00    -0.263 OA
BRANCH  25  27
HETATM   27  O1  UNL     1      -0.947   6.551   7.162  1.00  0.00    -0.325 OA
HETATM   28  C1  UNL     1      -1.009   7.650   8.033  1.00  0.00     0.213 C
ENDBRANCH  25  27
ENDBRANCH  24  25
BRANCH  24  29
HETATM   29  N15 UNL     1      -3.435   4.359   7.721  1.00  0.00    -0.088 NA
BRANCH  29  30
HETATM   30  O4  UNL     1      -3.145   4.475   6.424  1.00  0.00    -0.295 OA
ATOM     31  H4  UNL     1      -3.797   5.028   6.009  1.00  0.00     0.238 HD
ENDBRANCH  29  30
ENDBRANCH  24  29
ENDBRANCH  23  24
ENDBRANCH  22  23
ENDBRANCH  15  22
BRANCH  18  32
HETATM   32  N13 UNL     1       3.071   2.435  12.341  1.00  0.00    -0.234 N
ATOM     33 2H13 UNL     1       3.729   1.709  12.057  1.00  0.00     0.174 HD
ATOM     34 1H13 UNL     1       2.832   2.510  13.330  1.00  0.00     0.174 HD
ENDBRANCH  18  32
ENDBRANCH  11  13
ENDBRANCH   1  11
BRANCH   6  35
HETATM   35  S2  UNL     1       1.513   5.048   3.236  1.00  0.00    -0.090 SA
BRANCH  35  36
HETATM   36  C9  UNL     1       1.466   3.352   2.657  1.00  0.00     0.102 C
BRANCH  36  37
HETATM   37  C10 UNL     1       0.792   3.213   1.291  1.00  0.00     0.148 C
BRANCH  37  38
HETATM   38  N5  UNL     1       1.818   3.143   0.284  1.00  0.00    -0.223 N
ATOM     39  H5  UNL     1       1.825   2.336  -0.339  1.00  0.00     0.177 HD
BRANCH  38  40
HETATM   40  C11 UNL     1       2.831   4.143   0.106  1.00  0.00     0.708 A
HETATM   41  N6  UNL     1       2.481   5.407  -0.241  1.00  0.00    -0.174 N
HETATM   42  C12 UNL     1       3.369   6.399  -0.428  1.00  0.00     0.135 A
ATOM     43  H6  UNL     1       1.490   5.616  -0.368  1.00  0.00     0.186 HD
HETATM   44  N7  UNL     1       2.992   7.645  -0.772  1.00  0.00    -0.351 N
HETATM   45  C16 UNL     1       4.714   6.154  -0.265  1.00  0.00     0.055 A
HETATM   46  C13 UNL     1       3.881   8.642  -0.958  1.00  0.00     0.090 A
ATOM     47  H7  UNL     1       1.999   7.842  -0.895  1.00  0.00     0.166 HD
HETATM   48  C14 UNL     1       5.235   8.431  -0.804  1.00  0.00     0.018 A
HETATM   49  C15 UNL     1       5.648   7.157  -0.449  1.00  0.00     0.020 A
HETATM   50  C17 UNL     1       5.077   4.874   0.089  1.00  0.00     0.159 A
HETATM   51  N9  UNL     1       4.139   3.897   0.267  1.00  0.00    -0.035 N
BRANCH  50  52
HETATM   52  N8  UNL     1       6.340   4.617   0.248  1.00  0.00    -0.382 N
ATOM     53  H82 UNL     1       6.993   5.357   0.503  1.00  0.00     0.157 HD
ATOM     54  H81 UNL     1       6.657   3.657   0.111  1.00  0.00     0.157 HD
ENDBRANCH  50  52
BRANCH  51  55
HETATM   55  O3  UNL     1       4.567   2.652   0.613  1.00  0.00    -0.268 OA
ATOM     56  H3  UNL     1       4.952   2.079  -0.039  1.00  0.00     0.246 HD
ENDBRANCH  51  55
ENDBRANCH  38  40
ENDBRANCH  37  38
ENDBRANCH  36  37
ENDBRANCH  35  36
ENDBRANCH   6  35
TORSDOF 17
ENDMDL