MODEL 2
REMARK VINA RESULT: -9.894911348      2.332     11.100
REMARK  15 active torsions:
REMARK  status: ('A' for Active; 'I' for Inactive)
REMARK    1  A    between atoms: C2_2  and  C3_3
REMARK    2  A    between atoms: C3_3  and  N1_4
REMARK    3  A    between atoms: C3_3  and  C6_9
REMARK       I    between atoms: N1_4  and  C4_6
REMARK    4  A    between atoms: C7_13  and  C8_14
REMARK    5  A    between atoms: C9_17  and  N4_18
REMARK    6  A    between atoms: N4_18  and  C10_20
REMARK    7  A    between atoms: C10_20  and  O3_21
REMARK    8  A    between atoms: C10_20  and  C11_23
REMARK    9  A    between atoms: N7_28  and  C12_29
REMARK   10  A    between atoms: C12_29  and  C13_30
REMARK   11  A    between atoms: C13_30  and  O4_31
REMARK   12  A    between atoms: C13_30  and  C14_33
REMARK   13  A    between atoms: C14_33  and  C15_35
REMARK   14  A    between atoms: C17_40  and  N10_41
REMARK   15  A    between atoms: C20_53  and  O7_54
ROOT
HETATM    1  C10 UNL     1      -0.247   4.171   6.725  1.00  0.00     0.203 C
ENDROOT
BRANCH   1   2
HETATM    2  N4  UNL     1      -1.421   4.849   6.944  1.00  0.00    -0.167 N
ATOM      3  H4  UNL     1      -2.159   4.642   6.271  1.00  0.00     0.186 HD
BRANCH   2   4
HETATM    4  C9  UNL     1      -1.779   5.765   7.924  1.00  0.00     0.684 A
HETATM    5  N3  UNL     1      -0.906   5.843   8.999  1.00  0.00    -0.184 N
HETATM    6  C8  UNL     1      -1.097   6.668  10.045  1.00  0.00     0.137 A
ATOM      7  H3  UNL     1      -0.079   5.247   8.997  1.00  0.00     0.184 HD
HETATM    8  C20 UNL     1      -2.214   7.458  10.022  1.00  0.00     0.113 A
HETATM    9  C19 UNL     1      -3.106   7.382   8.931  1.00  0.00     0.145 A
HETATM   10  N13 UNL     1      -2.854   6.544   7.933  1.00  0.00    -0.199 N
ATOM     11  H13 UNL     1      -3.504   6.498   7.149  1.00  0.00     0.183 HD
BRANCH   6  12
HETATM   12  C7  UNL     1      -0.120   6.681  11.136  1.00  0.00     0.202 A
HETATM   13  O2  UNL     1       0.233   7.762  11.827  1.00  0.00    -0.216 OA
HETATM   14  N2  UNL     1       1.105   7.494  12.725  1.00  0.00    -0.245 N
HETATM   15  C6  UNL     1       1.394   6.163  12.680  1.00  0.00     0.127 A
ATOM     16  H2  UNL     1       1.518   8.167  13.370  1.00  0.00     0.196 HD
HETATM   17  N14 UNL     1       0.612   5.715  11.684  1.00  0.00    -0.320 N
ATOM     18  H14 UNL     1       0.581   4.742  11.382  1.00  0.00     0.169 HD
BRANCH  15  19
HETATM   19  C3  UNL     1       2.354   5.423  13.539  1.00  0.00     0.153 C
BRANCH  19  20
HETATM   20  C2  UNL     1       2.873   6.327  14.643  1.00  0.00     0.028 C
HETATM   21  C1  UNL     1       3.892   5.643  15.504  1.00  0.00     0.007 C
ENDBRANCH  19  20
BRANCH  19  22
HETATM   22  N1  UNL     1       3.403   4.897  12.708  1.00  0.00    -0.350 N
HETATM   23  C4  UNL     1       3.274   3.665  12.009  1.00  0.00     0.214 C
HETATM   24  C5  UNL     1       4.384   3.162  11.159  1.00  0.00     0.117 C
HETATM   25  O1  UNL     1       2.205   2.975  12.100  1.00  0.00    -0.274 OA
ATOM     26  H1  UNL     1       4.270   5.425  12.617  1.00  0.00     0.163 HD
ENDBRANCH  19  22
ENDBRANCH  15  19
ENDBRANCH   6  12
BRANCH   8  27
HETATM   27  O7  UNL     1      -2.526   8.321  10.998  1.00  0.00    -0.357 OA
ATOM     28  H7  UNL     1      -2.321   9.248  10.961  1.00  0.00     0.217 HD
ENDBRANCH   8  27
ENDBRANCH   2   4
ENDBRANCH   1   2
BRANCH   1  29
HETATM   29  O3  UNL     1       0.414   3.769   7.808  1.00  0.00    -0.343 OA
ATOM     30  H3  UNL     1       1.058   3.083   7.677  1.00  0.00     0.219 HD
ENDBRANCH   1  29
BRANCH   1  31
HETATM   31  C11 UNL     1       0.379   3.831   5.462  1.00  0.00     0.189 A
HETATM   32  N5  UNL     1       1.710   4.138   5.179  1.00  0.00    -0.265 N
HETATM   33  N6  UNL     1       1.948   3.720   3.982  1.00  0.00    -0.224 N
ATOM     34  H5  UNL     1       2.370   4.605   5.801  1.00  0.00     0.190 HD
HETATM   35  N7  UNL     1       0.882   3.161   3.448  1.00  0.00    -0.215 N
ATOM     36  H6  UNL     1       2.847   3.812   3.509  1.00  0.00     0.210 HD
HETATM   37  N12 UNL     1      -0.044   3.242   4.363  1.00  0.00    -0.263 N
ATOM     38  H12 UNL     1      -0.992   2.889   4.240  1.00  0.00     0.190 HD
BRANCH  35  39
HETATM   39  C12 UNL     1       0.793   2.587   2.131  1.00  0.00     0.211 C
BRANCH  39  40
HETATM   40  C13 UNL     1       0.354   3.635   1.104  1.00  0.00     0.214 C
BRANCH  40  41
HETATM   41  O4  UNL     1       0.419   4.854   1.853  1.00  0.00    -0.386 OA
ATOM     42  H4  UNL     1       0.168   5.507   1.210  1.00  0.00     0.210 HD
ENDBRANCH  40  41
BRANCH  40  43
HETATM   43  C14 UNL     1       1.303   3.740  -0.003  1.00  0.00     0.198 C
HETATM   44  O5  UNL     1       0.890   3.220  -1.113  1.00  0.00    -0.289 OA
BRANCH  43  45
HETATM   45  C15 UNL     1       2.614   4.340  -0.001  1.00  0.00     0.122 A
HETATM   46  C16 UNL     1       2.736   5.658  -0.456  1.00  0.00     0.151 A
HETATM   47  N8  UNL     1       1.592   6.376  -0.880  1.00  0.00    -0.081 NA
HETATM   48  N9  UNL     1       3.965   6.187  -0.469  1.00  0.00    -0.178 N
HETATM   49  C17 UNL     1       5.079   5.543  -0.078  1.00  0.00     0.680 A
ATOM     50  H9  UNL     1       4.063   7.147  -0.799  1.00  0.00     0.185 HD
HETATM   51  N11 UNL     1       4.968   4.284   0.358  1.00  0.00    -0.155 N
HETATM   52  C18 UNL     1       3.735   3.687   0.395  1.00  0.00     0.277 A
ATOM     53  H11 UNL     1       5.795   3.770   0.662  1.00  0.00     0.187 HD
HETATM   54  O6  UNL     1       3.700   2.507   0.808  1.00  0.00    -0.267 OA
BRANCH  49  55
HETATM   55  N10 UNL     1       6.230   6.100  -0.111  1.00  0.00    -0.234 N
ATOM     56 2H10 UNL     1       6.485   6.771   0.613  1.00  0.00     0.174 HD
ATOM     57 1H10 UNL     1       6.909   5.893  -0.844  1.00  0.00     0.174 HD
ENDBRANCH  49  55
ENDBRANCH  43  45
ENDBRANCH  40  43
ENDBRANCH  39  40
ENDBRANCH  35  39
ENDBRANCH   1  31
TORSDOF 15
ENDMDL