MODEL 3
REMARK VINA RESULT: -9.788238561      1.737      2.124
REMARK  17 active torsions:
REMARK  status: ('A' for Active; 'I' for Inactive)
REMARK    1  A    between atoms: C3_4  and  C4_5
REMARK    2  A    between atoms: N2_7  and  C6_8
REMARK    3  A    between atoms: C7_12  and  C8_13
REMARK    4  A    between atoms: C8_13  and  N5_14
REMARK    5  A    between atoms: C8_13  and  C15_29
REMARK    6  A    between atoms: N5_14  and  C9_16
REMARK    7  A    between atoms: C9_16  and  C10_17
REMARK    8  A    between atoms: C10_17  and  C11_18
REMARK    9  A    between atoms: C11_18  and  N6_19
REMARK   10  A    between atoms: C12_21  and  C13_22
REMARK   11  A    between atoms: C13_22  and  N7_23
REMARK   12  A    between atoms: N7_23  and  C14_26
REMARK   13  A    between atoms: C14_26  and  O1_27
REMARK   14  A    between atoms: C15_29  and  O2_30
REMARK   15  A    between atoms: N8_32  and  O3_34
REMARK   16  A    between atoms: C19_44  and  N11_45
REMARK   17  A    between atoms: C21_49  and  N12_50
ROOT
HETATM    1  C4  UNL     1       1.192   4.691   4.156  1.00  0.00     0.026 A
HETATM    2  C5  UNL     1       0.390   4.130   5.166  1.00  0.00     0.116 A
HETATM    3  N2  UNL     1       0.447   4.844   6.308  1.00  0.00    -0.282 N
HETATM    4  C16 UNL     1       1.285   5.852   6.033  1.00  0.00     0.101 A
HETATM    5  C17 UNL     1       1.494   6.823   6.941  1.00  0.00     0.136 C
HETATM    6  N9  UNL     1       2.684   7.624   6.916  1.00  0.00    -0.324 N
ATOM      7  H9  UNL     1       3.507   7.619   7.519  1.00  0.00     0.169 HD
HETATM    8  C18 UNL     1       2.352   8.437   5.770  1.00  0.00     0.153 C
HETATM    9  N10 UNL     1       2.723   8.105   4.549  1.00  0.00    -0.325 N
ATOM     10  H10 UNL     1       3.058   8.817   3.899  1.00  0.00     0.169 HD
HETATM   11  C19 UNL     1       2.648   6.713   4.141  1.00  0.00     0.114 C
HETATM   12  C20 UNL     1       1.770   5.779   4.688  1.00  0.00     0.053 A
HETATM   13  C21 UNL     1       1.399   9.488   5.897  1.00  0.00     0.145 C
HETATM   14  N13 UNL     1       0.311   9.558   6.904  1.00  0.00    -0.336 N
ATOM     15  H13 UNL     1      -0.150  10.457   7.047  1.00  0.00     0.168 HD
HETATM   16  C22 UNL     1      -0.137   8.438   7.693  1.00  0.00     0.183 C
HETATM   17  N14 UNL     1       0.393   7.167   7.726  1.00  0.00    -0.337 N
ATOM     18  H14 UNL     1      -0.028   6.464   8.334  1.00  0.00     0.168 HD
ENDROOT
BRANCH   3  19
HETATM   19  C6  UNL     1      -0.228   4.697   7.551  1.00  0.00     0.244 C
HETATM   20  N3  UNL     1       0.267   4.182   8.623  1.00  0.00    -0.266 N
HETATM   21  N4  UNL     1      -0.719   4.219   9.643  1.00  0.00    -0.103 NA
ATOM     22  H3  UNL     1       1.211   3.809   8.722  1.00  0.00     0.186 HD
HETATM   23  C7  UNL     1      -1.665   5.187   9.248  1.00  0.00     0.275 C
HETATM   24  O4  UNL     1      -1.526   5.094   7.802  1.00  0.00    -0.294 OA
BRANCH  23  25
HETATM   25  C8  UNL     1      -1.446   6.604   9.617  1.00  0.00     0.201 C
BRANCH  25  26
HETATM   26  N5  UNL     1      -0.889   6.895  10.881  1.00  0.00    -0.407 N
ATOM     27  H5  UNL     1      -1.365   6.606  11.737  1.00  0.00     0.154 HD
BRANCH  26  28
HETATM   28  C9  UNL     1       0.338   7.593  10.941  1.00  0.00     0.116 C
BRANCH  28  29
HETATM   29  C10 UNL     1       1.534   6.682  11.167  1.00  0.00     0.039 C
BRANCH  29  30
HETATM   30  C11 UNL     1       1.242   5.712  12.310  1.00  0.00     0.120 C
BRANCH  30  31
HETATM   31  N6  UNL     1       2.386   5.597  13.150  1.00  0.00    -0.401 N
HETATM   32  C12 UNL     1       2.575   6.288  14.198  1.00  0.00     0.082 C
ATOM     33  H6  UNL     1       3.100   4.914  12.893  1.00  0.00     0.158 HD
BRANCH  32  34
HETATM   34  C13 UNL     1       1.595   7.307  14.654  1.00  0.00     0.278 C
BRANCH  34  35
HETATM   35  N7  UNL     1       1.578   7.311  16.120  1.00  0.00    -0.050 N
ATOM     36  H72 UNL     1       0.798   7.842  16.510  1.00  0.00     0.280 HD
ATOM     37  H71 UNL     1       1.333   6.406  16.520  1.00  0.00     0.280 HD
BRANCH  35  38
HETATM   38  C14 UNL     1       2.880   7.799  16.560  1.00  0.00     0.396 C
BRANCH  38  39
HETATM   39  O1  UNL     1       2.843   9.181  16.788  1.00  0.00    -0.375 OA
ATOM     40  H1  UNL     1       2.077   9.570  16.382  1.00  0.00     0.211 HD
ENDBRANCH  38  39
ENDBRANCH  35  38
ENDBRANCH  34  35
ENDBRANCH  32  34
ENDBRANCH  30  31
ENDBRANCH  29  30
ENDBRANCH  28  29
ENDBRANCH  26  28
ENDBRANCH  25  26
BRANCH  25  41
HETATM   41  C15 UNL     1      -2.753   7.307   9.423  1.00  0.00     0.162 C
HETATM   42  N8  UNL     1      -3.283   7.912  10.407  1.00  0.00    -0.249 N
ATOM     43  H8  UNL     1      -2.793   7.896  11.302  1.00  0.00     0.196 HD
BRANCH  41  44
HETATM   44  O2  UNL     1      -3.357   7.289   8.195  1.00  0.00    -0.346 OA
ATOM     45  H2  UNL     1      -4.283   7.487   8.124  1.00  0.00     0.219 HD
ENDBRANCH  41  44
BRANCH  42  46
HETATM   46  O3  UNL     1      -4.482   8.589  10.336  1.00  0.00    -0.288 OA
ATOM     47  H3  UNL     1      -4.674   9.378  10.830  1.00  0.00     0.244 HD
ENDBRANCH  42  46
ENDBRANCH  25  41
ENDBRANCH  23  25
ENDBRANCH   3  19
BRANCH   1  48
HETATM   48  C3  UNL     1       1.332   4.149   2.807  1.00  0.00     0.079 A
HETATM   49  C2  UNL     1       0.566   4.334   1.665  1.00  0.00     0.143 A
HETATM   50  N1  UNL     1       0.991   3.514   0.689  1.00  0.00    -0.291 N
HETATM   51  C1  UNL     1       0.425   3.430  -0.647  1.00  0.00     0.178 C
HETATM   52  N16 UNL     1       1.980   2.842   1.195  1.00  0.00    -0.241 N
HETATM   53  N15 UNL     1       2.222   3.178   2.441  1.00  0.00    -0.284 N
ATOM     54  H16 UNL     1       2.509   2.136   0.684  1.00  0.00     0.208 HD
ATOM     55  H15 UNL     1       2.950   2.781   3.035  1.00  0.00     0.188 HD
ENDBRANCH   1  48
BRANCH  11  56
HETATM   56  N11 UNL     1       3.420   6.343   3.266  1.00  0.00    -0.385 N
ATOM     57 2H11 UNL     1       3.051   5.778   2.501  1.00  0.00     0.157 HD
ATOM     58 1H11 UNL     1       4.399   6.614   3.361  1.00  0.00     0.157 HD
ENDBRANCH  11  56
BRANCH  13  59
HETATM   59  N12 UNL     1       1.515  10.369   4.997  1.00  0.00    -0.382 N
ATOM     60 2H12 UNL     1       2.291  11.031   5.003  1.00  0.00     0.157 HD
ATOM     61 1H12 UNL     1       0.739  10.364   4.334  1.00  0.00     0.157 HD
ENDBRANCH  13  59
TORSDOF 17
ENDMDL