MODEL 3
REMARK VINA RESULT: -8.713815716      0.646      1.277
REMARK  15 active torsions:
REMARK  status: ('A' for Active; 'I' for Inactive)
REMARK    1  A    between atoms: C2_5  and  C3_6
REMARK    2  A    between atoms: C5_18  and  C6_19
REMARK    3  A    between atoms: C6_19  and  C7_20
REMARK    4  A    between atoms: C7_20  and  C8_21
REMARK    5  A    between atoms: C8_21  and  C9_22
REMARK    6  A    between atoms: C9_22  and  C10_23
REMARK    7  A    between atoms: C10_23  and  N7_24
REMARK    8  A    between atoms: N8_28  and  C11_30
REMARK    9  A    between atoms: C12_32  and  C13_33
REMARK   10  A    between atoms: C13_33  and  C14_34
REMARK   11  A    between atoms: C14_34  and  S1_35
REMARK   12  A    between atoms: S1_35  and  C15_36
REMARK   13  A    between atoms: C17_41  and  C18_42
REMARK   14  A    between atoms: C20_49  and  O5_50
REMARK   15  A    between atoms: N13_52  and  O6_53
ROOT
HETATM    1  C6  UNL     1       2.933   4.828   6.828  1.00  0.00     0.058 C
HETATM    2  N8  UNL     1       3.967   4.205   7.190  1.00  0.00    -0.320 N
ATOM      3  H8  UNL     1       4.402   3.596   6.498  1.00  0.00     0.169 HD
ENDROOT
BRANCH   1   4
HETATM    4  C5  UNL     1       2.404   4.654   5.451  1.00  0.00     0.146 A
HETATM    5  N1  UNL     1       1.162   4.286   5.116  1.00  0.00    -0.278 N
HETATM    6  C1  UNL     1       0.095   3.946   6.033  1.00  0.00     0.179 C
HETATM    7  N2  UNL     1       1.059   4.274   3.778  1.00  0.00    -0.280 N
HETATM    8  C2  UNL     1       2.230   4.634   3.253  1.00  0.00     0.154 A
ATOM      9  H2  UNL     1       0.222   4.029   3.250  1.00  0.00     0.189 HD
HETATM   10  N6  UNL     1       3.043   4.863   4.299  1.00  0.00    -0.323 N
ATOM     11  H6  UNL     1       4.016   5.157   4.222  1.00  0.00     0.169 HD
BRANCH   8  12
HETATM   12  C3  UNL     1       2.644   4.779   1.859  1.00  0.00     0.147 A
HETATM   13  N3  UNL     1       2.345   5.801   1.034  1.00  0.00    -0.234 N
HETATM   14  O1  UNL     1       2.880   5.599  -0.130  1.00  0.00    -0.155 OA
ATOM     15  H3  UNL     1       1.781   6.613   1.286  1.00  0.00     0.197 HD
HETATM   16  N4  UNL     1       3.531   4.485  -0.135  1.00  0.00    -0.224 N
HETATM   17  C4  UNL     1       3.414   3.922   1.104  1.00  0.00     0.154 A
ATOM     18  H4  UNL     1       4.044   4.094  -0.924  1.00  0.00     0.198 HD
HETATM   19  N5  UNL     1       3.939   2.818   1.436  1.00  0.00    -0.382 N
ATOM     20  H52 UNL     1       3.851   2.397   2.361  1.00  0.00     0.157 HD
ATOM     21  H51 UNL     1       4.509   2.183   0.876  1.00  0.00     0.157 HD
ENDBRANCH   8  12
ENDBRANCH   1   4
BRANCH   1  22
HETATM   22  C7  UNL     1       2.204   5.778   7.717  1.00  0.00     0.061 C
BRANCH  22  23
HETATM   23  C8  UNL     1       2.289   7.177   7.192  1.00  0.00     0.008 C
BRANCH  23  24
HETATM   24  C9  UNL     1       1.035   7.759   6.652  1.00  0.00     0.027 C
BRANCH  24  25
HETATM   25  C10 UNL     1       0.821   9.218   6.785  1.00  0.00     0.229 C
BRANCH  25  26
HETATM   26  N7  UNL     1      -0.453   9.648   7.272  1.00  0.00    -0.079 N
ATOM     27  H73 UNL     1      -1.146   8.919   7.104  1.00  0.00     0.274 HD
ATOM     28  H72 UNL     1      -0.440   9.664   8.292  1.00  0.00     0.274 HD
ATOM     29  H71 UNL     1      -0.808  10.539   6.924  1.00  0.00     0.274 HD
ENDBRANCH  25  26
ENDBRANCH  24  25
ENDBRANCH  23  24
ENDBRANCH  22  23
ENDBRANCH   1  22
BRANCH   2  30
HETATM   30  C11 UNL     1       4.581   4.267   8.454  1.00  0.00     0.258 A
HETATM   31  O2  UNL     1       4.069   4.112   9.651  1.00  0.00    -0.278 OA
HETATM   32  C12 UNL     1       4.943   4.236  10.609  1.00  0.00     0.110 A
HETATM   33  C20 UNL     1       6.135   4.496   9.968  1.00  0.00     0.201 A
HETATM   34  N13 UNL     1       5.913   4.515   8.653  1.00  0.00    -0.160 N
BRANCH  32  35
HETATM   35  C13 UNL     1       4.714   4.120  12.091  1.00  0.00     0.080 C
BRANCH  35  36
HETATM   36  C14 UNL     1       3.236   3.902  12.292  1.00  0.00     0.089 C
BRANCH  36  37
HETATM   37  S1  UNL     1       2.441   5.363  13.016  1.00  0.00    -0.093 SA
BRANCH  37  38
HETATM   38  C15 UNL     1       1.070   5.809  11.968  1.00  0.00     0.148 A
HETATM   39  N9  UNL     1       1.020   7.089  11.502  1.00  0.00    -0.324 N
HETATM   40  C16 UNL     1       0.031   7.528  10.707  1.00  0.00     0.139 A
ATOM     41  H9  UNL     1       1.762   7.737  11.767  1.00  0.00     0.169 HD
HETATM   42  N10 UNL     1      -0.023   8.865  10.221  1.00  0.00    -0.081 NA
HETATM   43  C17 UNL     1      -0.991   6.680  10.330  1.00  0.00     0.138 A
HETATM   44  C19 UNL     1      -0.936   5.388  10.804  1.00  0.00     0.266 A
HETATM   45  O4  UNL     1      -1.858   4.603  10.470  1.00  0.00    -0.267 OA
HETATM   46  N12 UNL     1       0.086   4.972  11.611  1.00  0.00    -0.303 N
ATOM     47  H12 UNL     1       0.101   4.008  11.946  1.00  0.00     0.171 HD
BRANCH  43  48
HETATM   48  C18 UNL     1      -2.071   7.164   9.460  1.00  0.00     0.273 C
HETATM   49  N11 UNL     1      -1.998   7.056   8.046  1.00  0.00    -0.057 NA
HETATM   50  O3  UNL     1      -3.077   7.684   9.979  1.00  0.00    -0.271 OA
ENDBRANCH  43  48
ENDBRANCH  37  38
ENDBRANCH  36  37
ENDBRANCH  35  36
ENDBRANCH  32  35
BRANCH  33  51
HETATM   51  O5  UNL     1       7.348   4.697  10.648  1.00  0.00    -0.343 OA
ATOM     52  H5  UNL     1       8.176   4.843  10.204  1.00  0.00     0.219 HD
ENDBRANCH  33  51
BRANCH  34  53
HETATM   53  O6  UNL     1       6.805   4.734   7.650  1.00  0.00    -0.278 OA
ATOM     54  H6  UNL     1       6.877   5.552   7.171  1.00  0.00     0.245 HD
ENDBRANCH  34  53
ENDBRANCH   2  30
TORSDOF 15
ENDMDL