MODEL 3
REMARK VINA RESULT: -9.647403640      2.195      5.572
REMARK  16 active torsions:
REMARK  status: ('A' for Active; 'I' for Inactive)
REMARK    1  A    between atoms: C2_2  and  O1_3
REMARK    2  A    between atoms: C2_2  and  C3_5
REMARK    3  A    between atoms: C3_5  and  C4_6
REMARK    4  A    between atoms: C3_5  and  N2_16
REMARK    5  A    between atoms: C4_6  and  C5_7
REMARK    6  A    between atoms: C5_7  and  N1_8
REMARK    7  A    between atoms: N1_8  and  C6_10
REMARK    8  A    between atoms: C6_10  and  O2_11
REMARK    9  A    between atoms: N2_16  and  C10_18
REMARK   10  A    between atoms: C10_18  and  O3_19
REMARK   11  A    between atoms: C10_18  and  C11_21
REMARK   12  A    between atoms: C12_27  and  C13_28
REMARK   13  A    between atoms: C13_28  and  C14_29
REMARK   14  A    between atoms: C13_28  and  N14_53
REMARK   15  A    between atoms: C18_42  and  N10_43
REMARK   16  A    between atoms: N12_48  and  O5_49
ROOT
HETATM    1  C13 UNL     1       2.518   5.683   7.458  1.00  0.00     0.213 C
ENDROOT
BRANCH   1   2
HETATM    2  C12 UNL     1       3.723   4.932   7.756  1.00  0.00     0.094 A
HETATM    3  C11 UNL     1       4.503   4.929   8.857  1.00  0.00     0.109 A
HETATM    4  N3  UNL     1       5.505   4.006   8.520  1.00  0.00    -0.239 N
HETATM    5  O4  UNL     1       5.284   3.562   7.364  1.00  0.00    -0.157 OA
ATOM      6  H3  UNL     1       6.288   3.739   9.118  1.00  0.00     0.196 HD
HETATM    7  N4  UNL     1       4.246   4.055   6.828  1.00  0.00    -0.241 N
ATOM      8  H4  UNL     1       3.873   3.846   5.902  1.00  0.00     0.196 HD
BRANCH   3   9
HETATM    9  C10 UNL     1       4.508   5.564  10.159  1.00  0.00     0.269 C
BRANCH   9  10
HETATM   10  N2  UNL     1       4.727   5.048  11.395  1.00  0.00    -0.385 N
ATOM     11  H2  UNL     1       5.711   5.015  11.659  1.00  0.00     0.156 HD
BRANCH  10  12
HETATM   12  C3  UNL     1       3.882   4.564  12.353  1.00  0.00     0.109 C
BRANCH  12  13
HETATM   13  C2  UNL     1       3.867   3.053  12.444  1.00  0.00     0.136 C
HETATM   14  C1  UNL     1       3.093   2.747  13.751  1.00  0.00     0.041 C
BRANCH  13  15
HETATM   15  O1  UNL     1       2.905   2.624  11.454  1.00  0.00    -0.394 OA
ATOM     16  H1  UNL     1       2.600   1.813  11.843  1.00  0.00     0.210 HD
ENDBRANCH  13  15
ENDBRANCH  12  13
BRANCH  12  17
HETATM   17  C4  UNL     1       2.448   5.034  12.440  1.00  0.00     0.046 C
BRANCH  17  18
HETATM   18  C5  UNL     1       2.350   6.467  12.871  1.00  0.00     0.119 C
BRANCH  18  19
HETATM   19  N1  UNL     1       1.380   6.740  13.885  1.00  0.00    -0.392 N
ATOM     20  H1  UNL     1       0.385   6.629  13.692  1.00  0.00     0.156 HD
BRANCH  19  21
HETATM   21  C6  UNL     1       1.820   7.165  15.153  1.00  0.00     0.127 C
HETATM   22  C7  UNL     1       2.554   8.510  15.065  1.00  0.00     0.060 C
HETATM   23  C8  UNL     1       3.472   7.976  16.182  1.00  0.00     0.010 C
HETATM   24  C9  UNL     1       3.143   6.580  15.641  1.00  0.00     0.060 C
BRANCH  21  25
HETATM   25  O2  UNL     1       0.909   7.248  16.202  1.00  0.00    -0.371 OA
ATOM     26  H2  UNL     1       0.942   7.991  16.792  1.00  0.00     0.212 HD
ENDBRANCH  21  25
ENDBRANCH  19  21
ENDBRANCH  18  19
ENDBRANCH  17  18
ENDBRANCH  12  17
ENDBRANCH  10  12
ENDBRANCH   9  10
BRANCH   9  27
HETATM   27  O3  UNL     1       5.560   6.590   9.991  1.00  0.00    -0.371 OA
ATOM     28  H3  UNL     1       6.364   6.152  10.244  1.00  0.00     0.212 HD
ENDBRANCH   9  27
ENDBRANCH   3   9
ENDBRANCH   1   2
BRANCH   1  29
HETATM   29  C14 UNL     1       1.297   5.268   8.239  1.00  0.00     0.128 A
HETATM   30  N5  UNL     1       0.157   5.944   8.037  1.00  0.00    -0.337 N
HETATM   31  C15 UNL     1      -0.981   5.603   8.670  1.00  0.00     0.126 A
ATOM     32  H5  UNL     1       0.152   6.733   7.391  1.00  0.00     0.167 HD
HETATM   33  C16 UNL     1      -2.141   6.299   8.433  1.00  0.00     0.162 A
HETATM   34  C19 UNL     1      -0.925   4.515   9.550  1.00  0.00     0.223 A
HETATM   35  N6  UNL     1      -2.134   7.401   7.521  1.00  0.00    -0.080 NA
HETATM   36  N7  UNL     1      -3.239   5.907   9.074  1.00  0.00    -0.174 N
HETATM   37  C17 UNL     1      -3.234   4.867   9.929  1.00  0.00     0.721 A
ATOM     38  H7  UNL     1      -4.111   6.411   8.913  1.00  0.00     0.185 HD
HETATM   39  N8  UNL     1      -4.200   4.293  10.673  1.00  0.00    -0.117 N
HETATM   40  N11 UNL     1      -2.081   4.165  10.174  1.00  0.00     0.047 N
HETATM   41  N9  UNL     1      -3.685   3.305  11.332  1.00  0.00    -0.117 N
ATOM     42  H8  UNL     1      -5.176   4.588  10.711  1.00  0.00     0.206 HD
HETATM   43  C18 UNL     1      -2.348   3.199  11.037  1.00  0.00     0.714 A
ATOM     44  H9  UNL     1      -4.195   2.697  11.974  1.00  0.00     0.206 HD
HETATM   45  N12 UNL     1       0.208   3.847   9.751  1.00  0.00    -0.141 N
HETATM   46  N13 UNL     1       1.314   4.243   9.080  1.00  0.00    -0.259 N
ATOM     47  H13 UNL     1       2.188   3.738   9.226  1.00  0.00     0.191 HD
BRANCH  43  48
HETATM   48  N10 UNL     1      -1.659   2.307  11.577  1.00  0.00    -0.232 N
ATOM     49 2H10 UNL     1      -1.281   2.178  12.516  1.00  0.00     0.174 HD
ATOM     50 1H10 UNL     1      -1.371   1.490  11.038  1.00  0.00     0.174 HD
ENDBRANCH  43  48
BRANCH  45  51
HETATM   51  O5  UNL     1       0.343   2.793  10.571  1.00  0.00    -0.266 OA
ATOM     52  H5  UNL     1       1.043   2.682  11.204  1.00  0.00     0.247 HD
ENDBRANCH  45  51
ENDBRANCH   1  29
BRANCH   1  53
HETATM   53  N14 UNL     1       2.100   5.432   6.061  1.00  0.00    -0.334 N
HETATM   54  C20 UNL     1       1.559   4.311   5.568  1.00  0.00     0.110 A
HETATM   55  C21 UNL     1       1.317   4.477   4.222  1.00  0.00     0.106 A
HETATM   56  N15 UNL     1       1.726   5.733   3.915  1.00  0.00    -0.361 N
HETATM   57  C22 UNL     1       2.200   6.295   5.051  1.00  0.00     0.183 A
ATOM     58  H15 UNL     1       1.684   6.174   2.996  1.00  0.00     0.166 HD
ENDBRANCH   1  53
TORSDOF 16
ENDMDL