MODEL 2
REMARK VINA RESULT: -7.427266665      0.615      1.025
REMARK  7 active torsions:
REMARK  status: ('A' for Active; 'I' for Inactive)
REMARK    1  A    between atoms: O1_1  and  C1_3
REMARK    2  A    between atoms: C1_3  and  C2_4
REMARK    3  A    between atoms: N1_13  and  C10_14
REMARK    4  A    between atoms: C10_14  and  C11_15
REMARK    5  A    between atoms: C14_18  and  N2_19
REMARK    6  A    between atoms: N2_19  and  C15_22
REMARK    7  A    between atoms: C15_22  and  C16_23
ROOT
HETATM    1  C11 UNL     1      25.623   1.843  52.615  1.00  0.00     0.003 C
HETATM    2  C12 UNL     1      25.534   2.225  54.033  1.00  0.00     0.008 C
HETATM    3  C13 UNL     1      24.399   3.159  54.365  1.00  0.00     0.033 C
HETATM    4  C14 UNL     1      23.182   2.639  53.634  1.00  0.00     0.186 C
HETATM    5  C21 UNL     1      23.425   2.980  52.173  1.00  0.00     0.033 C
HETATM    6  C22 UNL     1      24.479   1.994  51.717  1.00  0.00     0.008 C
ENDROOT
BRANCH   1   7
HETATM    7  C10 UNL     1      26.875   2.450  51.976  1.00  0.00     0.121 C
BRANCH   7   8
HETATM    8  N1  UNL     1      27.485   1.527  51.079  1.00  0.00    -0.412 N
HETATM    9  C9  UNL     1      28.260   2.136  50.037  1.00  0.00     0.120 C
HETATM   10  C8  UNL     1      29.621   1.499  49.967  1.00  0.00     0.062 C
HETATM   11  C1  UNL     1      29.465   0.053  49.575  1.00  0.00     0.088 C
HETATM   12  C24 UNL     1      28.396  -0.587  50.371  1.00  0.00     0.062 C
HETATM   13  C23 UNL     1      27.976   0.306  51.561  1.00  0.00     0.120 C
BRANCH  11  14
HETATM   14  O1  UNL     1      29.137   0.028  48.200  1.00  0.00    -0.385 OA
ATOM     15  H1  UNL     1      28.720   0.861  48.013  1.00  0.00     0.211 HD
ENDBRANCH  11  14
BRANCH  11  16
HETATM   16  C2  UNL     1      30.796  -0.585  49.692  1.00  0.00    -0.024 A
HETATM   17  C3  UNL     1      31.256  -1.263  48.575  1.00  0.00     0.013 A
HETATM   18  C4  UNL     1      32.490  -1.870  48.548  1.00  0.00     0.043 A
HETATM   19  C5  UNL     1      33.289  -1.811  49.651  1.00  0.00     0.116 A
HETATM   20  F1  UNL     1      34.511  -2.376  49.723  1.00  0.00    -0.206 F
HETATM   21  C6  UNL     1      32.850  -1.134  50.789  1.00  0.00     0.043 A
HETATM   22  C7  UNL     1      31.603  -0.539  50.776  1.00  0.00     0.013 A
ENDBRANCH  11  16
ENDBRANCH   7   8
ENDBRANCH   1   7
BRANCH   4  23
HETATM   23  N2  UNL     1      21.931   3.071  54.151  1.00  0.00    -0.070 N
ATOM     24  H22 UNL     1      21.350   2.302  54.484  1.00  0.00     0.277 HD
ATOM     25  H21 UNL     1      22.016   3.566  55.040  1.00  0.00     0.277 HD
BRANCH  23  26
HETATM   26  C15 UNL     1      21.288   3.864  53.117  1.00  0.00     0.237 C
BRANCH  26  27
HETATM   27  C16 UNL     1      20.500   5.019  53.630  1.00  0.00     0.015 C
HETATM   28  C17 UNL     1      19.495   4.447  54.640  1.00  0.00     0.032 C
HETATM   29  C18 UNL     1      18.481   5.502  55.024  1.00  0.00     0.168 C
HETATM   30  O2  UNL     1      17.785   5.843  53.866  1.00  0.00    -0.391 OA
HETATM   31  C19 UNL     1      18.632   6.589  53.073  1.00  0.00     0.168 C
HETATM   32  C20 UNL     1      19.829   5.819  52.563  1.00  0.00     0.032 C
ENDBRANCH  26  27
ENDBRANCH  23  26
ENDBRANCH   4  23
TORSDOF 7
ENDMDL