MODEL 2
REMARK VINA RESULT: -6.442490225      4.092      8.362
REMARK  8 active torsions:
REMARK  status: ('A' for Active; 'I' for Inactive)
REMARK    1  A    between atoms: C2_2  and  C3_3
REMARK       I    between atoms: C3_3  and  N1_5
REMARK    2  A    between atoms: N1_5  and  C4_7
REMARK    3  A    between atoms: C4_7  and  C5_8
REMARK    4  A    between atoms: N2_11  and  C8_12
REMARK    5  A    between atoms: C9_15  and  N4_16
REMARK    6  A    between atoms: N4_16  and  C10_18
REMARK    7  A    between atoms: C10_18  and  C11_19
REMARK    8  A    between atoms: C15_23  and  C16_24
ROOT
HETATM    1  C8  UNL     1      27.324   0.233  51.377  1.00  0.00     0.682 A
HETATM    2  N3  UNL     1      26.743  -0.818  51.971  1.00  0.00    -0.177 N
ATOM      3  H3  UNL     1      27.302  -1.659  52.106  1.00  0.00     0.185 HD
HETATM    4  C9  UNL     1      25.452  -0.834  52.408  1.00  0.00     0.118 A
HETATM    5  C14 UNL     1      24.747   0.332  52.201  1.00  0.00     0.076 A
HETATM    6  C15 UNL     1      25.312   1.449  51.590  1.00  0.00     0.053 A
HETATM    7  N5  UNL     1      26.590   1.354  51.197  1.00  0.00    -0.193 N
ATOM      8  H5  UNL     1      27.025   2.158  50.746  1.00  0.00     0.184 HD
ENDROOT
BRANCH   1   9
HETATM    9  N2  UNL     1      28.665   0.160  50.925  1.00  0.00    -0.218 N
HETATM   10  C7  UNL     1      29.205  -1.183  50.737  1.00  0.00     0.141 C
HETATM   11  C6  UNL     1      30.252  -1.203  49.677  1.00  0.00     0.027 C
HETATM   12  C5  UNL     1      31.353  -0.186  49.927  1.00  0.00     0.006 C
HETATM   13  C20 UNL     1      30.942   0.896  50.893  1.00  0.00     0.027 C
HETATM   14  C19 UNL     1      29.510   1.278  50.622  1.00  0.00     0.141 C
BRANCH  12  15
HETATM   15  C4  UNL     1      32.588  -0.848  50.471  1.00  0.00     0.127 C
BRANCH  15  16
HETATM   16  N1  UNL     1      32.598  -0.832  51.903  1.00  0.00    -0.361 N
HETATM   17  C3  UNL     1      33.704  -0.368  52.677  1.00  0.00     0.217 C
HETATM   18  O1  UNL     1      34.749   0.053  52.097  1.00  0.00    -0.274 OA
ATOM     19  H1  UNL     1      31.771  -1.170  52.397  1.00  0.00     0.162 HD
BRANCH  17  20
HETATM   20  C2  UNL     1      33.698  -0.352  54.160  1.00  0.00     0.098 C
HETATM   21  C1  UNL     1      32.706   0.713  54.630  1.00  0.00     0.014 C
ENDBRANCH  17  20
ENDBRANCH  15  16
ENDBRANCH  12  15
ENDBRANCH   1   9
BRANCH   4  22
HETATM   22  N4  UNL     1      24.969  -1.890  52.967  1.00  0.00    -0.375 N
ATOM     23  H4  UNL     1      24.004  -2.155  52.771  1.00  0.00     0.161 HD
BRANCH  22  24
HETATM   24  C10 UNL     1      25.737  -2.693  53.843  1.00  0.00     0.126 C
BRANCH  24  25
HETATM   25  C11 UNL     1      26.044  -4.077  53.288  1.00  0.00     0.003 A
HETATM   26  C12 UNL     1      27.405  -4.627  53.736  1.00  0.00     0.007 A
HETATM   27  C13 UNL     1      27.171  -4.215  52.316  1.00  0.00     0.007 A
ENDBRANCH  24  25
ENDBRANCH  22  24
ENDBRANCH   4  22
BRANCH   6  28
HETATM   28  C16 UNL     1      24.482   2.665  51.424  1.00  0.00     0.072 C
HETATM   29  C17 UNL     1      25.453   3.824  51.219  1.00  0.00     0.039 C
HETATM   30  C18 UNL     1      23.470   2.589  50.330  1.00  0.00     0.039 C
HETATM   31 CL1  UNL     1      23.629   2.959  52.954  1.00  0.00    -0.113 Cl
ENDBRANCH   6  28
TORSDOF 8
ENDMDL