MODEL 1
REMARK VINA RESULT: -7.265262238      0.000      0.000
REMARK  6 active torsions:
REMARK  status: ('A' for Active; 'I' for Inactive)
REMARK       I    between atoms: C1_2  and  N1_3
REMARK       I    between atoms: C1_2  and  N2_12
REMARK    1  A    between atoms: N1_3  and  C2_5
REMARK    2  A    between atoms: N2_12  and  C8_13
REMARK    3  A    between atoms: N2_12  and  C19_27
REMARK    4  A    between atoms: C8_13  and  C9_14
REMARK    5  A    between atoms: C12_17  and  N3_18
REMARK    6  A    between atoms: C19_27  and  C20_28
ROOT
HETATM    1  O1  UNL     1      28.437   0.344  49.824  1.00  0.00    -0.247 OA
HETATM    2  C1  UNL     1      28.927   0.751  50.899  1.00  0.00     0.323 C
HETATM    3  N1  UNL     1      28.606   2.015  51.408  1.00  0.00    -0.309 N
ATOM      4  H1  UNL     1      29.025   2.295  52.295  1.00  0.00     0.170 HD
HETATM    5  N2  UNL     1      29.812  -0.110  51.577  1.00  0.00    -0.327 N
ENDROOT
BRANCH   5   6
HETATM    6  C8  UNL     1      30.064  -1.418  50.987  1.00  0.00     0.166 C
BRANCH   6   7
HETATM    7  C9  UNL     1      29.245  -2.417  51.697  1.00  0.00    -0.040 A
HETATM    8  C10 UNL     1      29.782  -3.098  52.780  1.00  0.00     0.011 A
HETATM    9  C11 UNL     1      28.990  -4.024  53.419  1.00  0.00     0.030 A
HETATM   10  C12 UNL     1      27.708  -4.303  53.041  1.00  0.00     0.030 A
HETATM   11  C17 UNL     1      27.196  -3.600  51.946  1.00  0.00     0.030 A
HETATM   12  C18 UNL     1      27.961  -2.663  51.279  1.00  0.00     0.011 A
BRANCH  10  13
HETATM   13  N3  UNL     1      26.836  -5.236  53.638  1.00  0.00    -0.378 N
HETATM   14  C13 UNL     1      26.508  -5.174  55.038  1.00  0.00     0.142 C
HETATM   15  C14 UNL     1      25.022  -4.911  55.222  1.00  0.00     0.133 C
HETATM   16  N4  UNL     1      24.332  -5.665  54.218  1.00  0.00    -0.418 N
HETATM   17  C15 UNL     1      25.038  -6.818  53.731  1.00  0.00     0.133 C
ATOM     18  H4  UNL     1      23.408  -5.403  53.874  1.00  0.00     0.153 HD
HETATM   19  C16 UNL     1      26.209  -6.312  52.882  1.00  0.00     0.142 C
ENDBRANCH  10  13
ENDBRANCH   6   7
ENDBRANCH   5   6
BRANCH   5  20
HETATM   20  C19 UNL     1      30.453   0.316  52.787  1.00  0.00     0.159 C
BRANCH  20  21
HETATM   21  C20 UNL     1      31.814  -0.232  53.016  1.00  0.00     0.139 C
HETATM   22  C21 UNL     1      32.306   0.154  54.414  1.00  0.00     0.035 C
HETATM   23  C22 UNL     1      33.788  -0.153  54.276  1.00  0.00     0.029 C
HETATM   24  C23 UNL     1      33.958  -0.281  52.790  1.00  0.00     0.168 C
HETATM   25  O2  UNL     1      32.817   0.314  52.231  1.00  0.00    -0.384 OA
ENDBRANCH  20  21
ENDBRANCH   5  20
BRANCH   3  26
HETATM   26  C2  UNL     1      27.734   2.931  50.767  1.00  0.00     0.036 A
HETATM   27  C3  UNL     1      26.421   3.007  51.207  1.00  0.00     0.032 A
HETATM   28  C4  UNL     1      25.534   3.900  50.645  1.00  0.00     0.044 A
HETATM   29  C5  UNL     1      25.958   4.733  49.626  1.00  0.00     0.116 A
HETATM   30  F1  UNL     1      25.091   5.617  49.066  1.00  0.00    -0.206 F
HETATM   31  C6  UNL     1      27.260   4.656  49.195  1.00  0.00     0.044 A
HETATM   32  C7  UNL     1      28.171   3.745  49.766  1.00  0.00     0.032 A
ENDBRANCH   3  26
TORSDOF 6
ENDMDL