MODEL 5
REMARK VINA RESULT: -6.818496068      2.252      5.763
REMARK  7 active torsions:
REMARK  status: ('A' for Active; 'I' for Inactive)
REMARK       I    between atoms: C1_2  and  N1_3
REMARK    1  A    between atoms: C1_2  and  C14_18
REMARK    2  A    between atoms: N1_3  and  C2_5
REMARK    3  A    between atoms: N2_9  and  C6_10
REMARK    4  A    between atoms: C6_10  and  C7_11
REMARK    5  A    between atoms: C7_11  and  C8_12
REMARK    6  A    between atoms: C17_25  and  N5_26
REMARK    7  A    between atoms: N5_26  and  C18_27
ROOT
HETATM    1  O1  UNL     1      23.830   2.314  50.726  1.00  0.00    -0.267 OA
HETATM    2  C1  UNL     1      24.340   2.376  51.889  1.00  0.00     0.258 C
HETATM    3  N1  UNL     1      25.689   2.713  51.997  1.00  0.00    -0.348 N
ATOM      4  H1  UNL     1      26.096   2.762  52.931  1.00  0.00     0.163 HD
ENDROOT
BRANCH   2   5
HETATM    5  C14 UNL     1      23.481   2.084  53.018  1.00  0.00     0.105 A
HETATM    6  C15 UNL     1      22.637   3.037  53.505  1.00  0.00     0.111 A
HETATM    7  N3  UNL     1      21.811   2.749  54.518  1.00  0.00    -0.361 N
HETATM    8  C16 UNL     1      21.832   1.518  55.034  1.00  0.00     0.182 A
ATOM      9  H3  UNL     1      21.177   3.457  54.888  1.00  0.00     0.166 HD
HETATM   10  N4  UNL     1      22.623   0.544  54.614  1.00  0.00    -0.326 N
HETATM   11  C17 UNL     1      23.498   0.768  53.581  1.00  0.00     0.197 A
ATOM     12  H4  UNL     1      22.583  -0.373  55.059  1.00  0.00     0.169 HD
BRANCH  11  13
HETATM   13  N5  UNL     1      24.269  -0.003  53.157  1.00  0.00    -0.386 NA
BRANCH  13  14
HETATM   14  C18 UNL     1      25.133  -0.883  52.755  1.00  0.00     0.109 A
HETATM   15  C19 UNL     1      25.525  -2.009  53.556  1.00  0.00     0.048 A
HETATM   16  C20 UNL     1      26.425  -2.927  53.141  1.00  0.00     0.045 A
HETATM   17  C21 UNL     1      27.013  -2.817  51.915  1.00  0.00     0.116 A
HETATM   18  F1  UNL     1      27.925  -3.724  51.462  1.00  0.00    -0.206 F
HETATM   19  C22 UNL     1      26.685  -1.765  51.098  1.00  0.00     0.045 A
HETATM   20  C23 UNL     1      25.778  -0.833  51.503  1.00  0.00     0.048 A
ENDBRANCH  13  14
ENDBRANCH  11  13
ENDBRANCH   2   5
BRANCH   3  21
HETATM   21  C2  UNL     1      26.549   2.999  50.864  1.00  0.00     0.123 C
HETATM   22  C3  UNL     1      26.953   4.412  50.719  1.00  0.00     0.036 C
HETATM   23  C4  UNL     1      27.553   4.508  49.301  1.00  0.00     0.047 C
HETATM   24  C5  UNL     1      28.846   3.750  49.379  1.00  0.00     0.063 C
HETATM   25  N2  UNL     1      28.683   2.457  49.861  1.00  0.00    -0.372 N
HETATM   26  C13 UNL     1      27.748   2.097  50.827  1.00  0.00     0.088 C
BRANCH  25  27
HETATM   27  C6  UNL     1      29.915   1.687  49.943  1.00  0.00     0.127 C
BRANCH  27  28
HETATM   28  C7  UNL     1      29.730   0.276  49.517  1.00  0.00     0.024 C
BRANCH  28  29
HETATM   29  C8  UNL     1      30.507  -0.732  50.278  1.00  0.00    -0.013 C
HETATM   30  C9  UNL     1      30.085  -0.834  51.720  1.00  0.00     0.005 C
HETATM   31  C10 UNL     1      31.194  -1.678  52.302  1.00  0.00     0.000 C
HETATM   32  C11 UNL     1      32.398  -1.428  51.458  1.00  0.00     0.000 C
HETATM   33  C12 UNL     1      31.974  -0.398  50.406  1.00  0.00     0.005 C
ENDBRANCH  28  29
ENDBRANCH  27  28
ENDBRANCH  25  27
ENDBRANCH   3  21
TORSDOF 7
ENDMDL