MODEL 1
REMARK VINA RESULT: -7.973797624      0.000      0.000
REMARK  5 active torsions:
REMARK  status: ('A' for Active; 'I' for Inactive)
REMARK       I    between atoms: C1_2  and  N1_3
REMARK    1  A    between atoms: C1_2  and  C18_25
REMARK    2  A    between atoms: N1_3  and  C2_5
REMARK    3  A    between atoms: C2_5  and  C3_6
REMARK    4  A    between atoms: C2_5  and  C6_9
REMARK    5  A    between atoms: C21_28  and  N3_29
ROOT
HETATM    1  C6  UNL     1      27.798  -0.353  53.156  1.00  0.00     0.127 C
HETATM    2  C7  UNL     1      28.646   0.745  53.664  1.00  0.00    -0.004 C
HETATM    3  C8  UNL     1      29.826   1.316  53.414  1.00  0.00    -0.024 C
HETATM    4  C9  UNL     1      30.866   1.020  52.399  1.00  0.00     0.009 C
HETATM    5  C10 UNL     1      31.928   0.153  52.973  1.00  0.00     0.013 C
HETATM    6  C11 UNL     1      32.181  -1.159  52.369  1.00  0.00    -0.007 C
HETATM    7  C12 UNL     1      31.710  -1.317  50.942  1.00  0.00     0.015 C
HETATM    8  C13 UNL     1      30.270  -0.949  50.925  1.00  0.00     0.038 C
HETATM    9  C14 UNL     1      30.201   0.532  51.178  1.00  0.00     0.019 C
HETATM   10  C15 UNL     1      29.406  -1.769  51.873  1.00  0.00     0.059 C
HETATM   11  N2  UNL     1      28.232  -1.070  52.073  1.00  0.00    -0.381 N
ATOM     12  H2  UNL     1      27.583  -1.091  51.286  1.00  0.00     0.160 HD
HETATM   13  C16 UNL     1      30.092  -2.474  52.954  1.00  0.00     0.282 C
HETATM   14  F1  UNL     1      29.603  -2.216  54.241  1.00  0.00    -0.200 F
HETATM   15  F2  UNL     1      29.889  -3.879  52.909  1.00  0.00    -0.200 F
HETATM   16  C17 UNL     1      31.576  -2.342  53.075  1.00  0.00     0.090 C
ENDROOT
BRANCH   1  17
HETATM   17  C2  UNL     1      26.482   0.308  52.710  1.00  0.00     0.115 C
BRANCH  17  18
HETATM   18  N1  UNL     1      26.742   1.227  51.612  1.00  0.00    -0.348 N
HETATM   19  C1  UNL     1      26.467   2.611  51.682  1.00  0.00     0.275 C
HETATM   20  O1  UNL     1      25.977   3.070  52.742  1.00  0.00    -0.265 OA
ATOM     21  H1  UNL     1      27.141   0.854  50.750  1.00  0.00     0.163 HD
BRANCH  19  22
HETATM   22  C18 UNL     1      26.724   3.533  50.591  1.00  0.00     0.145 A
HETATM   23  C19 UNL     1      25.803   4.516  50.210  1.00  0.00     0.047 A
HETATM   24  C20 UNL     1      26.363   5.206  49.154  1.00  0.00     0.066 A
HETATM   25  C21 UNL     1      27.588   4.615  48.944  1.00  0.00     0.215 A
HETATM   26  O4  UNL     1      27.746   3.649  49.808  1.00  0.00    -0.283 OA
BRANCH  25  27
HETATM   27  N3  UNL     1      28.519   5.011  47.940  1.00  0.00    -0.090 N
HETATM   28  O2  UNL     1      28.200   5.090  46.738  1.00  0.00    -0.530 OA
HETATM   29  O3  UNL     1      29.818   5.326  48.258  1.00  0.00    -0.530 OA
ENDBRANCH  25  27
ENDBRANCH  19  22
ENDBRANCH  17  18
BRANCH  17  30
HETATM   30  C3  UNL     1      25.483  -0.707  52.186  1.00  0.00     0.011 A
HETATM   31  C4  UNL     1      24.210  -0.759  52.988  1.00  0.00     0.007 A
HETATM   32  C5  UNL     1      24.196  -0.266  51.577  1.00  0.00     0.007 A
ENDBRANCH  17  30
ENDBRANCH   1  17
TORSDOF 5
ENDMDL