MODEL 2
REMARK VINA RESULT: -7.183201075      2.985      4.506
REMARK  7 active torsions:
REMARK  status: ('A' for Active; 'I' for Inactive)
REMARK    1  A    between atoms: C1_2  and  C2_4
REMARK    2  A    between atoms: N2_7  and  C5_8
REMARK    3  A    between atoms: C5_8  and  C6_9
REMARK    4  A    between atoms: C9_12  and  C10_13
REMARK    5  A    between atoms: C10_13  and  C11_14
REMARK    6  A    between atoms: C11_14  and  N3_15
REMARK    7  A    between atoms: N3_15  and  C12_17
ROOT
HETATM    1  C6  UNL     1      28.499  -0.186  52.287  1.00  0.00     0.014 C
HETATM    2  C7  UNL     1      27.767   0.017  53.597  1.00  0.00     0.007 C
HETATM    3  C8  UNL     1      27.292  -1.286  54.168  1.00  0.00     0.005 C
HETATM    4  C9  UNL     1      26.236  -1.923  53.286  1.00  0.00    -0.013 C
HETATM    5  C19 UNL     1      26.463  -1.609  51.832  1.00  0.00     0.005 C
HETATM    6  C20 UNL     1      27.873  -1.290  51.467  1.00  0.00     0.007 C
ENDROOT
BRANCH   4   7
HETATM    7  C10 UNL     1      24.915  -1.241  53.659  1.00  0.00     0.024 C
BRANCH   7   8
HETATM    8  C11 UNL     1      24.275  -0.720  52.402  1.00  0.00     0.122 C
BRANCH   8   9
HETATM    9  N3  UNL     1      23.808   0.641  52.678  1.00  0.00    -0.370 N
ATOM     10  H3  UNL     1      23.102   0.850  53.383  1.00  0.00     0.161 HD
BRANCH   9  11
HETATM   11  C12 UNL     1      24.373   1.570  51.941  1.00  0.00     0.145 A
HETATM   12  N4  UNL     1      25.665   1.706  51.644  1.00  0.00    -0.336 N
HETATM   13  C13 UNL     1      26.041   2.703  50.889  1.00  0.00     0.054 A
ATOM     14  H4  UNL     1      26.350   1.040  52.001  1.00  0.00     0.168 HD
HETATM   15  C14 UNL     1      27.357   3.002  50.471  1.00  0.00     0.073 A
HETATM   16  C18 UNL     1      25.069   3.563  50.440  1.00  0.00     0.035 A
HETATM   17  C15 UNL     1      27.591   4.092  49.672  1.00  0.00     0.118 A
HETATM   18  F1  UNL     1      28.880   4.354  49.279  1.00  0.00    -0.206 F
HETATM   19  C16 UNL     1      26.627   4.960  49.216  1.00  0.00     0.044 A
HETATM   20  C17 UNL     1      25.342   4.673  49.620  1.00  0.00     0.024 A
HETATM   21  S1  UNL     1      23.656   2.888  51.132  1.00  0.00    -0.052 SA
ENDBRANCH   9  11
ENDBRANCH   8   9
ENDBRANCH   7   8
ENDBRANCH   4   7
BRANCH   1  22
HETATM   22  C5  UNL     1      29.896  -0.680  52.648  1.00  0.00     0.277 C
BRANCH  22  23
HETATM   23  N2  UNL     1      30.871   0.194  52.075  1.00  0.00     0.088 N
HETATM   24  C4  UNL     1      32.025  -0.522  51.564  1.00  0.00     0.273 C
HETATM   25  C3  UNL     1      31.602  -1.509  50.470  1.00  0.00     0.044 C
HETATM   26  C2  UNL     1      30.706  -0.759  49.525  1.00  0.00     0.078 C
HETATM   27  C22 UNL     1      30.758   0.729  49.686  1.00  0.00     0.044 C
HETATM   28  C21 UNL     1      30.348   1.116  51.103  1.00  0.00     0.273 C
BRANCH  26  29
HETATM   29  C1  UNL     1      31.088  -1.116  48.134  1.00  0.00     0.235 C
HETATM   30  N1  UNL     1      30.319  -0.532  47.094  1.00  0.00    -0.062 NA
HETATM   31  O1  UNL     1      32.057  -1.905  47.930  1.00  0.00    -0.277 OA
ENDBRANCH  26  29
ENDBRANCH  22  23
ENDBRANCH   1  22
TORSDOF 7
ENDMDL