MODEL 3
REMARK VINA RESULT: -6.466175992      0.915      1.024
REMARK  8 active torsions:
REMARK  status: ('A' for Active; 'I' for Inactive)
REMARK    1  A    between atoms: C2_2  and  C3_3
REMARK    2  A    between atoms: C3_3  and  O1_4
REMARK    3  A    between atoms: C3_3  and  C4_6
REMARK    4  A    between atoms: C5_7  and  C6_8
REMARK    5  A    between atoms: C7_9  and  C8_10
REMARK    6  A    between atoms: C13_16  and  O2_17
REMARK    7  A    between atoms: O2_17  and  C14_18
REMARK    8  A    between atoms: C16_21  and  O4_22
ROOT
HETATM    1  C8  UNL     1      27.446  -1.891  51.410  1.00  0.00     0.027 C
HETATM    2  C9  UNL     1      27.954  -3.225  51.916  1.00  0.00     0.066 C
HETATM    3 BR1  UNL     1      26.803  -4.035  53.199  1.00  0.00    -0.090 Br
HETATM    4  C10 UNL     1      29.305  -2.848  52.467  1.00  0.00     0.021 C
HETATM    5  C11 UNL     1      29.847  -1.931  51.391  1.00  0.00    -0.006 C
HETATM    6  C12 UNL     1      30.705  -0.871  51.994  1.00  0.00     0.040 C
HETATM    7  C13 UNL     1      30.937   0.324  51.136  1.00  0.00     0.161 C
HETATM    8  C16 UNL     1      30.095   0.337  49.874  1.00  0.00     0.150 C
HETATM    9  C18 UNL     1      28.677   0.024  50.343  1.00  0.00     0.040 C
HETATM   10  C19 UNL     1      28.669  -1.448  50.633  1.00  0.00     0.001 C
ENDROOT
BRANCH   1  11
HETATM   11  C7  UNL     1      27.159  -0.925  52.496  1.00  0.00    -0.021 C
HETATM   12  C6  UNL     1      26.123  -0.153  52.560  1.00  0.00    -0.004 C
BRANCH  12  13
HETATM   13  C5  UNL     1      25.065  -0.105  51.575  1.00  0.00    -0.001 C
HETATM   14  C4  UNL     1      23.920   0.534  51.786  1.00  0.00     0.008 C
BRANCH  14  15
HETATM   15  C3  UNL     1      23.720   1.224  53.080  1.00  0.00     0.163 C
BRANCH  15  16
HETATM   16  C2  UNL     1      23.220   2.609  52.872  1.00  0.00    -0.002 C
HETATM   17  C1  UNL     1      22.406   3.192  53.753  1.00  0.00     0.010 C
ENDBRANCH  15  16
BRANCH  15  18
HETATM   18  O1  UNL     1      22.738   0.547  53.840  1.00  0.00    -0.388 OA
ATOM     19  H1  UNL     1      21.898   0.910  53.586  1.00  0.00     0.210 HD
ENDBRANCH  15  18
ENDBRANCH  14  15
ENDBRANCH  12  13
ENDBRANCH   1  11
BRANCH   8  20
HETATM   20  O4  UNL     1      30.461  -0.694  49.020  1.00  0.00    -0.388 OA
HETATM   21  C17 UNL     1      30.296  -0.371  47.680  1.00  0.00     0.202 C
ENDBRANCH   8  20
BRANCH   7  22
HETATM   22  O2  UNL     1      32.296   0.555  50.845  1.00  0.00    -0.314 OA
BRANCH  22  23
HETATM   23  C14 UNL     1      33.320  -0.292  51.243  1.00  0.00     0.255 C
HETATM   24  C15 UNL     1      33.634  -1.530  50.489  1.00  0.00     0.126 C
HETATM   25  O3  UNL     1      34.000  -0.009  52.263  1.00  0.00    -0.266 OA
ENDBRANCH  22  23
ENDBRANCH   7  22
TORSDOF 8
ENDMDL