MODEL 4
REMARK VINA RESULT: -6.861481147      1.895      2.176
REMARK  6 active torsions:
REMARK  status: ('A' for Active; 'I' for Inactive)
REMARK       I    between atoms: C1_2  and  N1_3
REMARK    1  A    between atoms: C1_2  and  C9_15
REMARK    2  A    between atoms: N1_3  and  C2_5
REMARK    3  A    between atoms: C2_5  and  C3_6
REMARK    4  A    between atoms: C3_6  and  S1_7
REMARK    5  A    between atoms: S1_7  and  C4_8
REMARK    6  A    between atoms: C4_8  and  C5_9
ROOT
HETATM    1  O1  UNL     1      30.960   2.516  50.701  1.00  0.00    -0.273 OA
HETATM    2  C1  UNL     1      30.099   1.838  50.016  1.00  0.00     0.233 C
HETATM    3  N1  UNL     1      29.050   2.593  49.479  1.00  0.00    -0.360 N
ATOM      4  H1  UNL     1      28.338   2.118  48.923  1.00  0.00     0.162 HD
ENDROOT
BRANCH   2   5
HETATM    5  C9  UNL     1      30.349   0.411  49.910  1.00  0.00     0.197 C
HETATM    6  C10 UNL     1      30.063  -0.221  48.590  1.00  0.00     0.234 C
HETATM    7  O3  UNL     1      30.020   0.041  47.370  1.00  0.00    -0.273 OA
HETATM    8  N2  UNL     1      29.817  -1.418  49.314  1.00  0.00    -0.350 N
HETATM    9  C11 UNL     1      29.371  -0.584  50.428  1.00  0.00     0.053 C
ATOM     10  H2  UNL     1      29.911  -2.419  49.135  1.00  0.00     0.163 HD
HETATM   11  C12 UNL     1      29.712  -1.175  51.785  1.00  0.00     0.032 C
HETATM   12  C16 UNL     1      27.952  -0.176  50.381  1.00  0.00     0.032 C
HETATM   13  C13 UNL     1      29.095  -2.558  51.818  1.00  0.00     0.002 C
HETATM   14  C14 UNL     1      27.748  -2.574  51.136  1.00  0.00     0.000 C
HETATM   15  C15 UNL     1      27.110  -1.204  51.123  1.00  0.00     0.002 C
ENDBRANCH   2   5
BRANCH   3  16
HETATM   16  C2  UNL     1      28.933   4.030  49.681  1.00  0.00     0.132 C
BRANCH  16  17
HETATM   17  C3  UNL     1      27.588   4.542  49.247  1.00  0.00     0.094 C
BRANCH  17  18
HETATM   18  S1  UNL     1      26.265   4.076  50.311  1.00  0.00    -0.161 SA
BRANCH  18  19
HETATM   19  C4  UNL     1      26.426   4.184  52.049  1.00  0.00     0.139 C
BRANCH  19  20
HETATM   20  C5  UNL     1      27.058   3.053  52.738  1.00  0.00     0.063 A
HETATM   21  C6  UNL     1      26.522   1.973  53.384  1.00  0.00     0.054 A
HETATM   22  C7  UNL     1      27.548   1.190  53.866  1.00  0.00     0.035 A
HETATM   23 BR1  UNL     1      27.427  -0.437  54.847  1.00  0.00    -0.049 Br
HETATM   24  C8  UNL     1      28.701   1.846  53.480  1.00  0.00     0.161 A
HETATM   25  O2  UNL     1      28.367   2.924  52.827  1.00  0.00    -0.325 OA
ENDBRANCH  19  20
ENDBRANCH  18  19
ENDBRANCH  17  18
ENDBRANCH  16  17
ENDBRANCH   3  16
TORSDOF 6
ENDMDL