MODEL 3
REMARK VINA RESULT: -8.072928308      0.890      1.547
REMARK  6 active torsions:
REMARK  status: ('A' for Active; 'I' for Inactive)
REMARK    1  A    between atoms: C6_7  and  N1_8
REMARK    2  A    between atoms: N1_8  and  C7_10
REMARK    3  A    between atoms: C10_13  and  C11_14
REMARK    4  A    between atoms: C11_14  and  N2_15
REMARK    5  A    between atoms: N2_15  and  S1_17
REMARK    6  A    between atoms: S1_17  and  C12_20
ROOT
HETATM    1  C12 UNL     1      25.926   3.294  51.143  1.00  0.00     0.081 A
HETATM    2  C13 UNL     1      26.651   3.076  52.297  1.00  0.00     0.025 A
HETATM    3  C14 UNL     1      28.016   3.250  52.390  1.00  0.00     0.003 A
HETATM    4  C15 UNL     1      28.704   3.664  51.267  1.00  0.00     0.023 A
HETATM    5  C16 UNL     1      28.008   3.887  50.115  1.00  0.00     0.046 A
HETATM    6  C17 UNL     1      28.746   4.322  48.952  1.00  0.00     0.099 C
HETATM    7  N3  UNL     1      29.334   4.668  48.027  1.00  0.00    -0.191 NA
HETATM    8  C18 UNL     1      26.622   3.707  50.032  1.00  0.00     0.048 A
ENDROOT
BRANCH   1   9
HETATM    9  S1  UNL     1      24.206   3.022  51.192  1.00  0.00     0.258 S
HETATM   10  O1  UNL     1      23.709   3.365  52.562  1.00  0.00    -0.201 OA
HETATM   11  O2  UNL     1      23.557   3.898  50.157  1.00  0.00    -0.201 OA
BRANCH   9  12
HETATM   12  N2  UNL     1      23.813   1.373  50.873  1.00  0.00    -0.315 N
ATOM     13  H2  UNL     1      23.617   0.976  49.954  1.00  0.00     0.172 HD
BRANCH  12  14
HETATM   14  C11 UNL     1      23.808   0.660  52.097  1.00  0.00     0.136 C
BRANCH  14  15
HETATM   15  C10 UNL     1      24.613  -0.618  52.123  1.00  0.00     0.004 C
HETATM   16  C9  UNL     1      25.639  -0.619  51.015  1.00  0.00     0.008 C
HETATM   17  C8  UNL     1      26.686  -1.647  51.419  1.00  0.00     0.025 C
HETATM   18  C7  UNL     1      27.529  -0.976  52.461  1.00  0.00     0.077 C
HETATM   19  C20 UNL     1      26.672  -0.398  53.570  1.00  0.00     0.025 C
HETATM   20  C19 UNL     1      25.234  -0.773  53.483  1.00  0.00     0.008 C
BRANCH  18  21
HETATM   21  N1  UNL     1      28.400  -0.040  51.959  1.00  0.00    -0.413 N
ATOM     22  H1  UNL     1      28.235   0.915  52.278  1.00  0.00     0.154 HD
BRANCH  21  23
HETATM   23  C6  UNL     1      29.451  -0.184  51.101  1.00  0.00     0.080 C
HETATM   24  C5  UNL     1      29.257   0.309  49.677  1.00  0.00     0.025 C
HETATM   25  C4  UNL     1      30.308  -0.365  48.823  1.00  0.00     0.005 C
HETATM   26  C3  UNL     1      31.307  -1.172  49.578  1.00  0.00     0.043 C
HETATM   27  C2  UNL     1      31.842  -0.541  50.816  1.00  0.00     0.102 C
HETATM   28  C1  UNL     1      32.246  -1.623  51.788  1.00  0.00     0.051 C
HETATM   29  F1  UNL     1      32.921   0.301  50.587  1.00  0.00    -0.243 F
HETATM   30  C21 UNL     1      30.800   0.324  51.522  1.00  0.00     0.067 C
ENDBRANCH  21  23
ENDBRANCH  18  21
ENDBRANCH  14  15
ENDBRANCH  12  14
ENDBRANCH   9  12
ENDBRANCH   1   9
TORSDOF 6
ENDMDL