MODEL 1
REMARK VINA RESULT: -7.224919892      0.000      0.000
REMARK  6 active torsions:
REMARK  status: ('A' for Active; 'I' for Inactive)
REMARK    1  A    between atoms: O1_2  and  C2_3
REMARK    2  A    between atoms: N2_7  and  C4_9
REMARK    3  A    between atoms: C4_9  and  C5_10
REMARK    4  A    between atoms: C8_13  and  C9_14
REMARK       I    between atoms: C9_14  and  N3_16
REMARK    5  A    between atoms: N3_16  and  C10_18
REMARK    6  A    between atoms: C18_27  and  C19_28
ROOT
HETATM    1  C4  UNL     1      30.415  -0.281  49.289  1.00  0.00     0.126 C
ENDROOT
BRANCH   1   2
HETATM    2  N2  UNL     1      29.189  -0.074  49.996  1.00  0.00    -0.376 N
HETATM    3  C3  UNL     1      28.703   1.102  50.097  1.00  0.00     0.106 A
HETATM    4  N1  UNL     1      29.321   2.145  49.556  1.00  0.00    -0.308 N
HETATM    5  C17 UNL     1      27.525   1.275  50.779  1.00  0.00     0.078 A
HETATM    6  C2  UNL     1      28.816   3.385  49.660  1.00  0.00     0.225 A
ATOM      7  H1  UNL     1      30.196   2.003  49.051  1.00  0.00     0.171 HD
HETATM    8  N4  UNL     1      27.659   3.548  50.330  1.00  0.00    -0.322 N
HETATM    9  C18 UNL     1      27.000   2.531  50.892  1.00  0.00     0.044 A
ATOM     10  H4  UNL     1      27.271   4.487  50.412  1.00  0.00     0.169 HD
ATOM     11  H2  UNL     1      28.703  -0.866  50.418  1.00  0.00     0.161 HD
BRANCH   6  12
HETATM   12  O1  UNL     1      29.483   4.463  49.083  1.00  0.00    -0.327 OA
HETATM   13  C1  UNL     1      28.917   5.150  47.995  1.00  0.00     0.213 C
ENDBRANCH   6  12
BRANCH   9  14
HETATM   14  C19 UNL     1      25.722   2.702  51.633  1.00  0.00    -0.035 A
HETATM   15  C20 UNL     1      25.391   3.323  52.714  1.00  0.00    -0.017 A
HETATM   16  C21 UNL     1      24.015   2.947  52.645  1.00  0.00     0.032 A
HETATM   17  C22 UNL     1      24.347   2.232  51.417  1.00  0.00     0.044 A
ENDBRANCH   9  14
ENDBRANCH   1   2
BRANCH   1  18
HETATM   18  C5  UNL     1      31.351  -1.046  50.235  1.00  0.00     0.003 C
HETATM   19  C6  UNL     1      30.529  -1.540  51.377  1.00  0.00     0.007 C
HETATM   20  C7  UNL     1      31.195  -1.055  52.669  1.00  0.00     0.014 C
HETATM   21  C8  UNL     1      32.636  -1.576  52.591  1.00  0.00     0.078 C
HETATM   22  C15 UNL     1      33.373  -0.635  51.665  1.00  0.00     0.014 C
HETATM   23  C16 UNL     1      32.438  -0.088  50.628  1.00  0.00     0.007 C
BRANCH  21  24
HETATM   24  C9  UNL     1      33.260  -1.498  53.914  1.00  0.00     0.222 C
HETATM   25  O2  UNL     1      33.594  -2.550  54.500  1.00  0.00    -0.273 OA
HETATM   26  N3  UNL     1      33.468  -0.214  54.498  1.00  0.00    -0.356 N
ATOM     27  H3  UNL     1      33.189   0.635  54.005  1.00  0.00     0.162 HD
BRANCH  26  28
HETATM   28  C10 UNL     1      34.084  -0.142  55.801  1.00  0.00     0.087 C
HETATM   29  C11 UNL     1      33.582   1.080  56.547  1.00  0.00     0.028 C
HETATM   30  C12 UNL     1      34.649   1.237  57.614  1.00  0.00     0.039 C
HETATM   31  C13 UNL     1      35.921   0.826  56.937  1.00  0.00     0.172 C
HETATM   32  F1  UNL     1      36.591  -0.144  57.676  1.00  0.00    -0.249 F
HETATM   33  C14 UNL     1      35.555   0.240  55.596  1.00  0.00     0.062 C
ENDBRANCH  26  28
ENDBRANCH  21  24
ENDBRANCH   1  18
TORSDOF 6
ENDMDL