MODEL 2
REMARK VINA RESULT: -5.982866182      2.332      5.630
REMARK  4 active torsions:
REMARK  status: ('A' for Active; 'I' for Inactive)
REMARK    1  A    between atoms: N1_2  and  C2_5
REMARK    2  A    between atoms: C2_5  and  C3_6
REMARK    3  A    between atoms: C3_6  and  C4_7
REMARK    4  A    between atoms: C4_7  and  N2_8
ROOT
HETATM    1  N2  UNL     1      10.817  27.242   1.214  1.00  0.00    -0.351 N
HETATM    2  C5  UNL     1       9.377  27.231   1.204  1.00  0.00     0.127 C
HETATM    3  C6  UNL     1       8.927  26.059   2.012  1.00  0.00     0.048 C
HETATM    4  C7  UNL     1      10.199  25.304   2.356  1.00  0.00     0.113 C
HETATM    5  C8  UNL     1      10.088  24.965   3.849  1.00  0.00     0.130 C
HETATM    6  C9  UNL     1       8.952  24.021   3.959  1.00  0.00     0.220 C
HETATM    7  O1  UNL     1       8.253  24.001   4.998  1.00  0.00    -0.274 OA
HETATM    8  N3  UNL     1       8.620  23.121   2.915  1.00  0.00    -0.345 N
ATOM      9  H3  UNL     1       7.689  22.710   2.850  1.00  0.00     0.163 HD
HETATM   10  C10 UNL     1       9.647  22.805   1.942  1.00  0.00     0.087 C
HETATM   11  C11 UNL     1       8.997  22.133   0.754  1.00  0.00     0.046 C
HETATM   12  C12 UNL     1      10.594  21.798   2.563  1.00  0.00     0.046 C
HETATM   13  C13 UNL     1      10.336  24.063   1.577  1.00  0.00     0.172 C
HETATM   14  O2  UNL     1      11.048  24.069   0.587  1.00  0.00    -0.294 OA
HETATM   15  C14 UNL     1      11.277  26.267   2.124  1.00  0.00     0.236 C
HETATM   16  O3  UNL     1      12.415  26.194   2.675  1.00  0.00    -0.272 OA
ENDROOT
BRANCH   1  17
HETATM   17  C4  UNL     1      11.644  28.108   0.423  1.00  0.00     0.127 C
BRANCH  17  18
HETATM   18  C3  UNL     1      11.946  29.387   1.177  1.00  0.00     0.047 C
BRANCH  18  19
HETATM   19  C2  UNL     1      13.445  29.591   1.224  1.00  0.00     0.233 C
BRANCH  19  20
HETATM   20  N1  UNL     1      14.046  28.629   2.130  1.00  0.00    -0.079 N
HETATM   21  C1  UNL     1      15.279  28.100   1.637  1.00  0.00     0.266 C
ATOM     22  H12 UNL     1      13.390  27.880   2.355  1.00  0.00     0.276 HD
ATOM     23  H11 UNL     1      14.165  29.028   3.061  1.00  0.00     0.276 HD
ENDBRANCH  19  20
ENDBRANCH  18  19
ENDBRANCH  17  18
ENDBRANCH   1  17
TORSDOF 4
ENDMDL