MODEL 4
REMARK VINA RESULT: -6.471705344      2.136      4.176
REMARK  6 active torsions:
REMARK  status: ('A' for Active; 'I' for Inactive)
REMARK    1  A    between atoms: C2_4  and  N2_5
REMARK    2  A    between atoms: N2_5  and  C3_7
REMARK    3  A    between atoms: N4_13  and  C7_15
REMARK    4  A    between atoms: C7_15  and  C8_16
REMARK    5  A    between atoms: C8_16  and  C9_17
REMARK    6  A    between atoms: C9_17  and  N5_18
ROOT
HETATM    1  C3  UNL     1       9.262  26.438   2.264  1.00  0.00     0.684 A
HETATM    2  N3  UNL     1       9.697  25.263   1.787  1.00  0.00    -0.195 N
ATOM      3  H3  UNL     1      10.189  25.228   0.894  1.00  0.00     0.184 HD
HETATM    4  C4  UNL     1       9.487  24.124   2.485  1.00  0.00     0.036 A
HETATM    5  C5  UNL     1       8.815  24.182   3.706  1.00  0.00     0.009 A
HETATM    6  C6  UNL     1       8.386  25.389   4.162  1.00  0.00     0.125 A
HETATM    7  N4  UNL     1       7.763  25.566   5.214  1.00  0.00    -0.375 N
ATOM      8  H4  UNL     1       7.568  26.562   5.310  1.00  0.00     0.161 HD
HETATM    9  N6  UNL     1       8.619  26.539   3.419  1.00  0.00    -0.176 N
ATOM     10  H6  UNL     1       8.300  27.447   3.756  1.00  0.00     0.186 HD
HETATM   11  C12 UNL     1       8.655  22.888   4.379  1.00  0.00     0.044 C
HETATM   12  C13 UNL     1      10.037  22.194   4.216  1.00  0.00     0.005 C
HETATM   13  C14 UNL     1      10.099  21.711   2.793  1.00  0.00     0.006 C
HETATM   14  C15 UNL     1       9.985  22.870   1.874  1.00  0.00     0.058 C
ENDROOT
BRANCH   7  15
HETATM   15  C7  UNL     1       7.240  24.920   6.290  1.00  0.00     0.123 C
BRANCH  15  16
HETATM   16  C8  UNL     1       5.779  24.509   5.928  1.00  0.00     0.039 C
BRANCH  16  17
HETATM   17  C9  UNL     1       5.411  23.244   6.644  1.00  0.00     0.117 C
BRANCH  17  18
HETATM   18  N5  UNL     1       4.825  22.331   5.715  1.00  0.00    -0.421 N
HETATM   19  C10 UNL     1       4.882  22.753   4.349  1.00  0.00     0.142 C
HETATM   20  C11 UNL     1       5.097  20.953   5.924  1.00  0.00     0.142 C
ENDBRANCH  17  18
ENDBRANCH  16  17
ENDBRANCH  15  16
ENDBRANCH   7  15
BRANCH   1  21
HETATM   21  N2  UNL     1       9.462  27.530   1.597  1.00  0.00    -0.188 N
ATOM     22  H2  UNL     1       9.207  28.417   2.029  1.00  0.00     0.185 HD
BRANCH  21  23
HETATM   23  C2  UNL     1      10.014  27.545   0.305  1.00  0.00     0.193 C
HETATM   24  N1  UNL     1      10.975  28.345   0.015  1.00  0.00    -0.390 N
HETATM   25  C1  UNL     1      11.479  29.229   1.041  1.00  0.00     0.147 C
ATOM     26  H1  UNL     1      11.376  28.357  -0.923  1.00  0.00     0.159 HD
ENDBRANCH  21  23
ENDBRANCH   1  21
TORSDOF 6
ENDMDL