MODEL 5
REMARK VINA RESULT: -6.174832716      2.676      4.743
REMARK  4 active torsions:
REMARK  status: ('A' for Active; 'I' for Inactive)
REMARK    1  A    between atoms: N1_2  and  C3_4
REMARK    2  A    between atoms: C3_4  and  C4_5
REMARK    3  A    between atoms: C4_5  and  N2_6
REMARK    4  A    between atoms: C6_9  and  C7_10
ROOT
HETATM    1  N2  UNL     1       7.232  23.365   2.952  1.00  0.00    -0.312 N
HETATM    2  C5  UNL     1       6.388  23.566   4.101  1.00  0.00     0.237 C
HETATM    3  O1  UNL     1       6.866  24.475   4.870  1.00  0.00    -0.272 OA
HETATM    4  C6  UNL     1       5.148  23.021   4.623  1.00  0.00     0.170 C
HETATM    5  C9  UNL     1       4.383  22.123   3.774  1.00  0.00     0.235 C
HETATM    6  O2  UNL     1       3.627  21.285   4.384  1.00  0.00    -0.272 OA
HETATM    7  N3  UNL     1       4.364  22.055   2.363  1.00  0.00    -0.324 N
ATOM      8  H3  UNL     1       3.459  21.876   1.929  1.00  0.00     0.169 HD
HETATM    9  C10 UNL     1       5.466  22.208   1.487  1.00  0.00     0.068 A
HETATM   10  C11 UNL     1       5.205  21.707   0.230  1.00  0.00     0.106 A
HETATM   11  C12 UNL     1       6.156  21.750  -0.772  1.00  0.00     0.247 A
HETATM   12  O3  UNL     1       5.970  21.307  -1.940  1.00  0.00    -0.268 OA
HETATM   13  N4  UNL     1       7.352  22.309  -0.457  1.00  0.00    -0.331 N
ATOM     14  H4  UNL     1       8.066  22.350  -1.184  1.00  0.00     0.168 HD
HETATM   15  C13 UNL     1       7.653  22.805   0.738  1.00  0.00     0.123 A
HETATM   16  C14 UNL     1       6.729  22.776   1.749  1.00  0.00     0.080 A
ENDROOT
BRANCH   1  17
HETATM   17  C4  UNL     1       8.598  23.767   3.034  1.00  0.00     0.152 C
BRANCH  17  18
HETATM   18  C3  UNL     1       9.547  22.799   3.665  1.00  0.00     0.141 C
BRANCH  18  19
HETATM   19  N1  UNL     1      10.484  22.245   2.729  1.00  0.00    -0.402 N
HETATM   20  C1  UNL     1      10.855  21.048   2.703  1.00  0.00     0.114 C
HETATM   21  C2  UNL     1      11.071  23.139   1.741  1.00  0.00     0.148 C
ENDBRANCH  18  19
ENDBRANCH  17  18
ENDBRANCH   1  17
BRANCH   4  22
HETATM   22  C7  UNL     1       5.463  22.253   5.917  1.00  0.00     0.019 C
HETATM   23  C8  UNL     1       4.961  22.957   7.140  1.00  0.00     0.006 C
ENDBRANCH   4  22
TORSDOF 4
ENDMDL