MODEL 4
REMARK VINA RESULT: -6.856734571      2.031      7.373
REMARK  5 active torsions:
REMARK  status: ('A' for Active; 'I' for Inactive)
REMARK    1  A    between atoms: C9_15  and  C10_16
REMARK    2  A    between atoms: N3_17  and  O3_18
REMARK    3  A    between atoms: N3_17  and  C11_20
REMARK    4  A    between atoms: C11_20  and  C12_21
REMARK    5  A    between atoms: C12_21  and  N4_22
ROOT
HETATM    1  C1  UNL     1       6.284  22.649   2.081  1.00  0.00     0.049 C
HETATM    2  C2  UNL     1       7.481  23.448   2.435  1.00  0.00    -0.048 A
HETATM    3  C3  UNL     1       8.304  23.986   1.459  1.00  0.00     0.039 A
HETATM    4  C4  UNL     1       9.410  24.725   1.817  1.00  0.00     0.062 A
HETATM    5  N1  UNL     1      10.222  25.256   0.885  1.00  0.00    -0.317 N
ATOM      6  H1  UNL     1      10.018  25.112  -0.103  1.00  0.00     0.169 HD
HETATM    7  C5  UNL     1      11.308  25.979   1.249  1.00  0.00     0.314 A
HETATM    8  O1  UNL     1      12.065  26.474   0.374  1.00  0.00    -0.262 OA
HETATM    9  C6  UNL     1      11.621  26.200   2.580  1.00  0.00     0.314 A
HETATM   10  O2  UNL     1      12.625  26.870   2.940  1.00  0.00    -0.262 OA
HETATM   11  N2  UNL     1      10.802  25.664   3.500  1.00  0.00    -0.317 N
ATOM     12  H2  UNL     1      11.002  25.805   4.490  1.00  0.00     0.169 HD
HETATM   13  C7  UNL     1       9.717  24.941   3.139  1.00  0.00     0.063 A
HETATM   14  C8  UNL     1       8.870  24.386   4.110  1.00  0.00     0.045 A
HETATM   15  C9  UNL     1       7.755  23.642   3.790  1.00  0.00    -0.010 A
ENDROOT
BRANCH  15  16
HETATM   16  C10 UNL     1       6.884  23.071   4.773  1.00  0.00     0.128 C
HETATM   17  N3  UNL     1       6.007  23.583   5.509  1.00  0.00    -0.270 N
BRANCH  17  18
HETATM   18  O3  UNL     1       5.671  24.898   5.532  1.00  0.00    -0.288 OA
ATOM     19  H3  UNL     1       5.699  25.458   6.298  1.00  0.00     0.244 HD
ENDBRANCH  17  18
BRANCH  17  20
HETATM   20  C11 UNL     1       5.257  22.722   6.443  1.00  0.00     0.185 C
BRANCH  20  21
HETATM   21  C12 UNL     1       4.159  21.987   5.697  1.00  0.00     0.293 C
BRANCH  21  22
HETATM   22  N4  UNL     1       4.676  20.831   5.033  1.00  0.00     0.081 N
HETATM   23  C13 UNL     1       5.237  19.871   5.982  1.00  0.00     0.309 C
HETATM   24  C14 UNL     1       3.538  20.151   4.413  1.00  0.00     0.309 C
ENDBRANCH  21  22
ENDBRANCH  20  21
ENDBRANCH  17  20
ENDBRANCH  15  16
TORSDOF 5
ENDMDL