MODEL 1
REMARK VINA RESULT: -6.892596030      0.000      0.000
REMARK  5 active torsions:
REMARK  status: ('A' for Active; 'I' for Inactive)
REMARK    1  A    between atoms: C5_7  and  N2_8
REMARK    2  A    between atoms: N2_8  and  C6_10
REMARK    3  A    between atoms: C6_10  and  C7_11
REMARK    4  A    between atoms: C7_11  and  C8_12
REMARK    5  A    between atoms: C8_12  and  N3_13
ROOT
HETATM    1  C1  UNL     1       4.368  21.216   3.894  1.00  0.00     0.050 C
HETATM    2  C2  UNL     1       5.249  22.299   4.369  1.00  0.00    -0.038 A
HETATM    3  C3  UNL     1       6.134  22.849   3.465  1.00  0.00     0.041 A
HETATM    4  C4  UNL     1       6.953  23.869   3.943  1.00  0.00     0.082 A
HETATM    5  N1  UNL     1       7.857  24.481   3.149  1.00  0.00    -0.189 N
ATOM      6  H1  UNL     1       7.933  24.180   2.177  1.00  0.00     0.184 HD
HETATM    7  C5  UNL     1       8.664  25.469   3.578  1.00  0.00     0.681 A
HETATM    8  N4  UNL     1       8.608  25.907   4.850  1.00  0.00    -0.154 N
ATOM      9  H4  UNL     1       9.216  26.656   5.180  1.00  0.00     0.187 HD
HETATM   10  C12 UNL     1       7.712  25.314   5.673  1.00  0.00     0.288 A
HETATM   11  O1  UNL     1       7.665  25.734   6.879  1.00  0.00    -0.265 OA
HETATM   12  C13 UNL     1       6.877  24.300   5.252  1.00  0.00     0.129 A
HETATM   13  N5  UNL     1       5.983  23.721   6.105  1.00  0.00    -0.353 N
ATOM     14  H5  UNL     1       5.927  24.041   7.072  1.00  0.00     0.166 HD
HETATM   15  C14 UNL     1       5.171  22.727   5.677  1.00  0.00     0.012 A
HETATM   16  C15 UNL     1       4.184  22.067   6.561  1.00  0.00     0.068 C
ENDROOT
BRANCH   7  17
HETATM   17  N2  UNL     1       9.518  26.034   2.793  1.00  0.00    -0.226 N
ATOM     18  H2  UNL     1      10.508  26.040   3.038  1.00  0.00     0.177 HD
BRANCH  17  19
HETATM   19  C6  UNL     1       9.074  26.661   1.563  1.00  0.00     0.139 C
BRANCH  19  20
HETATM   20  C7  UNL     1      10.111  27.722   1.172  1.00  0.00     0.048 C
BRANCH  20  21
HETATM   21  C8  UNL     1      11.371  26.962   0.814  1.00  0.00     0.237 C
BRANCH  21  22
HETATM   22  N3  UNL     1      12.564  27.696   1.193  1.00  0.00    -0.079 N
HETATM   23  C9  UNL     1      13.611  27.413   0.229  1.00  0.00     0.271 C
HETATM   24  C10 UNL     1      13.046  27.184   2.482  1.00  0.00     0.271 C
HETATM   25  C11 UNL     1      12.253  29.097   1.275  1.00  0.00     0.271 C
ENDBRANCH  21  22
ENDBRANCH  20  21
ENDBRANCH  19  20
ENDBRANCH  17  19
ENDBRANCH   7  17
TORSDOF 5
ENDMDL