MODEL 2
REMARK VINA RESULT: -5.280771727      2.977      4.798
REMARK  6 active torsions:
REMARK  status: ('A' for Active; 'I' for Inactive)
REMARK    1  A    between atoms: C2_2  and  N1_3
REMARK    2  A    between atoms: N2_6  and  C4_7
REMARK    3  A    between atoms: C4_7  and  N3_9
REMARK    4  A    between atoms: C6_12  and  C8_14
REMARK    5  A    between atoms: C8_14  and  C9_15
REMARK    6  A    between atoms: C9_15  and  C10_16
ROOT
HETATM    1  N1  UNL     1       6.748  24.688   5.505  1.00  0.00    -0.268 N
HETATM    2  C3  UNL     1       7.749  25.581   5.058  1.00  0.00     0.334 C
HETATM    3  O1  UNL     1       7.986  26.696   5.587  1.00  0.00    -0.246 OA
HETATM    4  N2  UNL     1       8.446  25.030   3.922  1.00  0.00    -0.257 N
HETATM    5  C6  UNL     1       8.025  23.656   3.767  1.00  0.00     0.122 C
HETATM    6  C7  UNL     1       7.535  23.327   2.388  1.00  0.00     0.049 C
HETATM    7  C11 UNL     1       6.807  23.575   4.659  1.00  0.00     0.256 C
HETATM    8  O3  UNL     1       5.983  22.636   4.625  1.00  0.00    -0.270 OA
ENDROOT
BRANCH   5   9
HETATM    9  C8  UNL     1       9.086  22.696   4.264  1.00  0.00     0.050 C
BRANCH   9  10
HETATM   10  C9  UNL     1      10.015  22.260   3.179  1.00  0.00     0.102 C
BRANCH  10  11
HETATM   11  C10 UNL     1      10.653  20.979   3.619  1.00  0.00     0.231 C
HETATM   12  N4  UNL     1      10.333  20.379   4.873  1.00  0.00    -0.062 NA
HETATM   13  O2  UNL     1      11.496  20.378   2.908  1.00  0.00    -0.277 OA
ENDBRANCH  10  11
ENDBRANCH   9  10
ENDBRANCH   5   9
BRANCH   4  14
HETATM   14  C4  UNL     1       9.363  25.784   3.154  1.00  0.00     0.178 C
HETATM   15  S1  UNL     1       8.857  26.718   1.900  1.00  0.00    -0.041 SA
BRANCH  14  16
HETATM   16  N3  UNL     1      10.754  25.775   3.426  1.00  0.00    -0.371 N
HETATM   17  C5  UNL     1      11.736  26.159   2.418  1.00  0.00     0.148 C
ATOM     18  H3  UNL     1      11.077  25.492   4.351  1.00  0.00     0.161 HD
ENDBRANCH  14  16
ENDBRANCH   4  14
BRANCH   1  19
HETATM   19  C2  UNL     1       5.855  24.937   6.639  1.00  0.00     0.132 C
HETATM   20  C1  UNL     1       5.431  23.667   7.307  1.00  0.00     0.027 C
ENDBRANCH   1  19
TORSDOF 6
ENDMDL