MODEL 1
REMARK VINA RESULT: -6.112939696      0.000      0.000
REMARK  6 active torsions:
REMARK  status: ('A' for Active; 'I' for Inactive)
REMARK    1  A    between atoms: C2_2  and  C3_3
REMARK    2  A    between atoms: C6_10  and  C7_11
REMARK    3  A    between atoms: C7_11  and  N3_12
REMARK    4  A    between atoms: N3_12  and  C8_14
REMARK    5  A    between atoms: C8_14  and  N4_16
REMARK    6  A    between atoms: N4_16  and  S2_18
ROOT
HETATM    1  C7  UNL     1       8.245  23.716   4.185  1.00  0.00     0.181 C
ENDROOT
BRANCH   1   2
HETATM    2  C6  UNL     1       6.940  23.507   4.883  1.00  0.00     0.051 A
HETATM    3  C3  UNL     1       6.389  24.368   5.822  1.00  0.00     0.034 A
HETATM    4  N1  UNL     1       5.208  23.849   6.201  1.00  0.00    -0.348 N
HETATM    5  C4  UNL     1       4.987  22.699   5.545  1.00  0.00     0.077 A
ATOM      6  H1  UNL     1       4.576  24.266   6.884  1.00  0.00     0.167 HD
HETATM    7  C5  UNL     1       3.813  21.773   5.638  1.00  0.00     0.089 C
HETATM    8  N2  UNL     1       6.046  22.512   4.753  1.00  0.00    -0.347 N
ATOM      9  H2  UNL     1       6.161  21.714   4.128  1.00  0.00     0.167 HD
BRANCH   3  10
HETATM   10  C2  UNL     1       7.065  25.616   6.268  1.00  0.00     0.055 C
HETATM   11  C1  UNL     1       7.437  25.583   7.713  1.00  0.00     0.011 C
ENDBRANCH   3  10
ENDBRANCH   1   2
BRANCH   1  12
HETATM   12  N3  UNL     1       8.011  24.669   3.091  1.00  0.00    -0.361 N
ATOM     13  H3  UNL     1       7.686  25.616   3.289  1.00  0.00     0.162 HD
BRANCH  12  14
HETATM   14  C8  UNL     1       8.240  24.259   1.770  1.00  0.00     0.183 C
HETATM   15  S1  UNL     1       7.897  22.730   1.274  1.00  0.00    -0.040 SA
BRANCH  14  16
HETATM   16  N4  UNL     1       8.798  25.148   0.825  1.00  0.00    -0.257 N
HETATM   17  C9  UNL     1       8.770  24.811  -0.607  1.00  0.00     0.172 C
BRANCH  16  18
HETATM   18  S2  UNL     1       9.496  26.624   1.362  1.00  0.00     0.230 S
HETATM   19  C10 UNL     1      10.121  27.605   0.041  1.00  0.00     0.186 C
HETATM   20  O1  UNL     1       8.462  27.428   2.104  1.00  0.00    -0.206 OA
HETATM   21  O2  UNL     1      10.627  26.366   2.333  1.00  0.00    -0.206 OA
ENDBRANCH  16  18
ENDBRANCH  14  16
ENDBRANCH  12  14
ENDBRANCH   1  12
TORSDOF 6
ENDMDL