MODEL 3
REMARK VINA RESULT: -7.152904436      0.764      2.331
REMARK  4 active torsions:
REMARK  status: ('A' for Active; 'I' for Inactive)
REMARK    1  A    between atoms: C3_3  and  C4_4
REMARK    2  A    between atoms: C4_4  and  N1_5
REMARK    3  A    between atoms: N1_5  and  S1_7
REMARK    4  A    between atoms: S1_7  and  C5_10
ROOT
HETATM    1  N1  UNL     1       9.354  25.008   2.588  1.00  0.00    -0.310 N
ATOM      2  H1  UNL     1      10.173  24.744   3.135  1.00  0.00     0.172 HD
ENDROOT
BRANCH   1   3
HETATM    3  C4  UNL     1       8.160  24.195   2.467  1.00  0.00     0.171 C
BRANCH   3   4
HETATM    4  C3  UNL     1       7.418  24.122   3.752  1.00  0.00    -0.030 A
HETATM    5  C2  UNL     1       6.343  23.267   3.861  1.00  0.00    -0.032 A
HETATM    6  C1  UNL     1       5.930  22.437   2.726  1.00  0.00     0.050 C
HETATM    7  C12 UNL     1       5.612  23.154   5.033  1.00  0.00     0.014 A
HETATM    8  N4  UNL     1       5.933  23.884   6.114  1.00  0.00    -0.358 N
HETATM    9  C13 UNL     1       4.461  22.229   5.122  1.00  0.00     0.069 C
HETATM   10  C9  UNL     1       6.993  24.737   6.031  1.00  0.00     0.008 A
HETATM   11  C11 UNL     1       5.229  23.825   7.357  1.00  0.00     0.156 C
HETATM   12  C8  UNL     1       7.735  24.863   4.871  1.00  0.00     0.034 A
HETATM   13  C10 UNL     1       7.380  25.561   7.203  1.00  0.00     0.068 C
ENDBRANCH   3   4
ENDBRANCH   1   3
BRANCH   1  14
HETATM   14  S1  UNL     1       9.223  26.468   1.699  1.00  0.00     0.276 S
HETATM   15  O1  UNL     1       8.750  26.159   0.313  1.00  0.00    -0.199 OA
HETATM   16  O2  UNL     1       8.201  27.347   2.348  1.00  0.00    -0.199 OA
BRANCH  14  17
HETATM   17  C5  UNL     1      10.724  27.345   1.631  1.00  0.00     0.165 A
HETATM   18  C6  UNL     1      10.923  28.481   0.882  1.00  0.00     0.132 A
HETATM   19  N2  UNL     1      12.194  28.889   1.067  1.00  0.00    -0.359 N
HETATM   20  C7  UNL     1      12.785  28.024   1.918  1.00  0.00     0.181 A
ATOM     21  H2  UNL     1      12.631  29.706   0.640  1.00  0.00     0.166 HD
HETATM   22  N3  UNL     1      11.882  27.079   2.261  1.00  0.00    -0.341 N
ATOM     23  H3  UNL     1      12.050  26.297   2.893  1.00  0.00     0.167 HD
ENDBRANCH  14  17
ENDBRANCH   1  14
TORSDOF 4
ENDMDL