MODEL 5
REMARK VINA RESULT: -7.344435721      1.636      2.993
REMARK  4 active torsions:
REMARK  status: ('A' for Active; 'I' for Inactive)
REMARK    1  A    between atoms: C2_2  and  C3_3
REMARK    2  A    between atoms: C3_3  and  C4_4
REMARK    3  A    between atoms: C4_4  and  C5_5
REMARK    4  A    between atoms: C5_5  and  N1_6
ROOT
HETATM    1  C3  UNL     1       9.206  25.147   1.663  1.00  0.00     0.123 C
HETATM    2  C13 UNL     1       9.427  25.177   0.213  1.00  0.00     0.243 C
HETATM    3  O1  UNL     1       9.055  24.236  -0.582  1.00  0.00    -0.272 OA
HETATM    4  N2  UNL     1      10.089  26.314  -0.352  1.00  0.00    -0.278 N
ATOM      5  H2  UNL     1      10.529  26.199  -1.264  1.00  0.00     0.173 HD
HETATM    6  C14 UNL     1      10.177  27.584   0.265  1.00  0.00     0.329 C
HETATM    7  O2  UNL     1      10.778  28.526  -0.304  1.00  0.00    -0.247 OA
HETATM    8  N3  UNL     1       9.544  27.694   1.546  1.00  0.00    -0.278 N
ATOM      9  H3  UNL     1       9.561  28.577   2.057  1.00  0.00     0.173 HD
HETATM   10  C15 UNL     1       8.893  26.561   2.096  1.00  0.00     0.243 C
HETATM   11  O3  UNL     1       8.021  26.748   2.978  1.00  0.00    -0.272 OA
ENDROOT
BRANCH   1  12
HETATM   12  C2  UNL     1      10.362  24.623   2.475  1.00  0.00     0.025 C
HETATM   13  C1  UNL     1      11.446  23.959   1.671  1.00  0.00     0.007 C
ENDBRANCH   1  12
BRANCH   1  14
HETATM   14  C4  UNL     1       7.995  24.318   2.064  1.00  0.00     0.049 C
BRANCH  14  15
HETATM   15  C5  UNL     1       8.241  23.296   3.102  1.00  0.00     0.129 C
BRANCH  15  16
HETATM   16  N1  UNL     1       7.369  23.498   4.278  1.00  0.00    -0.365 N
HETATM   17  C6  UNL     1       7.659  24.411   5.218  1.00  0.00     0.097 A
HETATM   18  C7  UNL     1       6.886  24.637   6.325  1.00  0.00    -0.046 A
HETATM   19  C8  UNL     1       7.253  25.672   7.352  1.00  0.00     0.049 C
HETATM   20  C9  UNL     1       5.742  23.890   6.496  1.00  0.00     0.016 A
HETATM   21  C10 UNL     1       5.417  22.944   5.547  1.00  0.00    -0.046 A
HETATM   22  C11 UNL     1       4.183  22.118   5.702  1.00  0.00     0.049 C
HETATM   23  C12 UNL     1       6.250  22.774   4.455  1.00  0.00     0.097 A
ENDBRANCH  15  16
ENDBRANCH  14  15
ENDBRANCH   1  14
TORSDOF 4
ENDMDL