MODEL 4
REMARK VINA RESULT: -6.078688793      2.186      3.107
REMARK  13 active torsions:
REMARK  status: ('A' for Active; 'I' for Inactive)
REMARK    1  A    between atoms: C2_2  and  C3_3
REMARK    2  A    between atoms: C3_3  and  C4_4
REMARK    3  A    between atoms: C6_9  and  C7_10
REMARK    4  A    between atoms: C7_10  and  C8_11
REMARK    5  A    between atoms: C8_11  and  C9_12
REMARK    6  A    between atoms: C9_12  and  N2_13
REMARK    7  A    between atoms: C12_22  and  C13_23
REMARK    8  A    between atoms: C13_23  and  C14_24
REMARK    9  A    between atoms: C18_31  and  C19_32
REMARK   10  A    between atoms: C21_36  and  O4_37
REMARK   11  A    between atoms: C22_39  and  C23_40
REMARK   12  A    between atoms: C23_40  and  C24_41
REMARK   13  A    between atoms: C30_50  and  O5_51
ROOT
HETATM    1  C4  UNL     1      22.405  37.328  16.540  1.00  0.00     0.159 C
HETATM    2  N1  UNL     1      22.493  36.299  17.558  1.00  0.00    -0.347 N
ATOM      3  H1  UNL     1      23.069  36.535  18.365  1.00  0.00     0.163 HD
HETATM    4  C5  UNL     1      21.909  35.041  17.595  1.00  0.00     0.241 C
HETATM    5  O1  UNL     1      22.686  34.056  17.819  1.00  0.00    -0.271 OA
HETATM    6  C6  UNL     1      20.475  34.687  17.409  1.00  0.00     0.176 C
HETATM    7  N5  UNL     1      19.621  35.581  18.122  1.00  0.00    -0.346 N
ATOM      8  H5  UNL     1      20.121  36.127  18.824  1.00  0.00     0.163 HD
HETATM    9  C11 UNL     1      18.274  35.875  18.077  1.00  0.00     0.241 C
HETATM   10  O2  UNL     1      17.658  35.815  19.216  1.00  0.00    -0.271 OA
HETATM   11  C12 UNL     1      17.404  36.249  16.957  1.00  0.00     0.177 C
HETATM   12  N6  UNL     1      17.150  37.674  16.812  1.00  0.00    -0.346 N
ATOM     13  H6  UNL     1      16.259  37.886  16.362  1.00  0.00     0.163 HD
HETATM   14  C17 UNL     1      17.866  38.787  17.158  1.00  0.00     0.241 C
HETATM   15  O3  UNL     1      18.159  39.603  16.190  1.00  0.00    -0.271 OA
HETATM   16  C18 UNL     1      18.397  39.274  18.470  1.00  0.00     0.175 C
HETATM   17  N7  UNL     1      19.414  40.288  18.269  1.00  0.00    -0.356 N
ATOM     18  H7  UNL     1      19.053  41.242  18.296  1.00  0.00     0.162 HD
HETATM   19  C21 UNL     1      20.778  40.216  18.047  1.00  0.00     0.160 C
HETATM   20  C22 UNL     1      21.917  39.783  18.873  1.00  0.00     0.069 C
HETATM   21  N9  UNL     1      23.056  39.297  18.121  1.00  0.00    -0.334 N
HETATM   22  C29 UNL     1      24.355  39.600  18.744  1.00  0.00     0.158 C
HETATM   23  C30 UNL     1      23.074  38.604  16.889  1.00  0.00     0.141 C
ENDROOT
BRANCH   6  24
HETATM   24  C7  UNL     1      20.097  34.366  15.995  1.00  0.00     0.036 C
BRANCH  24  25
HETATM   25  C8  UNL     1      19.709  32.874  15.963  1.00  0.00     0.022 C
BRANCH  25  26
HETATM   26  C9  UNL     1      20.550  32.262  14.850  1.00  0.00     0.122 C
BRANCH  26  27
HETATM   27  N2  UNL     1      19.821  31.236  14.148  1.00  0.00    -0.367 N
HETATM   28  C10 UNL     1      19.837  31.174  12.854  1.00  0.00     0.196 C
HETATM   29  N3  UNL     1      19.133  30.184  12.133  1.00  0.00    -0.067 NA
HETATM   30  N4  UNL     1      20.590  32.142  12.148  1.00  0.00    -0.067 NA
ATOM     31  H2  UNL     1      19.284  30.549  14.678  1.00  0.00     0.161 HD
ENDBRANCH  26  27
ENDBRANCH  25  26
ENDBRANCH  24  25
ENDBRANCH   6  24
BRANCH   1  32
HETATM   32  C3  UNL     1      22.977  36.848  15.217  1.00  0.00     0.033 C
BRANCH  32  33
HETATM   33  C2  UNL     1      24.034  35.814  15.407  1.00  0.00    -0.002 C
HETATM   34  C1  UNL     1      23.791  34.579  14.557  1.00  0.00     0.005 C
ENDBRANCH  32  33
ENDBRANCH   1  32
BRANCH  11  35
HETATM   35  C13 UNL     1      16.072  35.564  16.908  1.00  0.00     0.038 C
BRANCH  35  36
HETATM   36  C14 UNL     1      15.763  34.692  15.762  1.00  0.00    -0.020 C
HETATM   37  C15 UNL     1      16.553  34.838  14.515  1.00  0.00     0.009 C
HETATM   38  C16 UNL     1      15.898  33.243  16.210  1.00  0.00     0.009 C
ENDBRANCH  35  36
ENDBRANCH  11  35
BRANCH  23  39
HETATM   39  O5  UNL     1      23.780  39.188  15.960  1.00  0.00    -0.348 OA
ATOM     40  H5  UNL     1      23.311  39.685  15.300  1.00  0.00     0.219 HD
ENDBRANCH  23  39
BRANCH  20  41
HETATM   41  C23 UNL     1      21.619  39.026  20.115  1.00  0.00     0.118 C
BRANCH  41  42
HETATM   42  C24 UNL     1      21.505  39.864  21.335  1.00  0.00     0.015 A
HETATM   43  C25 UNL     1      21.912  41.204  21.384  1.00  0.00     0.027 A
HETATM   44  C26 UNL     1      21.637  41.715  22.632  1.00  0.00     0.026 A
HETATM   45  C27 UNL     1      21.055  40.665  23.342  1.00  0.00     0.005 A
HETATM   46  C28 UNL     1      20.572  40.690  24.742  1.00  0.00     0.068 C
HETATM   47  N8  UNL     1      20.996  39.589  22.540  1.00  0.00    -0.363 N
ATOM     48  H8  UNL     1      20.613  38.684  22.814  1.00  0.00     0.165 HD
ENDBRANCH  41  42
ENDBRANCH  20  41
BRANCH  16  49
HETATM   49  C19 UNL     1      17.312  39.936  19.290  1.00  0.00     0.030 C
HETATM   50  C20 UNL     1      17.801  40.912  20.318  1.00  0.00     0.007 C
ENDBRANCH  16  49
BRANCH  19  51
HETATM   51  O4  UNL     1      21.192  40.607  16.859  1.00  0.00    -0.345 OA
ATOM     52  H4  UNL     1      22.051  40.300  16.595  1.00  0.00     0.219 HD
ENDBRANCH  19  51
TORSDOF 13
ENDMDL