MODEL 5
REMARK VINA RESULT: -6.250569998      2.200      7.667
REMARK  12 active torsions:
REMARK  status: ('A' for Active; 'I' for Inactive)
REMARK    1  A    between atoms: C2_2  and  C4_4
REMARK    2  A    between atoms: C4_4  and  C5_5
REMARK    3  A    between atoms: C7_10  and  C8_11
REMARK    4  A    between atoms: C8_11  and  C9_12
REMARK    5  A    between atoms: C14_22  and  C15_23
REMARK    6  A    between atoms: C15_23  and  C16_24
REMARK    7  A    between atoms: C16_24  and  N4_25
REMARK    8  A    between atoms: C21_33  and  C22_34
REMARK    9  A    between atoms: C22_34  and  C23_35
REMARK   10  A    between atoms: C27_42  and  C28_43
REMARK   11  A    between atoms: C28_43  and  C29_44
REMARK   12  A    between atoms: C32_49  and  O5_50
ROOT
HETATM    1  C5  UNL     1      22.015  38.705  17.032  1.00  0.00     0.159 C
HETATM    2  N1  UNL     1      20.870  39.316  16.408  1.00  0.00    -0.347 N
ATOM      3  H1  UNL     1      20.356  38.682  15.796  1.00  0.00     0.163 HD
HETATM    4  C6  UNL     1      20.320  40.590  16.466  1.00  0.00     0.241 C
HETATM    5  O1  UNL     1      20.106  41.184  15.340  1.00  0.00    -0.271 OA
HETATM    6  C7  UNL     1      19.910  41.435  17.596  1.00  0.00     0.180 C
HETATM    7  N3  UNL     1      18.446  41.648  17.542  1.00  0.00    -0.346 N
ATOM      8  H3  UNL     1      18.104  42.105  16.698  1.00  0.00     0.163 HD
HETATM    9  C13 UNL     1      17.481  41.320  18.464  1.00  0.00     0.241 C
HETATM   10  O2  UNL     1      16.703  42.262  18.869  1.00  0.00    -0.271 OA
HETATM   11  C14 UNL     1      17.157  40.008  19.108  1.00  0.00     0.178 C
HETATM   12  N5  UNL     1      17.949  38.940  18.571  1.00  0.00    -0.346 N
ATOM     13  H5  UNL     1      18.945  39.052  18.761  1.00  0.00     0.163 HD
HETATM   14  C20 UNL     1      17.665  37.786  17.849  1.00  0.00     0.241 C
HETATM   15  O3  UNL     1      17.737  37.756  16.566  1.00  0.00    -0.271 OA
HETATM   16  C21 UNL     1      17.248  36.429  18.379  1.00  0.00     0.177 C
HETATM   17  N6  UNL     1      18.388  35.637  18.735  1.00  0.00    -0.346 N
ATOM     18  H6  UNL     1      18.198  34.933  19.449  1.00  0.00     0.163 HD
HETATM   19  C26 UNL     1      19.717  35.650  18.282  1.00  0.00     0.241 C
HETATM   20  O4  UNL     1      20.662  35.877  19.085  1.00  0.00    -0.271 OA
HETATM   21  C27 UNL     1      20.177  35.407  16.876  1.00  0.00     0.175 C
HETATM   22  N7  UNL     1      21.170  36.282  16.366  1.00  0.00    -0.359 N
ATOM     23  H7  UNL     1      21.247  36.146  15.358  1.00  0.00     0.162 HD
HETATM   24  C32 UNL     1      22.067  37.252  16.755  1.00  0.00     0.135 C
ENDROOT
BRANCH   6  25
HETATM   25  C8  UNL     1      20.653  42.744  17.632  1.00  0.00     0.074 C
BRANCH  25  26
HETATM   26  C9  UNL     1      20.969  43.347  18.898  1.00  0.00    -0.039 A
HETATM   27  C10 UNL     1      20.308  43.226  20.094  1.00  0.00     0.025 A
HETATM   28  C11 UNL     1      20.949  43.969  21.038  1.00  0.00     0.088 A
HETATM   29  N2  UNL     1      22.002  44.558  20.465  1.00  0.00    -0.375 N
HETATM   30  C12 UNL     1      22.030  44.191  19.162  1.00  0.00     0.094 A
ATOM     31  H2  UNL     1      22.669  45.175  20.928  1.00  0.00     0.164 HD
ENDBRANCH  25  26
ENDBRANCH   6  25
BRANCH   1  32
HETATM   32  C4  UNL     1      22.193  39.001  18.454  1.00  0.00     0.037 C
BRANCH  32  33
HETATM   33  C2  UNL     1      23.382  39.812  18.884  1.00  0.00    -0.020 C
HETATM   34  C1  UNL     1      23.848  40.791  17.838  1.00  0.00     0.009 C
HETATM   35  C3  UNL     1      23.006  40.664  20.115  1.00  0.00     0.009 C
ENDBRANCH  32  33
ENDBRANCH   1  32
BRANCH  11  36
HETATM   36  C15 UNL     1      17.541  40.206  20.584  1.00  0.00     0.063 C
BRANCH  36  37
HETATM   37  C16 UNL     1      16.331  40.033  21.472  1.00  0.00     0.238 C
BRANCH  37  38
HETATM   38  N4  UNL     1      16.533  40.632  22.774  1.00  0.00    -0.079 N
HETATM   39  C17 UNL     1      15.434  41.526  23.106  1.00  0.00     0.271 C
HETATM   40  C18 UNL     1      16.650  39.610  23.796  1.00  0.00     0.271 C
HETATM   41  C19 UNL     1      17.755  41.427  22.822  1.00  0.00     0.271 C
ENDBRANCH  37  38
ENDBRANCH  36  37
ENDBRANCH  11  36
BRANCH  24  42
HETATM   42  O5  UNL     1      23.285  36.807  16.925  1.00  0.00    -0.348 OA
ATOM     43  H5  UNL     1      23.359  35.922  16.586  1.00  0.00     0.219 HD
ENDBRANCH  24  42
BRANCH  21  44
HETATM   44  C28 UNL     1      20.637  33.948  16.901  1.00  0.00     0.038 C
BRANCH  44  45
HETATM   45  C29 UNL     1      19.912  32.920  16.198  1.00  0.00    -0.020 C
HETATM   46  C30 UNL     1      20.442  31.532  16.698  1.00  0.00     0.009 C
HETATM   47  C31 UNL     1      19.893  32.812  14.733  1.00  0.00     0.009 C
ENDBRANCH  44  45
ENDBRANCH  21  44
BRANCH  16  48
HETATM   48  C22 UNL     1      16.260  35.842  17.437  1.00  0.00     0.038 C
BRANCH  48  49
HETATM   49  C23 UNL     1      16.694  34.588  16.738  1.00  0.00    -0.020 C
HETATM   50  C24 UNL     1      15.538  33.570  16.975  1.00  0.00     0.009 C
HETATM   51  C25 UNL     1      16.746  34.711  15.224  1.00  0.00     0.009 C
ENDBRANCH  48  49
ENDBRANCH  16  48
TORSDOF 12
ENDMDL