MODEL 3
REMARK VINA RESULT: -6.106957323      1.951      6.095
REMARK  13 active torsions:
REMARK  status: ('A' for Active; 'I' for Inactive)
REMARK    1  A    between atoms: C2_2  and  C3_3
REMARK    2  A    between atoms: C5_8  and  C6_9
REMARK    3  A    between atoms: C6_9  and  C7_10
REMARK    4  A    between atoms: C11_17  and  C12_18
REMARK    5  A    between atoms: C12_18  and  C13_19
REMARK    6  A    between atoms: C13_19  and  C14_20
REMARK    7  A    between atoms: C14_20  and  N3_21
REMARK    8  A    between atoms: C17_30  and  C18_31
REMARK    9  A    between atoms: C18_31  and  C19_32
REMARK   10  A    between atoms: C24_40  and  C25_41
REMARK   11  A    between atoms: C25_41  and  N8_42
REMARK   12  A    between atoms: N8_42  and  N9_43
REMARK   13  A    between atoms: N10_46  and  C26_47
ROOT
HETATM    1  C3  UNL     1      23.102  40.772  16.281  1.00  0.00     0.176 C
HETATM    2  N1  UNL     1      23.925  39.588  16.472  1.00  0.00    -0.346 N
ATOM      3  H1  UNL     1      24.916  39.669  16.242  1.00  0.00     0.163 HD
HETATM    4  C4  UNL     1      23.479  38.346  16.943  1.00  0.00     0.241 C
HETATM    5  O1  UNL     1      24.057  37.752  17.884  1.00  0.00    -0.271 OA
HETATM    6  C5  UNL     1      22.282  37.638  16.356  1.00  0.00     0.177 C
HETATM    7  N2  UNL     1      21.638  36.832  17.375  1.00  0.00    -0.346 N
ATOM      8  H2  UNL     1      22.031  35.898  17.494  1.00  0.00     0.163 HD
HETATM    9  C10 UNL     1      20.578  37.126  18.208  1.00  0.00     0.241 C
HETATM   10  O2  UNL     1      20.865  37.149  19.475  1.00  0.00    -0.271 OA
HETATM   11  C11 UNL     1      19.166  37.418  17.901  1.00  0.00     0.176 C
HETATM   12  N6  UNL     1      18.906  38.635  17.187  1.00  0.00    -0.346 N
ATOM     13  H6  UNL     1      19.375  38.738  16.287  1.00  0.00     0.163 HD
HETATM   14  C16 UNL     1      18.076  39.708  17.586  1.00  0.00     0.241 C
HETATM   15  O3  UNL     1      17.183  40.171  16.778  1.00  0.00    -0.271 OA
HETATM   16  C17 UNL     1      18.117  40.404  18.896  1.00  0.00     0.177 C
HETATM   17  N7  UNL     1      19.424  40.380  19.512  1.00  0.00    -0.348 N
ATOM     18  H7  UNL     1      19.604  39.687  20.238  1.00  0.00     0.163 HD
HETATM   19  C22 UNL     1      20.491  41.287  19.152  1.00  0.00     0.220 C
HETATM   20  O4  UNL     1      21.497  41.374  19.923  1.00  0.00    -0.274 OA
HETATM   21  C23 UNL     1      20.324  42.043  17.913  1.00  0.00     0.134 C
HETATM   22  C24 UNL     1      21.259  43.169  17.657  1.00  0.00     0.150 C
HETATM   23  N10 UNL     1      22.658  42.920  17.684  1.00  0.00    -0.336 N
HETATM   24  C29 UNL     1      23.355  41.740  17.363  1.00  0.00     0.243 C
HETATM   25  O5  UNL     1      24.354  41.490  18.138  1.00  0.00    -0.271 OA
ENDROOT
BRANCH  11  26
HETATM   26  C12 UNL     1      18.494  36.304  17.116  1.00  0.00     0.036 C
BRANCH  26  27
HETATM   27  C13 UNL     1      18.589  34.977  17.811  1.00  0.00     0.022 C
BRANCH  27  28
HETATM   28  C14 UNL     1      18.373  33.911  16.727  1.00  0.00     0.122 C
BRANCH  28  29
HETATM   29  N3  UNL     1      17.605  34.560  15.692  1.00  0.00    -0.367 N
HETATM   30  C15 UNL     1      16.600  33.958  15.182  1.00  0.00     0.196 C
HETATM   31  N4  UNL     1      15.861  34.608  14.171  1.00  0.00    -0.067 NA
HETATM   32  N5  UNL     1      16.253  32.665  15.640  1.00  0.00    -0.067 NA
ATOM     33  H3  UNL     1      17.863  35.493  15.369  1.00  0.00     0.161 HD
ENDBRANCH  28  29
ENDBRANCH  27  28
ENDBRANCH  26  27
ENDBRANCH  11  26
BRANCH   6  34
HETATM   34  C6  UNL     1      22.910  36.725  15.299  1.00  0.00     0.038 C
BRANCH  34  35
HETATM   35  C7  UNL     1      22.904  35.285  15.671  1.00  0.00    -0.020 C
HETATM   36  C8  UNL     1      21.613  34.659  15.192  1.00  0.00     0.009 C
HETATM   37  C9  UNL     1      24.099  34.638  14.992  1.00  0.00     0.009 C
ENDBRANCH  34  35
ENDBRANCH   6  34
BRANCH  16  38
HETATM   38  C18 UNL     1      17.046  39.883  19.862  1.00  0.00     0.038 C
BRANCH  38  39
HETATM   39  C19 UNL     1      16.477  41.144  20.528  1.00  0.00    -0.020 C
HETATM   40  C20 UNL     1      16.295  42.246  19.513  1.00  0.00     0.009 C
HETATM   41  C21 UNL     1      15.103  40.739  21.046  1.00  0.00     0.009 C
ENDBRANCH  38  39
ENDBRANCH  16  38
BRANCH   1  42
HETATM   42  C2  UNL     1      23.514  41.312  14.923  1.00  0.00     0.030 C
HETATM   43  C1  UNL     1      22.677  40.757  13.815  1.00  0.00     0.007 C
ENDBRANCH   1  42
BRANCH  22  44
HETATM   44  C25 UNL     1      20.768  43.811  16.387  1.00  0.00     0.206 C
BRANCH  44  45
HETATM   45  N8  UNL     1      19.668  44.403  16.444  1.00  0.00    -0.348 NA
BRANCH  45  46
HETATM   46  N9  UNL     1      18.482  44.771  16.328  1.00  0.00    -0.281 N
ATOM     47  H92 UNL     1      18.146  43.809  16.320  1.00  0.00     0.191 HD
ATOM     48  H91 UNL     1      17.611  45.293  16.237  1.00  0.00     0.191 HD
ENDBRANCH  45  46
ENDBRANCH  44  45
ENDBRANCH  22  44
BRANCH  23  49
HETATM   49  C26 UNL     1      23.490  44.056  18.136  1.00  0.00     0.080 C
HETATM   50  C27 UNL     1      23.981  44.746  16.865  1.00  0.00     0.032 C
HETATM   51  C28 UNL     1      22.729  45.065  18.936  1.00  0.00     0.032 C
ENDBRANCH  23  49
TORSDOF 13
ENDMDL