MODEL 3
REMARK VINA RESULT: -8.057808783      4.807      7.508
REMARK  13 active torsions:
REMARK  status: ('A' for Active; 'I' for Inactive)
REMARK    1  A    between atoms: C2_2  and  C4_4
REMARK    2  A    between atoms: C4_4  and  C5_5
REMARK    3  A    between atoms: C7_10  and  C8_11
REMARK    4  A    between atoms: C8_11  and  C9_12
REMARK    5  A    between atoms: C9_12  and  N2_13
REMARK    6  A    between atoms: C16_24  and  O2_25
REMARK    7  A    between atoms: C17_27  and  C18_28
REMARK    8  A    between atoms: C21_33  and  C22_34
REMARK    9  A    between atoms: C22_34  and  C23_35
REMARK   10  A    between atoms: C23_35  and  C25_37
REMARK   11  A    between atoms: C25_37  and  N7_38
REMARK   12  A    between atoms: N7_38  and  C28_41
REMARK   13  A    between atoms: C28_41  and  C29_42
ROOT
HETATM    1  C5  UNL     1      19.352  37.677  18.125  1.00  0.00     0.177 C
HETATM    2  N1  UNL     1      19.158  38.792  19.033  1.00  0.00    -0.344 N
ATOM      3  H1  UNL     1      19.623  38.737  19.939  1.00  0.00     0.163 HD
HETATM    4  C6  UNL     1      18.385  39.948  18.778  1.00  0.00     0.248 C
HETATM    5  O1  UNL     1      17.537  40.243  19.700  1.00  0.00    -0.268 OA
HETATM    6  C7  UNL     1      18.425  40.825  17.639  1.00  0.00     0.009 C
HETATM    7  C11 UNL     1      19.530  41.405  17.155  1.00  0.00     0.011 C
HETATM    8  C12 UNL     1      20.887  41.225  17.736  1.00  0.00     0.109 C
HETATM    9  C13 UNL     1      21.090  42.317  18.818  1.00  0.00     0.031 C
HETATM   10  C14 UNL     1      21.051  43.540  17.927  1.00  0.00     0.022 C
HETATM   11  C15 UNL     1      21.554  43.103  16.569  1.00  0.00     0.125 C
HETATM   12  N5  UNL     1      21.871  41.680  16.786  1.00  0.00    -0.356 N
HETATM   13  C16 UNL     1      22.921  40.924  16.217  1.00  0.00     0.137 C
HETATM   14  C17 UNL     1      22.827  39.683  15.432  1.00  0.00     0.156 C
HETATM   15  N6  UNL     1      21.816  38.775  15.711  1.00  0.00    -0.390 N
ATOM     16  H6  UNL     1      20.847  39.027  15.515  1.00  0.00     0.156 HD
HETATM   17  C21 UNL     1      22.106  37.499  16.266  1.00  0.00     0.180 C
HETATM   18  N9  UNL     1      21.896  37.420  17.712  1.00  0.00    -0.339 N
ATOM     19  H9  UNL     1      22.710  37.597  18.299  1.00  0.00     0.164 HD
HETATM   20  C30 UNL     1      20.710  37.131  18.371  1.00  0.00     0.242 C
HETATM   21  O4  UNL     1      20.761  36.278  19.331  1.00  0.00    -0.271 OA
ENDROOT
BRANCH  17  22
HETATM   22  C22 UNL     1      21.494  36.320  15.560  1.00  0.00     0.052 C
BRANCH  22  23
HETATM   23  C23 UNL     1      22.289  35.052  15.562  1.00  0.00     0.011 C
HETATM   24  C24 UNL     1      23.692  35.450  15.131  1.00  0.00     0.012 C
BRANCH  23  25
HETATM   25  C25 UNL     1      21.744  33.903  14.872  1.00  0.00     0.246 C
BRANCH  25  26
HETATM   26  N7  UNL     1      21.801  32.554  15.311  1.00  0.00    -0.050 N
HETATM   27  C26 UNL     1      22.801  31.716  14.735  1.00  0.00     0.278 C
HETATM   28  C27 UNL     1      21.843  32.488  16.786  1.00  0.00     0.278 C
BRANCH  26  29
HETATM   29  C28 UNL     1      20.512  31.983  14.994  1.00  0.00     0.272 C
BRANCH  29  30
HETATM   30  C29 UNL     1      19.869  32.336  13.757  1.00  0.00     0.278 C
HETATM   31  N8  UNL     1      20.276  32.180  12.427  1.00  0.00    -0.057 NA
HETATM   32  O3  UNL     1      18.705  32.896  13.877  1.00  0.00    -0.270 OA
ENDBRANCH  29  30
ENDBRANCH  26  29
ENDBRANCH  25  26
ENDBRANCH  23  25
ENDBRANCH  22  23
ENDBRANCH  17  22
BRANCH  14  33
HETATM   33  C18 UNL     1      22.858  40.031  13.937  1.00  0.00     0.008 C
HETATM   34  C19 UNL     1      21.461  39.998  13.416  1.00  0.00     0.012 C
HETATM   35  C20 UNL     1      23.450  41.392  13.750  1.00  0.00     0.012 C
ENDBRANCH  14  33
BRANCH  13  36
HETATM   36  O2  UNL     1      24.137  41.358  16.391  1.00  0.00    -0.348 OA
ATOM     37  H2  UNL     1      24.769  41.175  15.706  1.00  0.00     0.219 HD
ENDBRANCH  13  36
BRANCH   1  38
HETATM   38  C4  UNL     1      18.386  36.562  18.336  1.00  0.00     0.038 C
BRANCH  38  39
HETATM   39  C2  UNL     1      17.876  35.866  17.137  1.00  0.00    -0.020 C
HETATM   40  C1  UNL     1      16.409  35.494  17.411  1.00  0.00     0.009 C
HETATM   41  C3  UNL     1      18.577  34.504  17.040  1.00  0.00     0.009 C
ENDBRANCH  38  39
ENDBRANCH   1  38
BRANCH   6  42
HETATM   42  C8  UNL     1      17.132  41.147  16.932  1.00  0.00     0.063 C
BRANCH  42  43
HETATM   43  C9  UNL     1      16.518  42.442  17.351  1.00  0.00     0.126 C
BRANCH  43  44
HETATM   44  N2  UNL     1      15.793  42.366  18.595  1.00  0.00    -0.367 N
HETATM   45  C10 UNL     1      14.642  42.888  18.706  1.00  0.00     0.196 C
HETATM   46  N3  UNL     1      13.952  43.576  17.672  1.00  0.00    -0.067 NA
HETATM   47  N4  UNL     1      13.977  42.779  19.970  1.00  0.00    -0.067 NA
ATOM     48  H2  UNL     1      16.211  41.889  19.394  1.00  0.00     0.161 HD
ENDBRANCH  43  44
ENDBRANCH  42  43
ENDBRANCH   6  42
TORSDOF 13
ENDMDL