MODEL 5
REMARK VINA RESULT: -4.550630710      2.821      7.286
REMARK  10 active torsions:
REMARK  status: ('A' for Active; 'I' for Inactive)
REMARK    1  A    between atoms: C2_2  and  C3_3
REMARK    2  A    between atoms: C12_17  and  C13_18
REMARK    3  A    between atoms: C17_25  and  C18_26
REMARK    4  A    between atoms: C18_26  and  C19_27
REMARK    5  A    between atoms: C24_34  and  C25_35
REMARK    6  A    between atoms: C25_35  and  C26_36
REMARK    7  A    between atoms: C26_36  and  C27_37
REMARK    8  A    between atoms: C27_37  and  C28_38
REMARK    9  A    between atoms: C28_38  and  N5_39
REMARK   10  A    between atoms: N8_46  and  C31_47
ROOT
HETATM    1  C3  UNL     1      22.716  44.019  22.216  1.00  0.00    -0.024 A
HETATM    2  C4  UNL     1      23.914  43.854  21.614  1.00  0.00    -0.025 A
HETATM    3  C5  UNL     1      24.998  44.900  21.593  1.00  0.00     0.051 C
HETATM    4  C6  UNL     1      23.939  42.552  21.040  1.00  0.00     0.055 A
HETATM    5  N1  UNL     1      22.753  41.976  21.317  1.00  0.00    -0.354 N
ATOM      6  H1  UNL     1      22.473  41.036  21.035  1.00  0.00     0.166 HD
HETATM    7  C7  UNL     1      21.995  42.830  22.022  1.00  0.00     0.035 A
HETATM    8  C8  UNL     1      20.756  42.708  22.523  1.00  0.00     0.004 C
HETATM    9  C9  UNL     1      19.767  41.632  22.498  1.00  0.00     0.038 C
HETATM   10  C10 UNL     1      18.506  42.217  21.842  1.00  0.00     0.106 C
HETATM   11  C11 UNL     1      17.789  41.189  21.056  1.00  0.00     0.218 C
HETATM   12  O1  UNL     1      16.554  40.999  21.374  1.00  0.00    -0.274 OA
HETATM   13  N2  UNL     1      18.278  40.404  20.024  1.00  0.00    -0.347 N
ATOM     14  H2  UNL     1      18.126  39.403  20.145  1.00  0.00     0.163 HD
HETATM   15  C12 UNL     1      18.965  40.764  18.811  1.00  0.00     0.180 C
HETATM   16  C16 UNL     1      18.675  39.801  17.711  1.00  0.00     0.245 C
HETATM   17  O2  UNL     1      17.423  39.534  17.596  1.00  0.00    -0.271 OA
HETATM   18  N3  UNL     1      19.555  39.188  16.834  1.00  0.00    -0.324 N
ATOM     19  H3  UNL     1      19.313  39.291  15.848  1.00  0.00     0.169 HD
HETATM   20  C17 UNL     1      20.757  38.429  17.081  1.00  0.00     0.080 C
HETATM   21  C22 UNL     1      21.962  38.973  16.408  1.00  0.00     0.266 C
HETATM   22  O3  UNL     1      21.842  39.025  15.119  1.00  0.00    -0.266 OA
HETATM   23  N4  UNL     1      23.174  39.426  16.949  1.00  0.00    -0.338 N
HETATM   24  C23 UNL     1      24.407  38.785  16.459  1.00  0.00     0.154 C
HETATM   25  C24 UNL     1      23.376  40.470  17.937  1.00  0.00     0.179 C
HETATM   26  C30 UNL     1      24.389  40.101  18.940  1.00  0.00     0.246 C
HETATM   27  O4  UNL     1      24.470  38.820  19.105  1.00  0.00    -0.271 OA
HETATM   28  N8  UNL     1      25.255  40.859  19.725  1.00  0.00    -0.325 N
HETATM   29  C33 UNL     1      24.998  42.093  20.371  1.00  0.00     0.123 C
ENDROOT
BRANCH  25  30
HETATM   30  C25 UNL     1      23.566  41.753  17.221  1.00  0.00     0.035 C
BRANCH  30  31
HETATM   31  C26 UNL     1      22.398  42.560  16.868  1.00  0.00     0.004 C
BRANCH  31  32
HETATM   32  C27 UNL     1      22.216  42.667  15.343  1.00  0.00     0.020 C
BRANCH  32  33
HETATM   33  C28 UNL     1      23.352  42.118  14.569  1.00  0.00     0.122 C
BRANCH  33  34
HETATM   34  N5  UNL     1      22.919  41.381  13.441  1.00  0.00    -0.367 N
HETATM   35  C29 UNL     1      23.431  41.077  12.352  1.00  0.00     0.196 C
HETATM   36  N6  UNL     1      24.717  41.392  11.837  1.00  0.00    -0.067 NA
HETATM   37  N7  UNL     1      22.621  40.282  11.448  1.00  0.00    -0.067 NA
ATOM     38  H5  UNL     1      21.973  41.016  13.548  1.00  0.00     0.161 HD
ENDBRANCH  33  34
ENDBRANCH  32  33
ENDBRANCH  31  32
ENDBRANCH  30  31
ENDBRANCH  25  30
BRANCH  28  39
HETATM   39  C31 UNL     1      26.609  40.289  19.909  1.00  0.00     0.127 C
HETATM   40  C32 UNL     1      27.649  41.170  19.253  1.00  0.00     0.027 C
ENDBRANCH  28  39
BRANCH  20  41
HETATM   41  C18 UNL     1      20.963  37.945  18.469  1.00  0.00     0.067 C
BRANCH  41  42
HETATM   42  C19 UNL     1      20.749  36.439  18.609  1.00  0.00    -0.017 C
HETATM   43  C20 UNL     1      19.237  36.186  18.525  1.00  0.00     0.010 C
HETATM   44  C21 UNL     1      21.346  35.800  17.375  1.00  0.00     0.010 C
ENDBRANCH  41  42
ENDBRANCH  20  41
BRANCH  15  45
HETATM   45  C13 UNL     1      18.539  42.119  18.287  1.00  0.00     0.009 C
HETATM   46  C14 UNL     1      19.553  43.158  18.790  1.00  0.00     0.012 C
HETATM   47  C15 UNL     1      18.570  42.201  16.785  1.00  0.00     0.012 C
ENDBRANCH  15  45
BRANCH   1  48
HETATM   48  C2  UNL     1      22.320  45.283  22.933  1.00  0.00     0.037 C
HETATM   49  C1  UNL     1      22.691  45.124  24.393  1.00  0.00     0.010 C
ENDBRANCH   1  48
TORSDOF 10
ENDMDL