MODEL 5
REMARK VINA RESULT: -9.228602331      2.547      9.469
REMARK  13 active torsions:
REMARK  status: ('A' for Active; 'I' for Inactive)
REMARK    1  A    between atoms: N1_3  and  C3_4
REMARK    2  A    between atoms: C3_4  and  C4_5
REMARK    3  A    between atoms: C4_5  and  C5_6
REMARK    4  A    between atoms: C5_6  and  C6_7
REMARK    5  A    between atoms: C6_7  and  N2_8
REMARK    6  A    between atoms: C21_23  and  C22_24
REMARK    7  A    between atoms: C22_24  and  N3_25
REMARK       I    between atoms: N3_25  and  C23_26
REMARK    8  A    between atoms: C23_26  and  C24_28
REMARK    9  A    between atoms: C24_28  and  N4_29
REMARK   10  A    between atoms: C26_37  and  C27_38
REMARK   11  A    between atoms: C27_38  and  C28_39
REMARK   12  A    between atoms: C28_39  and  C29_40
REMARK   13  A    between atoms: C29_40  and  N6_41
ROOT
HETATM    1  C1  UNL     1      22.749  32.419  17.529  1.00  0.00     0.044 C
HETATM    2  C2  UNL     1      22.210  32.511  16.457  1.00  0.00     0.109 C
HETATM    3  N1  UNL     1      21.553  32.592  15.193  1.00  0.00     0.033 N
HETATM    4  C17 UNL     1      21.781  31.351  14.541  1.00  0.00     0.307 C
HETATM    5  C18 UNL     1      22.987  30.824  13.971  1.00  0.00     0.056 C
HETATM    6  C19 UNL     1      22.639  29.990  12.731  1.00  0.00     0.005 C
HETATM    7  C20 UNL     1      21.560  28.995  12.833  1.00  0.00     0.020 C
HETATM    8  C21 UNL     1      20.170  29.385  12.437  1.00  0.00     0.130 C
HETATM    9  C25 UNL     1      19.208  29.354  13.624  1.00  0.00     0.228 C
HETATM   10  O2  UNL     1      18.495  28.308  13.812  1.00  0.00    -0.273 OA
HETATM   11  N5  UNL     1      19.042  30.386  14.533  1.00  0.00    -0.353 N
ATOM     12  H5  UNL     1      18.710  30.065  15.443  1.00  0.00     0.163 HD
HETATM   13  C26 UNL     1      19.234  31.819  14.476  1.00  0.00     0.126 C
HETATM   14  C31 UNL     1      20.123  32.387  15.519  1.00  0.00     0.321 C
HETATM   15  C32 UNL     1      20.397  31.172  16.406  1.00  0.00     0.254 C
HETATM   16  O3  UNL     1      19.882  30.931  17.497  1.00  0.00    -0.271 OA
HETATM   17  N9  UNL     1      21.360  30.492  15.605  1.00  0.00    -0.330 N
ATOM     18  H9  UNL     1      21.696  29.542  15.765  1.00  0.00     0.164 HD
ENDROOT
BRANCH   3  19
HETATM   19  C3  UNL     1      21.816  33.787  14.491  1.00  0.00     0.258 C
BRANCH  19  20
HETATM   20  C4  UNL     1      23.207  34.252  14.836  1.00  0.00     0.031 C
BRANCH  20  21
HETATM   21  C5  UNL     1      23.337  35.782  14.837  1.00  0.00     0.030 C
BRANCH  21  22
HETATM   22  C6  UNL     1      22.325  36.258  15.813  1.00  0.00     0.237 C
BRANCH  22  23
HETATM   23  N2  UNL     1      22.457  37.635  16.275  1.00  0.00    -0.067 N
HETATM   24  C7  UNL     1      23.780  37.730  16.786  1.00  0.00     0.237 C
HETATM   25  C8  UNL     1      24.122  38.683  17.855  1.00  0.00     0.028 C
HETATM   26  C9  UNL     1      24.489  40.083  17.382  1.00  0.00     0.002 C
HETATM   27  C10 UNL     1      23.463  41.113  17.523  1.00  0.00     0.000 C
HETATM   28  C11 UNL     1      22.052  40.717  17.750  1.00  0.00     0.005 C
HETATM   29  C12 UNL     1      21.259  40.215  16.615  1.00  0.00    -0.011 C
HETATM   30  C13 UNL     1      21.971  39.898  15.365  1.00  0.00     0.032 C
HETATM   31  C15 UNL     1      20.498  38.950  17.023  1.00  0.00     0.032 C
HETATM   32  C14 UNL     1      22.219  38.446  15.102  1.00  0.00     0.238 C
HETATM   33  C16 UNL     1      21.405  37.789  17.264  1.00  0.00     0.238 C
ENDBRANCH  22  23
ENDBRANCH  21  22
ENDBRANCH  20  21
ENDBRANCH  19  20
ENDBRANCH   3  19
BRANCH  13  34
HETATM   34  C27 UNL     1      17.811  32.321  14.869  1.00  0.00     0.029 C
BRANCH  34  35
HETATM   35  C28 UNL     1      17.730  33.772  14.453  1.00  0.00     0.022 C
BRANCH  35  36
HETATM   36  C29 UNL     1      16.952  34.626  15.429  1.00  0.00     0.122 C
BRANCH  36  37
HETATM   37  N6  UNL     1      17.883  35.058  16.440  1.00  0.00    -0.367 N
HETATM   38  C30 UNL     1      17.594  35.111  17.656  1.00  0.00     0.196 C
HETATM   39  N7  UNL     1      16.291  34.739  18.128  1.00  0.00    -0.067 NA
HETATM   40  N8  UNL     1      18.539  35.542  18.611  1.00  0.00    -0.067 NA
ATOM     41  H6  UNL     1      18.821  35.334  16.151  1.00  0.00     0.161 HD
ENDBRANCH  36  37
ENDBRANCH  35  36
ENDBRANCH  34  35
ENDBRANCH  13  34
BRANCH   8  42
HETATM   42  C22 UNL     1      19.512  28.425  11.458  1.00  0.00     0.173 C
BRANCH  42  43
HETATM   43  N3  UNL     1      20.072  27.216  11.173  1.00  0.00    -0.385 NA
HETATM   44  C23 UNL     1      20.627  25.994  10.885  1.00  0.00     0.316 C
HETATM   45  O1  UNL     1      20.010  24.937  10.567  1.00  0.00    -0.255 OA
BRANCH  44  46
HETATM   46  C24 UNL     1      22.133  25.768  10.920  1.00  0.00     0.348 C
BRANCH  46  47
HETATM   47  N4  UNL     1      22.582  25.694   9.566  1.00  0.00    -0.070 N
ATOM     48  H43 UNL     1      21.825  25.534   8.902  1.00  0.00     0.274 HD
ATOM     49  H42 UNL     1      22.892  26.594   9.199  1.00  0.00     0.274 HD
ATOM     50  H41 UNL     1      23.307  24.976   9.526  1.00  0.00     0.274 HD
ENDBRANCH  46  47
ENDBRANCH  44  46
ENDBRANCH  42  43
ENDBRANCH   8  42
TORSDOF 13
ENDMDL