MODEL 3
REMARK VINA RESULT: -7.492112150      0.598      1.156
REMARK  13 active torsions:
REMARK  status: ('A' for Active; 'I' for Inactive)
REMARK    1  A    between atoms: C2_2  and  N1_3
REMARK    2  A    between atoms: N1_3  and  C3_4
REMARK    3  A    between atoms: C3_4  and  C4_5
REMARK    4  A    between atoms: C4_5  and  C5_6
REMARK    5  A    between atoms: C5_6  and  C6_7
REMARK    6  A    between atoms: C7_8  and  C8_9
REMARK    7  A    between atoms: C10_14  and  C11_15
REMARK    8  A    between atoms: C11_15  and  C12_16
REMARK    9  A    between atoms: C12_16  and  C13_17
REMARK   10  A    between atoms: C13_17  and  C14_18
REMARK   11  A    between atoms: C14_18  and  N3_19
REMARK   12  A    between atoms: C16_27  and  C17_28
REMARK   13  A    between atoms: C20_33  and  O3_34
ROOT
HETATM    1  C8  UNL     1      21.998  37.305  16.011  1.00  0.00     0.200 C
HETATM    2  N2  UNL     1      21.735  37.043  17.391  1.00  0.00    -0.343 N
ATOM      3  H2  UNL     1      22.488  36.514  17.831  1.00  0.00     0.163 HD
HETATM    4  C9  UNL     1      20.722  37.326  18.271  1.00  0.00     0.241 C
HETATM    5  O1  UNL     1      20.989  37.492  19.495  1.00  0.00    -0.271 OA
HETATM    6  C10 UNL     1      19.222  37.485  18.043  1.00  0.00     0.176 C
HETATM    7  N4  UNL     1      18.946  38.423  17.010  1.00  0.00    -0.346 N
ATOM      8  H4  UNL     1      18.876  38.002  16.084  1.00  0.00     0.163 HD
HETATM    9  C15 UNL     1      18.751  39.808  17.012  1.00  0.00     0.241 C
HETATM   10  O2  UNL     1      17.625  40.218  16.517  1.00  0.00    -0.271 OA
HETATM   11  C16 UNL     1      19.625  40.915  17.487  1.00  0.00     0.179 C
HETATM   12  N5  UNL     1      20.089  40.794  18.825  1.00  0.00    -0.359 N
ATOM     13  H5  UNL     1      19.599  40.047  19.318  1.00  0.00     0.162 HD
HETATM   14  C20 UNL     1      21.016  41.403  19.640  1.00  0.00     0.135 C
HETATM   15  C21 UNL     1      22.421  41.715  19.679  1.00  0.00     0.162 C
HETATM   16  C22 UNL     1      22.637  42.862  20.675  1.00  0.00     0.035 C
HETATM   17  C23 UNL     1      22.789  44.004  19.716  1.00  0.00     0.022 C
HETATM   18  C24 UNL     1      23.737  43.389  18.769  1.00  0.00     0.127 C
HETATM   19  N6  UNL     1      23.198  42.023  18.537  1.00  0.00    -0.335 N
HETATM   20  C25 UNL     1      23.491  41.293  17.386  1.00  0.00     0.266 C
HETATM   21  O4  UNL     1      23.190  41.916  16.290  1.00  0.00    -0.266 OA
HETATM   22  C26 UNL     1      24.074  39.962  17.133  1.00  0.00     0.076 C
HETATM   23  C27 UNL     1      24.235  39.066  18.284  1.00  0.00     0.074 C
HETATM   24  N7  UNL     1      23.560  39.396  15.912  1.00  0.00    -0.324 N
ATOM     25  H7  UNL     1      24.152  39.579  15.101  1.00  0.00     0.169 HD
HETATM   26  C28 UNL     1      22.416  38.647  15.607  1.00  0.00     0.248 C
HETATM   27  O5  UNL     1      21.582  39.254  14.822  1.00  0.00    -0.271 OA
ENDROOT
BRANCH   1  28
HETATM   28  C7  UNL     1      22.841  36.245  15.337  1.00  0.00     0.003 C
HETATM   29  C6  UNL     1      22.716  34.955  15.455  1.00  0.00    -0.028 C
BRANCH  29  30
HETATM   30  C5  UNL     1      23.617  34.021  14.732  1.00  0.00     0.028 C
BRANCH  30  31
HETATM   31  C4  UNL     1      22.904  32.782  14.219  1.00  0.00     0.032 C
BRANCH  31  32
HETATM   32  C3  UNL     1      22.248  32.139  15.411  1.00  0.00     0.237 C
BRANCH  32  33
HETATM   33  N1  UNL     1      20.985  31.518  15.136  1.00  0.00    -0.067 N
HETATM   34  C29 UNL     1      21.286  30.155  14.706  1.00  0.00     0.237 C
HETATM   35  C30 UNL     1      20.338  29.837  13.583  1.00  0.00     0.029 C
HETATM   36  C31 UNL     1      19.497  31.050  13.360  1.00  0.00     0.029 C
HETATM   37  C32 UNL     1      20.278  32.140  14.084  1.00  0.00     0.237 C
BRANCH  33  38
HETATM   38  C2  UNL     1      20.253  31.497  16.395  1.00  0.00     0.233 C
HETATM   39  C1  UNL     1      19.551  32.765  16.727  1.00  0.00     0.035 C
ENDBRANCH  33  38
ENDBRANCH  32  33
ENDBRANCH  31  32
ENDBRANCH  30  31
ENDBRANCH  29  30
ENDBRANCH   1  28
BRANCH   6  40
HETATM   40  C11 UNL     1      18.686  36.095  17.815  1.00  0.00     0.035 C
BRANCH  40  41
HETATM   41  C12 UNL     1      17.271  35.895  17.593  1.00  0.00     0.004 C
BRANCH  41  42
HETATM   42  C13 UNL     1      16.836  35.473  16.233  1.00  0.00     0.027 C
BRANCH  42  43
HETATM   43  C14 UNL     1      16.107  34.105  16.375  1.00  0.00     0.229 C
BRANCH  43  44
HETATM   44  N3  UNL     1      15.342  34.073  17.599  1.00  0.00    -0.079 N
ATOM     45  H33 UNL     1      14.879  33.175  17.736  1.00  0.00     0.274 HD
ATOM     46  H32 UNL     1      15.942  34.060  18.424  1.00  0.00     0.274 HD
ATOM     47  H31 UNL     1      14.681  34.850  17.621  1.00  0.00     0.274 HD
ENDBRANCH  43  44
ENDBRANCH  42  43
ENDBRANCH  41  42
ENDBRANCH  40  41
ENDBRANCH   6  40
BRANCH  11  48
HETATM   48  C17 UNL     1      18.856  42.246  17.268  1.00  0.00     0.009 C
HETATM   49  C18 UNL     1      17.973  42.574  18.421  1.00  0.00     0.012 C
HETATM   50  C19 UNL     1      19.693  43.337  16.736  1.00  0.00     0.012 C
ENDBRANCH  11  48
BRANCH  14  51
HETATM   51  O3  UNL     1      20.442  41.840  20.742  1.00  0.00    -0.348 OA
ATOM     52  H3  UNL     1      20.627  42.763  20.867  1.00  0.00     0.219 HD
ENDBRANCH  14  51
TORSDOF 13
ENDMDL