MODEL 4
REMARK VINA RESULT: -8.755139100      2.407      9.805
REMARK  12 active torsions:
REMARK  status: ('A' for Active; 'I' for Inactive)
REMARK    1  A    between atoms: C2_2  and  N1_3
REMARK    2  A    between atoms: N1_3  and  C3_4
REMARK    3  A    between atoms: C3_4  and  C4_5
REMARK    4  A    between atoms: C4_5  and  C5_6
REMARK    5  A    between atoms: C5_6  and  C6_7
REMARK    6  A    between atoms: C6_7  and  C7_8
REMARK    7  A    between atoms: C7_8  and  C8_9
REMARK    8  A    between atoms: C12_16  and  C13_17
REMARK    9  A    between atoms: C13_17  and  C14_18
REMARK   10  A    between atoms: C14_18  and  C15_19
REMARK       I    between atoms: C15_19  and  N3_21
REMARK   11  A    between atoms: N3_21  and  C16_23
REMARK   12  A    between atoms: C20_34  and  N7_35
ROOT
HETATM    1  C8  UNL     1      19.146  33.867  16.980  1.00  0.00     0.084 C
HETATM    2  C9  UNL     1      20.580  33.502  17.015  1.00  0.00     0.034 C
HETATM    3  C10 UNL     1      21.467  33.991  15.930  1.00  0.00     0.105 C
HETATM    4  C11 UNL     1      22.604  33.032  15.819  1.00  0.00     0.223 C
HETATM    5  O1  UNL     1      22.938  32.636  16.999  1.00  0.00    -0.273 OA
HETATM    6  N2  UNL     1      23.282  32.564  14.685  1.00  0.00    -0.317 N
ATOM      7  H2  UNL     1      24.240  32.913  14.673  1.00  0.00     0.170 HD
HETATM    8  C12 UNL     1      23.046  31.773  13.581  1.00  0.00     0.086 C
HETATM    9  N6  UNL     1      21.803  31.573  12.934  1.00  0.00    -0.315 N
ATOM     10  H6  UNL     1      21.949  31.133  12.025  1.00  0.00     0.170 HD
HETATM   11  C19 UNL     1      20.456  31.787  13.146  1.00  0.00     0.246 C
HETATM   12  O3  UNL     1      19.813  32.610  12.380  1.00  0.00    -0.271 OA
HETATM   13  C20 UNL     1      19.527  31.211  14.162  1.00  0.00     0.190 C
HETATM   14  C25 UNL     1      18.300  32.090  14.302  1.00  0.00     0.138 C
HETATM   15  C26 UNL     1      17.745  32.178  15.651  1.00  0.00     0.220 C
HETATM   16  O5  UNL     1      16.553  31.715  15.809  1.00  0.00    -0.274 OA
HETATM   17  N9  UNL     1      18.328  32.696  16.804  1.00  0.00    -0.356 N
ATOM     18  H9  UNL     1      18.148  32.164  17.655  1.00  0.00     0.162 HD
ENDROOT
BRANCH   8  19
HETATM   19  C13 UNL     1      23.726  30.415  13.577  1.00  0.00     0.086 C
BRANCH  19  20
HETATM   20  C14 UNL     1      22.950  29.254  13.125  1.00  0.00     0.111 C
BRANCH  20  21
HETATM   21  C15 UNL     1      23.517  28.354  12.123  1.00  0.00     0.236 C
HETATM   22  O2  UNL     1      24.648  27.816  12.156  1.00  0.00    -0.273 OA
HETATM   23  N3  UNL     1      22.700  28.039  10.977  1.00  0.00    -0.160 N
ATOM     24  H3  UNL     1      22.806  28.602  10.133  1.00  0.00     0.187 HD
BRANCH  23  25
HETATM   25  C16 UNL     1      21.852  27.087  10.972  1.00  0.00     0.684 A
HETATM   26  N4  UNL     1      21.774  26.089  11.893  1.00  0.00    -0.200 N
HETATM   27  C17 UNL     1      20.754  25.297  11.528  1.00  0.00     0.123 A
ATOM     28  H4  UNL     1      22.376  25.965  12.707  1.00  0.00     0.183 HD
HETATM   29  C18 UNL     1      20.194  25.799  10.379  1.00  0.00     0.123 A
HETATM   30  N5  UNL     1      20.894  26.903  10.060  1.00  0.00    -0.200 N
ATOM     31  H5  UNL     1      20.720  27.503   9.254  1.00  0.00     0.183 HD
ENDBRANCH  23  25
ENDBRANCH  20  21
ENDBRANCH  19  20
ENDBRANCH   8  19
BRANCH  13  32
HETATM   32  N7  UNL     1      19.031  29.902  13.737  1.00  0.00    -0.320 N
HETATM   33  C21 UNL     1      18.152  29.790  12.566  1.00  0.00     0.130 C
HETATM   34  C22 UNL     1      18.187  28.335  12.106  1.00  0.00     0.040 C
HETATM   35  C23 UNL     1      17.674  27.464  13.261  1.00  0.00     0.126 C
HETATM   36  N8  UNL     1      18.629  27.550  14.341  1.00  0.00    -0.343 N
HETATM   37  C24 UNL     1      19.418  28.750  14.470  1.00  0.00     0.319 C
ATOM     38  H8  UNL     1      18.742  26.779  14.998  1.00  0.00     0.164 HD
HETATM   39  O4  UNL     1      20.439  28.764  15.227  1.00  0.00    -0.247 OA
ENDBRANCH  13  32
BRANCH   1  40
HETATM   40  C7  UNL     1      18.821  35.044  16.136  1.00  0.00     0.025 C
BRANCH  40  41
HETATM   41  C6  UNL     1      17.895  36.027  16.773  1.00  0.00     0.002 C
BRANCH  41  42
HETATM   42  C5  UNL     1      18.321  36.496  18.122  1.00  0.00     0.002 C
BRANCH  42  43
HETATM   43  C4  UNL     1      19.066  37.790  18.149  1.00  0.00     0.028 C
BRANCH  43  44
HETATM   44  C3  UNL     1      20.554  37.576  18.317  1.00  0.00     0.237 C
BRANCH  44  45
HETATM   45  N1  UNL     1      21.334  38.400  17.418  1.00  0.00    -0.067 N
HETATM   46  C27 UNL     1      21.906  37.540  16.407  1.00  0.00     0.237 C
HETATM   47  C28 UNL     1      23.364  37.402  16.688  1.00  0.00     0.029 C
HETATM   48  C29 UNL     1      23.707  38.441  17.701  1.00  0.00     0.029 C
HETATM   49  C30 UNL     1      22.401  39.001  18.153  1.00  0.00     0.237 C
BRANCH  45  50
HETATM   50  C2  UNL     1      20.539  39.464  16.835  1.00  0.00     0.233 C
HETATM   51  C1  UNL     1      21.130  39.909  15.501  1.00  0.00     0.035 C
ENDBRANCH  45  50
ENDBRANCH  44  45
ENDBRANCH  43  44
ENDBRANCH  42  43
ENDBRANCH  41  42
ENDBRANCH  40  41
ENDBRANCH   1  40
TORSDOF 12
ENDMDL