MODEL 3
REMARK VINA RESULT: -8.960650943      2.191      3.298
REMARK  15 active torsions:
REMARK  status: ('A' for Active; 'I' for Inactive)
REMARK    1  A    between atoms: N1_8  and  C8_9
REMARK    2  A    between atoms: C8_9  and  C9_10
REMARK       I    between atoms: C9_10  and  N2_12
REMARK    3  A    between atoms: C13_16  and  C14_17
REMARK    4  A    between atoms: C14_17  and  O2_18
REMARK    5  A    between atoms: C14_17  and  N3_20
REMARK    6  A    between atoms: N3_20  and  C16_22
REMARK    7  A    between atoms: C16_22  and  O3_23
REMARK    8  A    between atoms: C16_22  and  N4_25
REMARK    9  A    between atoms: N4_25  and  C17_27
REMARK   10  A    between atoms: C17_27  and  C18_28
REMARK   11  A    between atoms: C17_27  and  C19_31
REMARK   12  A    between atoms: C26_38  and  N6_39
REMARK       I    between atoms: N6_39  and  C27_41
REMARK   13  A    between atoms: C27_41  and  C28_43
REMARK   14  A    between atoms: C28_43  and  C29_44
REMARK   15  A    between atoms: C29_44  and  N7_45
REMARK       I    between atoms: N7_45  and  C30_47
ROOT
HETATM    1  C9  UNL     1      19.334  33.254  16.084  1.00  0.00     0.267 C
HETATM    2  O1  UNL     1      19.796  32.752  17.116  1.00  0.00    -0.267 OA
HETATM    3  N2  UNL     1      18.116  33.961  16.171  1.00  0.00    -0.335 N
HETATM    4  C10 UNL     1      17.361  34.621  15.071  1.00  0.00     0.127 C
HETATM    5  C11 UNL     1      15.915  34.484  15.422  1.00  0.00     0.022 C
HETATM    6  C12 UNL     1      15.891  33.766  16.748  1.00  0.00     0.035 C
HETATM    7  C13 UNL     1      17.295  34.145  17.328  1.00  0.00     0.162 C
ENDROOT
BRANCH   1   8
HETATM    8  C8  UNL     1      19.977  33.152  14.799  1.00  0.00     0.276 C
BRANCH   8   9
HETATM    9  N1  UNL     1      20.193  31.900  14.176  1.00  0.00    -0.036 N
HETATM   10  C2  UNL     1      19.729  30.797  15.012  1.00  0.00     0.192 C
HETATM   11  C1  UNL     1      18.263  30.565  14.984  1.00  0.00     0.041 C
HETATM   12  C3  UNL     1      20.446  29.522  14.668  1.00  0.00     0.045 C
HETATM   13  C4  UNL     1      20.816  29.620  13.185  1.00  0.00    -0.018 C
HETATM   14  C5  UNL     1      21.204  28.291  12.631  1.00  0.00     0.017 C
HETATM   15  C6  UNL     1      19.701  30.302  12.416  1.00  0.00     0.039 C
HETATM   16  C26 UNL     1      22.003  30.598  13.153  1.00  0.00     0.119 C
HETATM   17  C7  UNL     1      19.728  31.765  12.816  1.00  0.00     0.244 C
HETATM   18  C25 UNL     1      21.656  31.717  14.088  1.00  0.00     0.269 C
BRANCH  16  19
HETATM   19  N6  UNL     1      23.194  29.894  13.585  1.00  0.00    -0.354 N
HETATM   20  C27 UNL     1      24.182  29.419  12.680  1.00  0.00     0.219 C
HETATM   21  O5  UNL     1      24.019  29.612  11.459  1.00  0.00    -0.274 OA
ATOM     22  H6  UNL     1      23.330  29.733  14.583  1.00  0.00     0.162 HD
BRANCH  20  23
HETATM   23  C28 UNL     1      25.377  28.711  13.151  1.00  0.00     0.122 C
BRANCH  23  24
HETATM   24  C29 UNL     1      26.032  27.948  12.028  1.00  0.00     0.131 C
BRANCH  24  25
HETATM   25  N7  UNL     1      25.461  26.610  11.933  1.00  0.00    -0.364 N
HETATM   26  C30 UNL     1      24.728  26.168  10.806  1.00  0.00     0.181 C
HETATM   27  N8  UNL     1      25.261  26.140   9.647  1.00  0.00    -0.374 N
HETATM   28  N9  UNL     1      23.387  25.753  10.978  1.00  0.00    -0.064 NA
ATOM     29  H82 UNL     1      26.228  26.439   9.523  1.00  0.00     0.158 HD
ATOM     30  H81 UNL     1      24.733  25.821   8.834  1.00  0.00     0.158 HD
ATOM     31  H7  UNL     1      25.596  25.965  12.712  1.00  0.00     0.162 HD
ENDBRANCH  24  25
ENDBRANCH  23  24
ENDBRANCH  20  23
ENDBRANCH  16  19
ENDBRANCH   8   9
ENDBRANCH   1   8
BRANCH   7  32
HETATM   32  C14 UNL     1      17.215  35.516  17.817  1.00  0.00     0.144 C
BRANCH  32  33
HETATM   33  O2  UNL     1      16.009  35.863  18.195  1.00  0.00    -0.348 OA
ATOM     34  H2  UNL     1      15.358  35.187  18.042  1.00  0.00     0.219 HD
ENDBRANCH  32  33
BRANCH  32  35
HETATM   35  N3  UNL     1      18.181  36.519  17.955  1.00  0.00    -0.300 N
HETATM   36  C15 UNL     1      17.898  37.916  17.557  1.00  0.00     0.161 C
BRANCH  35  37
HETATM   37  C16 UNL     1      19.459  36.297  18.480  1.00  0.00     0.221 C
BRANCH  37  38
HETATM   38  O3  UNL     1      19.622  35.171  19.119  1.00  0.00    -0.332 OA
ATOM     39  H3  UNL     1      20.499  35.003  19.443  1.00  0.00     0.220 HD
ENDBRANCH  37  38
BRANCH  37  40
HETATM   40  N4  UNL     1      20.578  37.088  18.423  1.00  0.00    -0.343 N
ATOM     41  H4  UNL     1      20.925  37.521  19.278  1.00  0.00     0.164 HD
BRANCH  40  42
HETATM   42  C17 UNL     1      21.306  37.333  17.129  1.00  0.00     0.178 C
BRANCH  42  43
HETATM   43  C18 UNL     1      22.039  36.091  16.849  1.00  0.00     0.254 C
HETATM   44  N5  UNL     1      22.283  35.712  15.513  1.00  0.00    -0.060 NA
HETATM   45  O4  UNL     1      22.448  35.367  17.773  1.00  0.00    -0.275 OA
ENDBRANCH  42  43
BRANCH  42  46
HETATM   46  C19 UNL     1      22.148  38.538  17.340  1.00  0.00     0.017 C
HETATM   47  C20 UNL     1      22.718  39.182  16.128  1.00  0.00     0.007 C
HETATM   48  C21 UNL     1      21.678  39.743  15.199  1.00  0.00     0.000 C
HETATM   49  C22 UNL     1      20.445  40.212  15.886  1.00  0.00     0.000 C
HETATM   50  C23 UNL     1      20.551  40.487  17.342  1.00  0.00     0.000 C
HETATM   51  C24 UNL     1      21.404  39.575  18.144  1.00  0.00     0.007 C
ENDBRANCH  42  46
ENDBRANCH  40  42
ENDBRANCH  37  40
ENDBRANCH  35  37
ENDBRANCH  32  35
ENDBRANCH   7  32
TORSDOF 15
ENDMDL