MODEL 2
REMARK VINA RESULT: -9.428948674      1.512      1.921
REMARK  14 active torsions:
REMARK  status: ('A' for Active; 'I' for Inactive)
REMARK    1  A    between atoms: C3_5  and  N2_6
REMARK    2  A    between atoms: C3_5  and  C18_26
REMARK    3  A    between atoms: N2_6  and  C4_8
REMARK    4  A    between atoms: C4_8  and  C5_9
REMARK    5  A    between atoms: C6_10  and  C7_11
REMARK    6  A    between atoms: C9_13  and  C10_14
REMARK    7  A    between atoms: C19_27  and  C20_28
REMARK    8  A    between atoms: C20_28  and  C21_29
REMARK    9  A    between atoms: C21_29  and  C22_30
REMARK   10  A    between atoms: C24_32  and  C25_33
REMARK   11  A    between atoms: C25_33  and  C26_34
REMARK       I    between atoms: C26_34  and  N5_36
REMARK   12  A    between atoms: N5_36  and  C27_38
REMARK   13  A    between atoms: C27_38  and  C28_39
REMARK   14  A    between atoms: C28_39  and  N6_40
REMARK       I    between atoms: N6_40  and  C29_42
REMARK       I    between atoms: C29_42  and  N7_44
ROOT
HETATM    1  C1  UNL     1      22.925  35.627  15.021  1.00  0.00     0.037 C
HETATM    2  C2  UNL     1      22.848  34.422  15.158  1.00  0.00     0.000 C
HETATM    3  N1  UNL     1      22.736  33.046  15.317  1.00  0.00    -0.305 N
ATOM      4  H1  UNL     1      23.568  32.511  15.569  1.00  0.00     0.177 HD
HETATM    5  C3  UNL     1      21.637  32.429  15.163  1.00  0.00     0.093 C
ENDROOT
BRANCH   5   6
HETATM    6  N2  UNL     1      21.604  31.019  15.339  1.00  0.00    -0.354 N
ATOM      7  H2  UNL     1      21.078  30.671  16.140  1.00  0.00     0.166 HD
BRANCH   6   8
HETATM    8  C4  UNL     1      22.216  30.063  14.528  1.00  0.00     0.103 C
BRANCH   8   9
HETATM    9  C5  UNL     1      21.790  29.360  13.515  1.00  0.00     0.014 A
HETATM   10  C6  UNL     1      20.542  28.958  13.062  1.00  0.00    -0.017 A
HETATM   11  C9  UNL     1      20.626  28.232  11.897  1.00  0.00     0.051 A
HETATM   12  N4  UNL     1      21.966  28.195  11.634  1.00  0.00    -0.355 N
HETATM   13  C16 UNL     1      22.670  28.845  12.564  1.00  0.00     0.035 A
ATOM     14  H4  UNL     1      22.379  27.727  10.827  1.00  0.00     0.166 HD
HETATM   15  C17 UNL     1      24.009  28.942  12.518  1.00  0.00     0.044 C
BRANCH  10  16
HETATM   16  C7  UNL     1      19.277  29.333  13.783  1.00  0.00     0.037 C
HETATM   17  C8  UNL     1      18.403  28.165  14.100  1.00  0.00     0.010 C
ENDBRANCH  10  16
BRANCH  11  18
HETATM   18  C10 UNL     1      19.615  27.532  11.103  1.00  0.00     0.007 A
HETATM   19  C11 UNL     1      19.725  26.191  11.065  1.00  0.00     0.102 A
HETATM   20  N3  UNL     1      18.831  25.352  10.351  1.00  0.00    -0.366 N
HETATM   21  C12 UNL     1      17.749  25.922   9.634  1.00  0.00     0.022 A
ATOM     22  H3  UNL     1      18.967  24.341  10.354  1.00  0.00     0.165 HD
HETATM   23  C13 UNL     1      16.900  25.173   8.960  1.00  0.00     0.043 C
HETATM   24  C14 UNL     1      17.638  27.365   9.689  1.00  0.00     0.029 A
HETATM   25  C15 UNL     1      18.526  28.106  10.388  1.00  0.00     0.017 A
ENDBRANCH  11  18
ENDBRANCH   8   9
ENDBRANCH   6   8
ENDBRANCH   5   6
BRANCH   5  26
HETATM   26  C18 UNL     1      20.418  33.159  14.788  1.00  0.00     0.063 A
HETATM   27  C19 UNL     1      19.097  32.719  15.307  1.00  0.00     0.002 A
HETATM   28  C24 UNL     1      19.719  34.053  15.718  1.00  0.00     0.011 A
BRANCH  27  29
HETATM   29  C20 UNL     1      17.892  32.769  14.368  1.00  0.00     0.006 C
BRANCH  29  30
HETATM   30  C21 UNL     1      16.679  32.184  15.060  1.00  0.00     0.000 C
BRANCH  30  31
HETATM   31  C22 UNL     1      15.752  33.314  15.433  1.00  0.00    -0.005 C
HETATM   32  C23 UNL     1      15.884  34.381  14.365  1.00  0.00     0.005 C
ENDBRANCH  30  31
ENDBRANCH  29  30
ENDBRANCH  27  29
BRANCH  28  33
HETATM   33  C25 UNL     1      19.928  34.171  17.182  1.00  0.00     0.108 C
BRANCH  33  34
HETATM   34  C26 UNL     1      18.944  35.180  17.731  1.00  0.00     0.217 C
HETATM   35  O1  UNL     1      18.969  35.476  18.956  1.00  0.00    -0.274 OA
HETATM   36  N5  UNL     1      17.996  35.792  16.870  1.00  0.00    -0.360 N
ATOM     37  H5  UNL     1      17.968  35.555  15.879  1.00  0.00     0.162 HD
BRANCH  36  38
HETATM   38  C27 UNL     1      17.057  36.768  17.430  1.00  0.00     0.142 C
BRANCH  38  39
HETATM   39  C28 UNL     1      17.560  38.159  17.219  1.00  0.00     0.144 C
BRANCH  39  40
HETATM   40  N6  UNL     1      18.990  38.230  17.289  1.00  0.00    -0.341 N
HETATM   41  C29 UNL     1      19.703  39.420  17.134  1.00  0.00     0.327 C
HETATM   42  O2  UNL     1      19.087  40.494  16.925  1.00  0.00    -0.247 OA
HETATM   43  N7  UNL     1      21.131  39.528  17.195  1.00  0.00    -0.235 N
HETATM   44  C30 UNL     1      22.062  38.490  17.446  1.00  0.00     0.321 C
HETATM   45  C32 UNL     1      21.906  40.755  17.019  1.00  0.00     0.113 C
HETATM   46  O3  UNL     1      21.849  37.361  17.975  1.00  0.00    -0.262 OA
HETATM   47  C31 UNL     1      23.365  38.990  16.963  1.00  0.00     0.312 C
HETATM   48  O4  UNL     1      24.447  38.344  17.017  1.00  0.00    -0.262 OA
HETATM   49  N8  UNL     1      23.142  40.292  16.452  1.00  0.00    -0.326 N
ATOM     50  H8  UNL     1      23.743  40.803  15.805  1.00  0.00     0.165 HD
HETATM   51  C33 UNL     1      22.100  41.480  18.324  1.00  0.00     0.064 C
HETATM   52  C34 UNL     1      21.263  41.685  16.003  1.00  0.00     0.064 C
ATOM     53  H6  UNL     1      19.512  37.370  17.460  1.00  0.00     0.164 HD
ENDBRANCH  39  40
ENDBRANCH  38  39
ENDBRANCH  36  38
ENDBRANCH  33  34
ENDBRANCH  28  33
ENDBRANCH   5  26
TORSDOF 14
ENDMDL