MODEL 3
REMARK VINA RESULT: -8.181371660      8.196     14.691
REMARK  13 active torsions:
REMARK  status: ('A' for Active; 'I' for Inactive)
REMARK    1  A    between atoms: C2_2  and  C3_3
REMARK    2  A    between atoms: C4_6  and  C5_7
REMARK    3  A    between atoms: C5_7  and  C6_8
REMARK    4  A    between atoms: C8_12  and  C9_13
REMARK       I    between atoms: C9_13  and  N3_15
REMARK    5  A    between atoms: C16_26  and  C17_27
REMARK    6  A    between atoms: C21_32  and  C22_33
REMARK    7  A    between atoms: C23_34  and  C24_35
REMARK    8  A    between atoms: C23_34  and  C26_37
REMARK       I    between atoms: C26_37  and  N7_39
REMARK    9  A    between atoms: N7_39  and  C27_41
REMARK   10  A    between atoms: C27_41  and  C28_42
REMARK   11  A    between atoms: C28_42  and  C29_43
REMARK   12  A    between atoms: C29_43  and  C30_44
REMARK   13  A    between atoms: C30_44  and  N8_45
ROOT
HETATM    1  C17 UNL     1      20.954  32.194  15.413  1.00  0.00     0.163 C
HETATM    2  C18 UNL     1      20.607  32.185  13.991  1.00  0.00     0.063 C
HETATM    3  N6  UNL     1      20.346  32.179  12.848  1.00  0.00    -0.197 NA
ENDROOT
BRANCH   1   4
HETATM    4  C16 UNL     1      20.616  33.565  15.939  1.00  0.00    -0.027 A
HETATM    5  C15 UNL     1      19.429  33.906  16.547  1.00  0.00     0.106 A
HETATM    6  N5  UNL     1      19.475  35.204  16.887  1.00  0.00    -0.313 N
HETATM    7  C14 UNL     1      18.635  36.069  17.491  1.00  0.00     0.136 A
HETATM    8  C20 UNL     1      20.752  35.731  16.482  1.00  0.00     0.066 A
HETATM    9  C7  UNL     1      18.961  37.405  17.721  1.00  0.00     0.083 A
HETATM   10  C13 UNL     1      17.395  35.651  17.911  1.00  0.00     0.275 A
HETATM   11  N2  UNL     1      20.159  37.860  17.329  1.00  0.00    -0.351 N
HETATM   12  C8  UNL     1      18.042  38.228  18.347  1.00  0.00     0.076 A
HETATM   13  C6  UNL     1      21.055  37.071  16.723  1.00  0.00     0.062 A
ATOM     14  H2  UNL     1      20.396  38.838  17.498  1.00  0.00     0.166 HD
HETATM   15  C12 UNL     1      16.814  37.767  18.750  1.00  0.00     0.111 A
HETATM   16  N4  UNL     1      16.507  36.488  18.528  1.00  0.00    -0.331 N
ATOM     17  H4  UNL     1      15.598  36.130  18.821  1.00  0.00     0.168 HD
HETATM   18  O2  UNL     1      17.064  34.451  17.722  1.00  0.00    -0.266 OA
HETATM   19  C19 UNL     1      21.415  34.684  15.905  1.00  0.00     0.041 A
BRANCH  13  20
HETATM   20  C5  UNL     1      22.327  37.594  16.315  1.00  0.00     0.062 C
BRANCH  20  21
HETATM   21  C4  UNL     1      22.416  38.639  15.484  1.00  0.00     0.045 A
HETATM   22  N1  UNL     1      22.053  38.691  14.219  1.00  0.00    -0.355 N
HETATM   23  C3  UNL     1      22.288  39.903  13.695  1.00  0.00     0.035 A
ATOM     24  H1  UNL     1      21.645  37.910  13.704  1.00  0.00     0.166 HD
HETATM   25  C32 UNL     1      22.845  40.673  14.722  1.00  0.00    -0.023 A
HETATM   26  C21 UNL     1      22.929  39.893  15.848  1.00  0.00    -0.001 A
HETATM   27  C33 UNL     1      23.291  42.095  14.532  1.00  0.00     0.051 C
BRANCH  23  28
HETATM   28  C2  UNL     1      22.046  40.317  12.449  1.00  0.00    -0.001 C
HETATM   29  C1  UNL     1      23.104  40.320  11.437  1.00  0.00     0.038 C
ENDBRANCH  23  28
BRANCH  26  30
HETATM   30  C22 UNL     1      23.471  40.175  17.164  1.00  0.00     0.027 C
HETATM   31  C23 UNL     1      23.044  40.932  18.108  1.00  0.00     0.010 C
BRANCH  31  32
HETATM   32  C24 UNL     1      21.805  41.727  18.023  1.00  0.00     0.040 C
HETATM   33  C25 UNL     1      22.018  43.201  17.896  1.00  0.00     0.010 C
ENDBRANCH  31  32
BRANCH  31  34
HETATM   34  C26 UNL     1      23.807  41.021  19.351  1.00  0.00     0.247 C
HETATM   35  O3  UNL     1      23.158  40.984  20.452  1.00  0.00    -0.268 OA
HETATM   36  N7  UNL     1      25.206  41.148  19.436  1.00  0.00    -0.357 N
ATOM     37  H7  UNL     1      25.769  41.185  18.586  1.00  0.00     0.162 HD
BRANCH  36  38
HETATM   38  C27 UNL     1      25.845  41.224  20.737  1.00  0.00     0.123 C
BRANCH  38  39
HETATM   39  C28 UNL     1      26.798  40.088  20.959  1.00  0.00     0.021 C
BRANCH  39  40
HETATM   40  C29 UNL     1      27.283  39.506  19.663  1.00  0.00     0.021 C
BRANCH  40  41
HETATM   41  C30 UNL     1      28.686  39.996  19.340  1.00  0.00     0.122 C
BRANCH  41  42
HETATM   42  N8  UNL     1      29.570  38.919  19.011  1.00  0.00    -0.367 N
HETATM   43  C31 UNL     1      30.316  38.271  19.835  1.00  0.00     0.196 C
HETATM   44  N9  UNL     1      31.118  37.226  19.247  1.00  0.00    -0.067 NA
HETATM   45  N10 UNL     1      30.384  38.529  21.233  1.00  0.00    -0.067 NA
ATOM     46  H8  UNL     1      29.612  38.639  18.032  1.00  0.00     0.161 HD
ENDBRANCH  41  42
ENDBRANCH  40  41
ENDBRANCH  39  40
ENDBRANCH  38  39
ENDBRANCH  36  38
ENDBRANCH  31  34
ENDBRANCH  26  30
ENDBRANCH  20  21
ENDBRANCH  13  20
BRANCH  12  47
HETATM   47  C9  UNL     1      18.416  39.609  18.569  1.00  0.00     0.256 C
HETATM   48  O1  UNL     1      19.376  39.913  19.351  1.00  0.00    -0.267 OA
HETATM   49  N3  UNL     1      17.698  40.632  17.902  1.00  0.00    -0.357 N
HETATM   50  C10 UNL     1      16.615  40.317  17.018  1.00  0.00     0.152 C
HETATM   51  C11 UNL     1      18.052  42.022  18.106  1.00  0.00     0.152 C
ENDBRANCH  12  47
ENDBRANCH   1   4
TORSDOF 13
ENDMDL