MODEL 4
REMARK VINA RESULT: -6.855465786      2.609      6.342
REMARK  15 active torsions:
REMARK  status: ('A' for Active; 'I' for Inactive)
REMARK    1  A    between atoms: N1_2  and  C3_4
REMARK    2  A    between atoms: C3_4  and  O1_5
REMARK    3  A    between atoms: C3_4  and  C4_7
REMARK    4  A    between atoms: C10_13  and  C11_14
REMARK       I    between atoms: C11_14  and  N2_16
REMARK       I    between atoms: N2_16  and  C12_18
REMARK    5  A    between atoms: C12_18  and  C13_20
REMARK    6  A    between atoms: C13_20  and  C14_21
REMARK    7  A    between atoms: C14_21  and  C15_22
REMARK    8  A    between atoms: C15_22  and  C16_23
REMARK    9  A    between atoms: C16_23  and  C17_24
REMARK   10  A    between atoms: C17_24  and  C18_25
REMARK   11  A    between atoms: C18_25  and  C19_26
REMARK   12  A    between atoms: C19_26  and  N3_27
REMARK       I    between atoms: N3_27  and  C20_29
REMARK   13  A    between atoms: C21_35  and  O4_36
REMARK   14  A    between atoms: C21_35  and  N7_38
REMARK   15  A    between atoms: C27_44  and  C28_45
REMARK       I    between atoms: C28_45  and  N8_47
ROOT
HETATM    1  C4  UNL     1      18.106  41.779  17.034  1.00  0.00     0.043 C
HETATM    2  C5  UNL     1      18.864  42.883  16.646  1.00  0.00    -0.008 C
HETATM    3  C6  UNL     1      20.288  43.065  16.462  1.00  0.00     0.036 C
HETATM    4  C7  UNL     1      21.134  41.842  16.236  1.00  0.00     0.027 C
HETATM    5  C8  UNL     1      22.604  42.285  16.466  1.00  0.00     0.011 C
HETATM    6  C9  UNL     1      22.300  41.954  17.949  1.00  0.00     0.042 C
HETATM    7  C10 UNL     1      21.312  40.996  17.445  1.00  0.00     0.126 C
HETATM    8  N6  UNL     1      20.000  40.868  18.170  1.00  0.00    -0.288 N
HETATM    9  C21 UNL     1      20.031  40.988  19.528  1.00  0.00     0.223 C
HETATM   10  C27 UNL     1      18.860  40.561  17.286  1.00  0.00     0.121 C
ENDROOT
BRANCH   7  11
HETATM   11  C11 UNL     1      21.847  39.647  17.166  1.00  0.00     0.253 C
HETATM   12  O2  UNL     1      22.316  39.020  18.178  1.00  0.00    -0.270 OA
HETATM   13  N2  UNL     1      21.869  39.029  15.905  1.00  0.00    -0.295 N
HETATM   14  C12 UNL     1      22.401  37.742  15.680  1.00  0.00     0.224 C
ATOM     15  H2  UNL     1      21.481  39.538  15.110  1.00  0.00     0.171 HD
HETATM   16  O3  UNL     1      22.270  37.271  14.488  1.00  0.00    -0.273 OA
BRANCH  14  17
HETATM   17  C13 UNL     1      23.069  36.976  16.732  1.00  0.00     0.103 C
BRANCH  17  18
HETATM   18  C14 UNL     1      22.414  35.659  17.055  1.00  0.00     0.009 C
BRANCH  18  19
HETATM   19  C15 UNL     1      22.962  34.501  16.305  1.00  0.00     0.000 C
BRANCH  19  20
HETATM   20  C16 UNL     1      21.925  33.894  15.360  1.00  0.00     0.000 C
BRANCH  20  21
HETATM   21  C17 UNL     1      20.569  34.349  15.825  1.00  0.00     0.002 C
BRANCH  21  22
HETATM   22  C18 UNL     1      19.736  33.220  16.377  1.00  0.00     0.020 C
BRANCH  22  23
HETATM   23  C19 UNL     1      18.288  33.586  16.255  1.00  0.00     0.122 C
BRANCH  23  24
HETATM   24  N3  UNL     1      18.037  34.493  15.168  1.00  0.00    -0.365 N
HETATM   25  C20 UNL     1      16.742  34.983  14.899  1.00  0.00     0.181 C
HETATM   26  N4  UNL     1      16.397  36.197  15.146  1.00  0.00    -0.374 N
HETATM   27  N5  UNL     1      15.721  34.150  14.338  1.00  0.00    -0.064 NA
ATOM     28  H42 UNL     1      17.124  36.791  15.546  1.00  0.00     0.158 HD
ATOM     29  H41 UNL     1      15.460  36.552  14.952  1.00  0.00     0.158 HD
ATOM     30  H3  UNL     1      18.813  34.788  14.577  1.00  0.00     0.162 HD
ENDBRANCH  23  24
ENDBRANCH  22  23
ENDBRANCH  21  22
ENDBRANCH  20  21
ENDBRANCH  19  20
ENDBRANCH  18  19
ENDBRANCH  17  18
ENDBRANCH  14  17
ENDBRANCH   7  11
BRANCH   9  31
HETATM   31  O4  UNL     1      21.306  41.035  19.972  1.00  0.00    -0.332 OA
ATOM     32  H4  UNL     1      21.329  41.070  20.922  1.00  0.00     0.221 HD
ENDBRANCH   9  31
BRANCH   9  33
HETATM   33  N7  UNL     1      19.152  41.079  20.595  1.00  0.00    -0.347 N
HETATM   34  C22 UNL     1      19.664  41.737  21.841  1.00  0.00     0.126 C
HETATM   35  C23 UNL     1      19.365  40.765  22.960  1.00  0.00     0.020 C
HETATM   36  C24 UNL     1      17.882  40.771  23.259  1.00  0.00     0.003 C
HETATM   37  C25 UNL     1      17.165  41.237  22.040  1.00  0.00     0.020 C
HETATM   38  C26 UNL     1      17.783  40.690  20.755  1.00  0.00     0.126 C
ENDBRANCH   9  33
BRANCH  10  39
HETATM   39  C28 UNL     1      18.354  39.233  17.334  1.00  0.00     0.275 C
HETATM   40  O5  UNL     1      17.213  38.976  16.821  1.00  0.00    -0.266 OA
HETATM   41  N8  UNL     1      19.034  38.152  17.918  1.00  0.00    -0.298 N
HETATM   42  C29 UNL     1      18.478  37.038  18.201  1.00  0.00     0.203 C
ATOM     43  H8  UNL     1      20.026  38.262  18.127  1.00  0.00     0.171 HD
HETATM   44  N9  UNL     1      17.092  36.748  17.960  1.00  0.00    -0.066 NA
HETATM   45  N10 UNL     1      19.303  36.028  18.792  1.00  0.00    -0.066 NA
ENDBRANCH  10  39
BRANCH   1  46
HETATM   46  C3  UNL     1      16.724  42.064  17.079  1.00  0.00     0.149 C
BRANCH  46  47
HETATM   47  N1  UNL     1      15.754  42.577  17.919  1.00  0.00    -0.370 N
HETATM   48  C1  UNL     1      15.349  43.888  18.309  1.00  0.00     0.151 C
HETATM   49  C2  UNL     1      14.914  41.509  18.609  1.00  0.00     0.151 C
ENDBRANCH  46  47
BRANCH  46  50
HETATM   50  O1  UNL     1      16.119  41.729  15.905  1.00  0.00    -0.346 OA
ATOM     51  H1  UNL     1      16.555  40.957  15.566  1.00  0.00     0.219 HD
ENDBRANCH  46  50
ENDBRANCH   1  46
TORSDOF 15
ENDMDL