MODEL 4
REMARK VINA RESULT: -6.641447188      0.899      1.196
REMARK  13 active torsions:
REMARK  status: ('A' for Active; 'I' for Inactive)
REMARK    1  A    between atoms: C2_2  and  C3_3
REMARK    2  A    between atoms: C3_3  and  C5_5
REMARK    3  A    between atoms: C7_10  and  C8_11
REMARK    4  A    between atoms: C8_11  and  C9_12
REMARK    5  A    between atoms: C11_19  and  C12_20
REMARK    6  A    between atoms: C12_20  and  C13_21
REMARK    7  A    between atoms: C17_28  and  C18_29
REMARK    8  A    between atoms: C18_29  and  C19_30
REMARK    9  A    between atoms: C19_30  and  C20_31
REMARK   10  A    between atoms: C20_31  and  N5_32
REMARK   11  A    between atoms: C26_40  and  O5_41
REMARK   12  A    between atoms: C27_43  and  C28_44
REMARK   13  A    between atoms: C31_49  and  O6_50
ROOT
HETATM    1  C5  UNL     1      21.773  36.321  17.088  1.00  0.00     0.162 C
HETATM    2  N1  UNL     1      22.665  37.306  17.712  1.00  0.00    -0.347 N
ATOM      3  H1  UNL     1      23.215  36.967  18.501  1.00  0.00     0.163 HD
HETATM    4  C6  UNL     1      22.861  38.642  17.369  1.00  0.00     0.241 C
HETATM    5  O1  UNL     1      23.488  39.314  18.281  1.00  0.00    -0.271 OA
HETATM    6  C7  UNL     1      22.502  39.423  16.201  1.00  0.00     0.185 C
HETATM    7  N3  UNL     1      21.187  39.965  16.122  1.00  0.00    -0.346 N
ATOM      8  H3  UNL     1      20.588  39.508  15.436  1.00  0.00     0.163 HD
HETATM    9  C10 UNL     1      20.568  41.012  16.815  1.00  0.00     0.241 C
HETATM   10  O3  UNL     1      20.045  41.937  16.149  1.00  0.00    -0.271 OA
HETATM   11  C11 UNL     1      20.439  41.179  18.300  1.00  0.00     0.177 C
HETATM   12  N4  UNL     1      19.038  41.221  18.673  1.00  0.00    -0.346 N
ATOM     13  H4  UNL     1      18.641  42.157  18.745  1.00  0.00     0.163 HD
HETATM   14  C16 UNL     1      18.153  40.188  18.946  1.00  0.00     0.241 C
HETATM   15  O4  UNL     1      17.569  40.123  20.061  1.00  0.00    -0.271 OA
HETATM   16  C17 UNL     1      17.796  39.059  17.972  1.00  0.00     0.175 C
HETATM   17  N6  UNL     1      17.247  37.954  18.724  1.00  0.00    -0.359 N
ATOM     18  H6  UNL     1      16.767  38.240  19.578  1.00  0.00     0.162 HD
HETATM   19  C26 UNL     1      17.241  36.597  18.519  1.00  0.00     0.135 C
HETATM   20  C27 UNL     1      18.298  35.629  18.046  1.00  0.00     0.161 C
HETATM   21  N7  UNL     1      19.591  35.992  18.506  1.00  0.00    -0.360 N
ATOM     22  H7  UNL     1      19.526  36.591  19.330  1.00  0.00     0.162 HD
HETATM   23  C31 UNL     1      20.921  35.771  18.162  1.00  0.00     0.135 C
ENDROOT
BRANCH  16  24
HETATM   24  C18 UNL     1      16.627  39.589  17.116  1.00  0.00     0.036 C
BRANCH  24  25
HETATM   25  C19 UNL     1      15.588  40.322  17.868  1.00  0.00     0.030 C
BRANCH  25  26
HETATM   26  C20 UNL     1      15.347  41.693  17.332  1.00  0.00     0.237 C
BRANCH  26  27
HETATM   27  N5  UNL     1      15.088  42.742  18.235  1.00  0.00    -0.071 N
HETATM   28  C21 UNL     1      14.778  42.297  19.574  1.00  0.00     0.272 C
HETATM   29  C22 UNL     1      14.046  43.651  17.824  1.00  0.00     0.237 C
HETATM   30  C23 UNL     1      14.694  44.937  17.376  1.00  0.00     0.029 C
HETATM   31  C24 UNL     1      15.882  44.996  18.322  1.00  0.00     0.029 C
HETATM   32  C25 UNL     1      16.317  43.554  18.321  1.00  0.00     0.237 C
ENDBRANCH  26  27
ENDBRANCH  25  26
ENDBRANCH  24  25
ENDBRANCH  16  24
BRANCH  19  33
HETATM   33  O5  UNL     1      16.115  35.992  18.775  1.00  0.00    -0.348 OA
ATOM     34  H5  UNL     1      15.913  35.246  18.222  1.00  0.00     0.219 HD
ENDBRANCH  19  33
BRANCH  11  35
HETATM   35  C12 UNL     1      21.073  42.499  18.676  1.00  0.00     0.038 C
BRANCH  35  36
HETATM   36  C13 UNL     1      22.089  42.463  19.753  1.00  0.00    -0.020 C
HETATM   37  C14 UNL     1      23.517  42.515  19.235  1.00  0.00     0.009 C
HETATM   38  C15 UNL     1      21.994  41.393  20.777  1.00  0.00     0.009 C
ENDBRANCH  35  36
ENDBRANCH  11  35
BRANCH  20  39
HETATM   39  C28 UNL     1      18.071  35.270  16.629  1.00  0.00     0.008 C
HETATM   40  C29 UNL     1      18.103  33.795  16.404  1.00  0.00     0.012 C
HETATM   41  C30 UNL     1      16.667  35.734  16.250  1.00  0.00     0.012 C
ENDBRANCH  20  39
BRANCH  23  42
HETATM   42  O6  UNL     1      21.575  34.931  18.909  1.00  0.00    -0.348 OA
ATOM     43  H6  UNL     1      22.434  35.265  19.142  1.00  0.00     0.219 HD
ENDBRANCH  23  42
BRANCH   6  44
HETATM   44  C8  UNL     1      23.501  40.580  15.971  1.00  0.00     0.134 C
BRANCH  44  45
HETATM   45  C9  UNL     1      23.465  41.130  14.622  1.00  0.00     0.233 C
HETATM   46  N2  UNL     1      24.475  42.036  14.125  1.00  0.00    -0.062 NA
HETATM   47  O2  UNL     1      22.561  40.859  13.802  1.00  0.00    -0.277 OA
ENDBRANCH  44  45
ENDBRANCH   6  44
BRANCH   1  48
HETATM   48  C3  UNL     1      22.677  35.285  16.480  1.00  0.00     0.012 C
HETATM   49  C4  UNL     1      23.318  35.590  15.187  1.00  0.00     0.012 C
BRANCH  48  50
HETATM   50  C2  UNL     1      21.937  33.949  16.309  1.00  0.00     0.002 C
HETATM   51  C1  UNL     1      21.534  33.795  14.871  1.00  0.00     0.005 C
ENDBRANCH  48  50
ENDBRANCH   1  48
TORSDOF 13
ENDMDL