MODEL 5
REMARK VINA RESULT: -7.952043104      1.848      3.574
REMARK  12 active torsions:
REMARK  status: ('A' for Active; 'I' for Inactive)
REMARK    1  A    between atoms: C2_2  and  C3_3
REMARK    2  A    between atoms: C3_3  and  C4_4
REMARK    3  A    between atoms: C4_4  and  C5_5
REMARK    4  A    between atoms: C5_5  and  N1_6
REMARK    5  A    between atoms: C5_5  and  C8_15
REMARK    6  A    between atoms: N1_6  and  S1_8
REMARK    7  A    between atoms: S1_8  and  C6_11
REMARK    8  A    between atoms: C6_11  and  C7_12
REMARK    9  A    between atoms: C8_15  and  N3_16
REMARK   10  A    between atoms: C8_15  and  C10_21
REMARK       I    between atoms: C10_21  and  N6_23
REMARK       I    between atoms: N6_23  and  C11_24
REMARK       I    between atoms: C11_24  and  N7_25
REMARK       I    between atoms: C11_24  and  N10_41
REMARK       I    between atoms: C12_27  and  N9_29
REMARK   11  A    between atoms: N9_29  and  C14_31
REMARK   12  A    between atoms: N10_41  and  N11_43
ROOT
HETATM    1  C10 UNL     1      20.034  35.873  18.161  1.00  0.00     0.319 C
HETATM    2  O4  UNL     1      19.801  35.622  19.359  1.00  0.00    -0.255 OA
HETATM    3  N6  UNL     1      20.021  37.179  17.764  1.00  0.00    -0.332 NA
HETATM    4  C11 UNL     1      19.764  38.320  17.694  1.00  0.00     0.285 C
HETATM    5  N7  UNL     1      20.425  39.139  16.684  1.00  0.00    -0.289 N
ATOM      6  H7  UNL     1      19.934  39.342  15.813  1.00  0.00     0.172 HD
HETATM    7  C12 UNL     1      21.598  39.610  16.854  1.00  0.00     0.194 C
HETATM    8  N8  UNL     1      22.258  39.309  18.086  1.00  0.00    -0.063 NA
HETATM    9  N9  UNL     1      22.206  40.379  15.819  1.00  0.00    -0.350 N
HETATM   10  C13 UNL     1      22.516  39.601  14.607  1.00  0.00     0.153 C
HETATM   11  N10 UNL     1      18.858  39.034  18.520  1.00  0.00    -0.175 N
ATOM     12  H10 UNL     1      19.215  39.333  19.427  1.00  0.00     0.198 HD
ENDROOT
BRANCH   1  13
HETATM   13  C8  UNL     1      20.325  34.847  17.179  1.00  0.00     0.214 C
BRANCH  13  14
HETATM   14  C5  UNL     1      19.206  33.969  16.607  1.00  0.00     0.126 C
BRANCH  14  15
HETATM   15  C4  UNL     1      19.789  32.842  15.838  1.00  0.00     0.028 C
BRANCH  15  16
HETATM   16  C3  UNL     1      19.555  31.486  16.411  1.00  0.00     0.002 C
BRANCH  16  17
HETATM   17  C2  UNL     1      20.592  30.478  15.920  1.00  0.00    -0.004 C
HETATM   18  C1  UNL     1      21.481  31.051  14.865  1.00  0.00     0.005 C
ENDBRANCH  16  17
ENDBRANCH  15  16
ENDBRANCH  14  15
BRANCH  14  19
HETATM   19  N1  UNL     1      18.430  34.851  15.763  1.00  0.00    -0.312 N
ATOM     20  H1  UNL     1      18.754  35.806  15.610  1.00  0.00     0.172 HD
BRANCH  19  21
HETATM   21  S1  UNL     1      17.028  34.350  15.039  1.00  0.00     0.235 S
HETATM   22  O1  UNL     1      17.181  33.098  14.189  1.00  0.00    -0.205 OA
HETATM   23  O2  UNL     1      16.466  35.451  14.090  1.00  0.00    -0.205 OA
BRANCH  21  24
HETATM   24  C6  UNL     1      15.694  34.026  16.142  1.00  0.00     0.262 C
BRANCH  24  25
HETATM   25  C7  UNL     1      15.379  35.020  17.150  1.00  0.00     0.246 C
HETATM   26  N2  UNL     1      16.188  35.068  18.339  1.00  0.00    -0.061 NA
HETATM   27  O3  UNL     1      14.424  35.845  17.021  1.00  0.00    -0.276 OA
ENDBRANCH  24  25
ENDBRANCH  21  24
ENDBRANCH  19  21
ENDBRANCH  14  19
ENDBRANCH  13  14
BRANCH  13  28
HETATM   28  N3  UNL     1      21.076  35.423  16.103  1.00  0.00    -0.351 N
HETATM   29  C9  UNL     1      22.211  35.159  15.653  1.00  0.00     0.197 C
HETATM   30  N4  UNL     1      22.656  35.965  14.532  1.00  0.00    -0.067 NA
HETATM   31  N5  UNL     1      23.132  34.194  16.102  1.00  0.00    -0.067 NA
ATOM     32  H3  UNL     1      20.599  36.184  15.619  1.00  0.00     0.162 HD
ENDBRANCH  13  28
ENDBRANCH   1  13
BRANCH  11  33
HETATM   33  N11 UNL     1      17.557  39.368  18.238  1.00  0.00     0.004 N
HETATM   34  C24 UNL     1      16.886  38.473  17.349  1.00  0.00     0.301 C
HETATM   35  C25 UNL     1      17.473  40.699  17.602  1.00  0.00     0.301 C
HETATM   36  C26 UNL     1      16.828  39.442  19.479  1.00  0.00     0.301 C
ENDBRANCH  11  33
BRANCH   9  37
HETATM   37  C14 UNL     1      22.511  41.759  15.839  1.00  0.00     0.038 C
HETATM   38  C15 UNL     1      21.328  42.552  16.419  1.00  0.00     0.032 C
HETATM   39  C16 UNL     1      21.280  43.859  15.642  1.00  0.00     0.011 C
HETATM   40  C17 UNL     1      22.576  43.869  14.865  1.00  0.00    -0.042 C
HETATM   41  C18 UNL     1      22.459  44.688  13.625  1.00  0.00     0.015 C
HETATM   42  C19 UNL     1      23.658  44.390  15.776  1.00  0.00     0.010 C
HETATM   43  C23 UNL     1      22.744  42.403  14.522  1.00  0.00     0.040 C
HETATM   44  C20 UNL     1      23.852  43.544  16.995  1.00  0.00     0.007 C
HETATM   45  C21 UNL     1      23.670  42.075  16.757  1.00  0.00     0.010 C
HETATM   46  C22 UNL     1      24.944  41.446  16.252  1.00  0.00     0.012 C
ENDBRANCH   9  37
TORSDOF 12
ENDMDL