MODEL 3
REMARK VINA RESULT: -9.200777601      1.746      3.300
REMARK  11 active torsions:
REMARK  status: ('A' for Active; 'I' for Inactive)
REMARK    1  A    between atoms: C2_2  and  C3_3
REMARK    2  A    between atoms: C3_3  and  C5_5
REMARK    3  A    between atoms: C5_5  and  N1_6
REMARK    4  A    between atoms: C5_5  and  C14_19
REMARK       I    between atoms: N1_6  and  C6_8
REMARK       I    between atoms: C6_8  and  N2_10
REMARK    5  A    between atoms: N2_10  and  C7_12
REMARK       I    between atoms: C14_19  and  N3_21
REMARK    6  A    between atoms: N3_21  and  C15_23
REMARK    7  A    between atoms: C15_23  and  C16_24
REMARK    8  A    between atoms: C15_23  and  C28_47
REMARK       I    between atoms: C16_24  and  N4_26
REMARK    9  A    between atoms: N4_26  and  C17_28
REMARK   10  A    between atoms: C19_30  and  C20_31
REMARK       I    between atoms: C20_31  and  N5_33
REMARK   11  A    between atoms: N8_39  and  C23_40
ROOT
HETATM    1  C15 UNL     1      18.148  32.185  15.133  1.00  0.00     0.180 C
ENDROOT
BRANCH   1   2
HETATM    2  N3  UNL     1      19.146  33.237  15.295  1.00  0.00    -0.346 N
HETATM    3  C14 UNL     1      20.179  33.187  16.262  1.00  0.00     0.241 C
HETATM    4  O2  UNL     1      20.247  32.162  16.995  1.00  0.00    -0.271 OA
ATOM      5  H3  UNL     1      19.098  34.050  14.680  1.00  0.00     0.163 HD
BRANCH   3   6
HETATM    6  C5  UNL     1      21.186  34.250  16.470  1.00  0.00     0.182 C
BRANCH   6   7
HETATM    7  C3  UNL     1      22.204  34.154  15.321  1.00  0.00     0.013 C
HETATM    8  C4  UNL     1      22.965  35.458  15.242  1.00  0.00     0.012 C
BRANCH   7   9
HETATM    9  C2  UNL     1      23.199  33.077  15.582  1.00  0.00     0.002 C
HETATM   10  C1  UNL     1      23.555  33.116  17.073  1.00  0.00     0.005 C
ENDBRANCH   7   9
ENDBRANCH   6   7
BRANCH   6  11
HETATM   11  N1  UNL     1      20.470  35.521  16.290  1.00  0.00    -0.330 N
HETATM   12  C6  UNL     1      19.956  36.261  17.369  1.00  0.00     0.317 C
HETATM   13  O1  UNL     1      20.097  35.853  18.558  1.00  0.00    -0.247 OA
HETATM   14  N2  UNL     1      19.268  37.479  17.169  1.00  0.00    -0.338 N
ATOM     15  H2  UNL     1      19.137  37.822  16.217  1.00  0.00     0.164 HD
ATOM     16  H1  UNL     1      20.341  35.881  15.343  1.00  0.00     0.165 HD
BRANCH  14  17
HETATM   17  C7  UNL     1      18.739  38.263  18.280  1.00  0.00     0.089 C
HETATM   18  C8  UNL     1      19.213  39.673  18.300  1.00  0.00     0.026 C
HETATM   19  C9  UNL     1      18.491  40.608  17.380  1.00  0.00     0.002 C
HETATM   20  C10 UNL     1      16.984  40.467  17.471  1.00  0.00     0.001 C
HETATM   21  C11 UNL     1      16.583  39.025  17.281  1.00  0.00     0.006 C
HETATM   22  C12 UNL     1      17.225  38.179  18.329  1.00  0.00     0.004 C
HETATM   23  C13 UNL     1      16.795  36.733  18.185  1.00  0.00     0.012 C
ENDBRANCH  14  17
ENDBRANCH   6  11
ENDBRANCH   3   6
ENDBRANCH   1   2
BRANCH   1  24
HETATM   24  C16 UNL     1      18.684  31.090  14.330  1.00  0.00     0.241 C
HETATM   25  O3  UNL     1      18.371  31.110  13.087  1.00  0.00    -0.271 OA
HETATM   26  N4  UNL     1      19.486  30.039  14.758  1.00  0.00    -0.346 N
ATOM     27  H4  UNL     1      19.745  30.002  15.744  1.00  0.00     0.163 HD
BRANCH  26  28
HETATM   28  C17 UNL     1      19.973  28.991  13.881  1.00  0.00     0.177 C
HETATM   29  C18 UNL     1      20.508  29.593  12.591  1.00  0.00     0.053 C
HETATM   30  C19 UNL     1      20.985  28.520  11.645  1.00  0.00     0.134 C
HETATM   31  C22 UNL     1      19.931  27.487  11.346  1.00  0.00     0.339 C
HETATM   32  N8  UNL     1      19.541  27.489   9.955  1.00  0.00     0.113 N
HETATM   33  N9  UNL     1      18.728  27.715  12.121  1.00  0.00    -0.318 N
HETATM   34  C25 UNL     1      18.214  28.077   9.943  1.00  0.00     0.295 C
HETATM   35  C26 UNL     1      17.636  27.429  11.207  1.00  0.00     0.158 C
HETATM   36  C27 UNL     1      18.843  28.129  13.479  1.00  0.00     0.244 C
HETATM   37  O5  UNL     1      17.940  27.718  14.271  1.00  0.00    -0.271 OA
BRANCH  30  38
HETATM   38  C20 UNL     1      22.213  27.864  12.062  1.00  0.00     0.231 C
HETATM   39  O4  UNL     1      22.386  26.620  12.057  1.00  0.00    -0.273 OA
HETATM   40  N5  UNL     1      23.313  28.644  12.515  1.00  0.00    -0.303 N
HETATM   41  C21 UNL     1      24.518  28.415  12.122  1.00  0.00     0.203 C
ATOM     42  H5  UNL     1      23.142  29.407  13.171  1.00  0.00     0.171 HD
HETATM   43  N6  UNL     1      25.564  29.223  12.606  1.00  0.00    -0.066 NA
HETATM   44  N7  UNL     1      24.740  27.361  11.214  1.00  0.00    -0.066 NA
ENDBRANCH  30  38
BRANCH  32  45
HETATM   45  C23 UNL     1      19.604  26.195   9.352  1.00  0.00     0.270 C
HETATM   46  C24 UNL     1      19.069  26.161   7.950  1.00  0.00     0.037 C
ENDBRANCH  32  45
ENDBRANCH  26  28
ENDBRANCH   1  24
BRANCH   1  47
HETATM   47  C28 UNL     1      16.839  32.754  14.793  1.00  0.00     0.009 C
HETATM   48  C29 UNL     1      15.708  32.437  15.741  1.00  0.00     0.012 C
HETATM   49  C30 UNL     1      16.867  34.214  14.370  1.00  0.00     0.012 C
ENDBRANCH   1  47
TORSDOF 11
ENDMDL