MODEL 3
REMARK VINA RESULT: -5.497905320      2.617      7.872
REMARK  12 active torsions:
REMARK  status: ('A' for Active; 'I' for Inactive)
REMARK    1  A    between atoms: C3_3  and  N1_4
REMARK       I    between atoms: N1_4  and  C4_6
REMARK       I    between atoms: C4_6  and  N3_10
REMARK    2  A    between atoms: N4_18  and  C13_20
REMARK    3  A    between atoms: C13_20  and  C14_21
REMARK    4  A    between atoms: C17_26  and  C18_27
REMARK    5  A    between atoms: C18_27  and  C19_28
REMARK    6  A    between atoms: C21_35  and  C22_36
REMARK    7  A    between atoms: C22_36  and  C23_37
REMARK    8  A    between atoms: C23_37  and  C24_38
REMARK    9  A    between atoms: C24_38  and  C25_39
REMARK   10  A    between atoms: C25_39  and  C26_40
REMARK   11  A    between atoms: C26_40  and  C27_41
REMARK   12  A    between atoms: C27_41  and  C28_42
ROOT
HETATM    1  C1  UNL     1      23.624  35.207  15.145  1.00  0.00     0.014 C
HETATM    2  C2  UNL     1      22.966  34.260  15.515  1.00  0.00    -0.097 C
HETATM    3  C3  UNL     1      22.173  33.110  15.949  1.00  0.00     0.231 C
ENDROOT
BRANCH   3   4
HETATM    4  N1  UNL     1      21.636  33.336  17.275  1.00  0.00    -0.216 N
HETATM    5  C4  UNL     1      21.657  34.592  17.917  1.00  0.00     0.670 C
HETATM    6  N2  UNL     1      22.424  34.705  18.958  1.00  0.00    -0.235 N
HETATM    7  N3  UNL     1      20.901  35.712  17.500  1.00  0.00    -0.217 N
ATOM      8  H22 UNL     1      22.969  33.897  19.259  1.00  0.00     0.174 HD
ATOM      9  H21 UNL     1      22.439  35.612  19.422  1.00  0.00     0.174 HD
HETATM   10  C5  UNL     1      19.652  35.507  16.825  1.00  0.00     0.141 C
HETATM   11  C31 UNL     1      21.428  37.027  17.779  1.00  0.00     0.161 C
HETATM   12  C6  UNL     1      18.457  35.412  17.738  1.00  0.00     0.020 C
HETATM   13  C7  UNL     1      17.214  35.892  17.073  1.00  0.00     0.002 C
HETATM   14  C8  UNL     1      17.260  37.292  16.538  1.00  0.00     0.000 C
HETATM   15  C9  UNL     1      17.552  38.218  17.663  1.00  0.00     0.002 C
HETATM   16  C10 UNL     1      17.811  39.659  17.255  1.00  0.00     0.028 C
HETATM   17  C11 UNL     1      19.197  39.947  16.811  1.00  0.00     0.241 C
HETATM   18  N4  UNL     1      20.122  40.513  17.760  1.00  0.00    -0.033 N
HETATM   19  C12 UNL     1      20.127  41.946  17.415  1.00  0.00     0.277 C
HETATM   20  C16 UNL     1      21.490  39.984  17.612  1.00  0.00     0.394 C
HETATM   21  N5  UNL     1      22.421  41.040  17.807  1.00  0.00    -0.366 N
HETATM   22  N9  UNL     1      21.784  39.162  16.501  1.00  0.00    -0.301 N
HETATM   23  C17 UNL     1      23.820  40.681  17.773  1.00  0.00     0.181 C
ATOM     24  H5  UNL     1      22.118  42.002  17.962  1.00  0.00     0.157 HD
HETATM   25  C20 UNL     1      24.340  41.101  16.431  1.00  0.00     0.245 C
HETATM   26  O2  UNL     1      25.472  41.638  16.567  1.00  0.00    -0.271 OA
HETATM   27  N7  UNL     1      23.947  41.076  15.065  1.00  0.00    -0.324 N
HETATM   28  C21 UNL     1      23.026  40.287  14.299  1.00  0.00     0.080 C
ATOM     29  H7  UNL     1      24.427  41.777  14.503  1.00  0.00     0.169 HD
HETATM   30  C29 UNL     1      22.182  39.397  15.138  1.00  0.00     0.269 C
HETATM   31  O4  UNL     1      21.619  38.551  14.392  1.00  0.00    -0.266 OA
HETATM   32  C30 UNL     1      21.774  37.687  16.523  1.00  0.00     0.150 C
ATOM     33  H1  UNL     1      21.221  32.547  17.770  1.00  0.00     0.178 HD
BRANCH  18  34
HETATM   34  C13 UNL     1      19.776  40.402  19.127  1.00  0.00     0.241 C
BRANCH  34  35
HETATM   35  C14 UNL     1      19.491  41.563  19.981  1.00  0.00     0.024 C
HETATM   36  C15 UNL     1      18.172  41.612  20.696  1.00  0.00     0.007 C
ENDBRANCH  34  35
ENDBRANCH  18  34
BRANCH  23  37
HETATM   37  C18 UNL     1      24.541  41.558  18.773  1.00  0.00     0.134 C
BRANCH  37  38
HETATM   38  C19 UNL     1      23.734  42.019  19.900  1.00  0.00     0.233 C
HETATM   39  N6  UNL     1      23.264  41.097  20.861  1.00  0.00    -0.062 NA
HETATM   40  O1  UNL     1      23.448  43.223  20.034  1.00  0.00    -0.277 OA
ENDBRANCH  37  38
ENDBRANCH  23  37
BRANCH  28  41
HETATM   41  C22 UNL     1      22.316  40.946  13.182  1.00  0.00     0.063 C
BRANCH  41  42
HETATM   42  C23 UNL     1      22.889  40.999  11.846  1.00  0.00     0.006 C
BRANCH  42  43
HETATM   43  C24 UNL     1      23.974  41.910  11.495  1.00  0.00     0.000 C
BRANCH  43  44
HETATM   44  C25 UNL     1      25.382  41.403  11.582  1.00  0.00     0.000 C
BRANCH  44  45
HETATM   45  C26 UNL     1      26.012  41.218  10.223  1.00  0.00     0.009 C
BRANCH  45  46
HETATM   46  C27 UNL     1      26.207  39.775   9.847  1.00  0.00     0.099 C
BRANCH  46  47
HETATM   47  C28 UNL     1      25.195  39.222   8.947  1.00  0.00     0.231 C
HETATM   48  N8  UNL     1      25.567  38.734   7.676  1.00  0.00    -0.062 NA
HETATM   49  O3  UNL     1      23.973  39.150   9.236  1.00  0.00    -0.277 OA
ENDBRANCH  46  47
ENDBRANCH  45  46
ENDBRANCH  44  45
ENDBRANCH  43  44
ENDBRANCH  42  43
ENDBRANCH  41  42
ENDBRANCH  28  41
ENDBRANCH   3   4
TORSDOF 12
ENDMDL