MODEL 2
REMARK VINA RESULT: -8.815360799      3.472      7.816
REMARK  14 active torsions:
REMARK  status: ('A' for Active; 'I' for Inactive)
REMARK    1  A    between atoms: C8_8  and  C9_9
REMARK    2  A    between atoms: C9_9  and  C10_10
REMARK    3  A    between atoms: C10_10  and  N1_11
REMARK    4  A    between atoms: C14_15  and  C15_16
REMARK    5  A    between atoms: C15_16  and  C16_17
REMARK    6  A    between atoms: C16_17  and  C17_18
REMARK    7  A    between atoms: C17_18  and  C18_19
REMARK    8  A    between atoms: C20_21  and  N2_22
REMARK       I    between atoms: N2_22  and  C21_24
REMARK    9  A    between atoms: C21_24  and  C22_26
REMARK   10  A    between atoms: C22_26  and  C23_27
REMARK   11  A    between atoms: N3_29  and  N4_31
REMARK   12  A    between atoms: C25_42  and  N9_43
REMARK       I    between atoms: N9_43  and  C26_45
REMARK   13  A    between atoms: C26_45  and  C27_47
REMARK   14  A    between atoms: C27_47  and  S1_55
REMARK       I    between atoms: N10_48  and  C28_50
ROOT
HETATM    1  C1  UNL     1      22.288  37.508  16.044  1.00  0.00     0.027 C
HETATM    2  C2  UNL     1      22.179  36.205  15.873  1.00  0.00    -0.001 A
HETATM    3  C3  UNL     1      23.154  35.486  15.212  1.00  0.00     0.017 A
HETATM    4  C4  UNL     1      22.968  34.134  15.077  1.00  0.00     0.031 A
HETATM    5  C5  UNL     1      21.852  33.434  15.567  1.00  0.00     0.044 A
HETATM    6  C6  UNL     1      21.759  32.138  15.297  1.00  0.00    -0.003 A
HETATM    7  C7  UNL     1      22.766  31.394  14.484  1.00  0.00     0.021 A
HETATM    8  C8  UNL     1      22.405  30.130  14.373  1.00  0.00    -0.055 A
HETATM    9  C13 UNL     1      21.177  29.967  15.088  1.00  0.00     0.015 A
HETATM   10  C14 UNL     1      20.776  31.150  15.650  1.00  0.00    -0.045 A
HETATM   11  N8  UNL     1      20.961  34.195  16.187  1.00  0.00    -0.341 N
ATOM     12  H8  UNL     1      20.129  33.739  16.562  1.00  0.00     0.167 HD
HETATM   13  C25 UNL     1      21.076  35.551  16.363  1.00  0.00     0.118 A
ENDROOT
BRANCH  10  14
HETATM   14  C15 UNL     1      19.530  31.253  16.437  1.00  0.00     0.040 C
BRANCH  14  15
HETATM   15  C16 UNL     1      18.258  31.282  15.648  1.00  0.00     0.011 C
BRANCH  15  16
HETATM   16  C17 UNL     1      18.584  31.266  14.176  1.00  0.00     0.059 C
BRANCH  16  17
HETATM   17  C18 UNL     1      18.357  29.972  13.509  1.00  0.00     0.029 A
HETATM   18  C19 UNL     1      18.299  29.720  12.161  1.00  0.00     0.076 A
HETATM   19  C20 UNL     1      18.056  28.375  11.993  1.00  0.00     0.124 A
HETATM   20  N6  UNL     1      17.976  27.864  13.254  1.00  0.00    -0.285 N
HETATM   21  N7  UNL     1      18.151  28.791  14.144  1.00  0.00    -0.303 N
ATOM     22  H6  UNL     1      17.802  26.882  13.469  1.00  0.00     0.188 HD
ATOM     23  H7  UNL     1      18.137  28.655  15.155  1.00  0.00     0.186 HD
BRANCH  19  24
HETATM   24  N2  UNL     1      17.929  27.654  10.954  1.00  0.00    -0.307 N
HETATM   25  C21 UNL     1      18.712  26.571  10.554  1.00  0.00     0.271 C
HETATM   26  O1  UNL     1      19.712  26.220  11.207  1.00  0.00    -0.266 OA
ATOM     27  H2  UNL     1      17.156  27.898  10.334  1.00  0.00     0.170 HD
BRANCH  25  28
HETATM   28  C22 UNL     1      18.406  25.787   9.346  1.00  0.00     0.094 C
HETATM   29  N3  UNL     1      19.262  25.573   8.425  1.00  0.00    -0.285 N
ATOM     30  H3  UNL     1      18.957  25.018   7.625  1.00  0.00     0.188 HD
BRANCH  28  31
HETATM   31  C23 UNL     1      17.041  25.240   9.211  1.00  0.00     0.060 C
HETATM   32  C24 UNL     1      16.686  24.856   7.793  1.00  0.00     0.011 C
ENDBRANCH  28  31
BRANCH  29  33
HETATM   33  N4  UNL     1      20.565  26.027   8.416  1.00  0.00    -0.249 N
HETATM   34  N5  UNL     1      21.502  25.238   8.725  1.00  0.00    -0.331 N
ATOM     35  H52 UNL     1      21.280  24.275   8.976  1.00  0.00     0.178 HD
ATOM     36  H51 UNL     1      22.466  25.574   8.718  1.00  0.00     0.178 HD
ATOM     37  H4  UNL     1      20.770  26.993   8.162  1.00  0.00     0.207 HD
ENDBRANCH  29  33
ENDBRANCH  25  28
ENDBRANCH  19  24
ENDBRANCH  16  17
ENDBRANCH  15  16
ENDBRANCH  14  15
ENDBRANCH  10  14
BRANCH   8  38
HETATM   38  C9  UNL     1      23.117  29.035  13.650  1.00  0.00     0.068 C
BRANCH  38  39
HETATM   39  C10 UNL     1      22.128  28.470  12.655  1.00  0.00     0.276 C
BRANCH  39  40
HETATM   40  N1  UNL     1      22.698  28.137  11.386  1.00  0.00     0.080 N
HETATM   41  C11 UNL     1      23.475  29.186  10.796  1.00  0.00     0.309 C
HETATM   42  C12 UNL     1      23.331  26.857  11.350  1.00  0.00     0.309 C
ENDBRANCH  39  40
ENDBRANCH  38  39
ENDBRANCH   8  38
BRANCH  13  43
HETATM   43  N9  UNL     1      20.186  36.224  16.989  1.00  0.00    -0.306 N
HETATM   44  C26 UNL     1      19.171  35.793  17.814  1.00  0.00     0.280 C
HETATM   45  O2  UNL     1      19.391  35.343  18.953  1.00  0.00    -0.265 OA
ATOM     46  H9  UNL     1      20.236  37.234  16.856  1.00  0.00     0.170 HD
BRANCH  44  47
HETATM   47  C27 UNL     1      17.758  35.852  17.363  1.00  0.00     0.140 C
HETATM   48  N10 UNL     1      17.250  34.783  16.976  1.00  0.00    -0.321 N
HETATM   49  C28 UNL     1      16.041  34.351  16.490  1.00  0.00     0.186 C
ATOM     50  H10 UNL     1      17.918  34.014  17.038  1.00  0.00     0.169 HD
HETATM   51  N11 UNL     1      15.059  34.158  17.337  1.00  0.00    -0.373 N
HETATM   52  N12 UNL     1      15.798  34.082  15.096  1.00  0.00    -0.064 NA
ATOM     53 2H11 UNL     1      15.232  34.349  18.324  1.00  0.00     0.158 HD
ATOM     54 1H11 UNL     1      14.161  33.837  16.976  1.00  0.00     0.158 HD
BRANCH  47  55
HETATM   55  S1  UNL     1      16.894  37.395  17.398  1.00  0.00    -0.111 SA
HETATM   56  C29 UNL     1      17.453  38.583  18.593  1.00  0.00     0.097 C
ENDBRANCH  47  55
ENDBRANCH  44  47
ENDBRANCH  13  43
TORSDOF 14
ENDMDL