MODEL 1
REMARK VINA RESULT: -5.074021661      0.000      0.000
REMARK  13 active torsions:
REMARK  status: ('A' for Active; 'I' for Inactive)
REMARK    1  A    between atoms: C2_2  and  C3_3
REMARK    2  A    between atoms: C3_3  and  C4_4
REMARK    3  A    between atoms: C4_4  and  C5_5
REMARK    4  A    between atoms: C6_6  and  O1_7
REMARK    5  A    between atoms: C7_11  and  C8_12
REMARK    6  A    between atoms: C11_15  and  O2_16
REMARK    7  A    between atoms: C13_20  and  C14_21
REMARK    8  A    between atoms: C18_30  and  C19_31
REMARK    9  A    between atoms: C19_31  and  C20_32
REMARK   10  A    between atoms: C20_32  and  C21_33
REMARK   11  A    between atoms: C21_33  and  N5_34
REMARK   12  A    between atoms: C24_43  and  C25_44
REMARK   13  A    between atoms: C25_44  and  C26_45
ROOT
HETATM    1  C5  UNL     1      17.432  40.808  19.459  1.00  0.00     0.161 C
HETATM    2  C6  UNL     1      18.814  40.782  20.002  1.00  0.00     0.135 C
HETATM    3  N1  UNL     1      19.403  41.517  21.014  1.00  0.00    -0.360 N
ATOM      4  H1  UNL     1      19.994  42.274  20.670  1.00  0.00     0.162 HD
HETATM    5  C7  UNL     1      19.361  41.439  22.451  1.00  0.00     0.161 C
HETATM    6  C11 UNL     1      20.578  40.866  23.050  1.00  0.00     0.141 C
HETATM    7  N2  UNL     1      21.873  41.266  23.332  1.00  0.00    -0.340 N
HETATM    8  C12 UNL     1      22.240  41.063  24.777  1.00  0.00     0.158 C
HETATM    9  C13 UNL     1      22.958  41.780  22.549  1.00  0.00     0.008 C
HETATM   10  C16 UNL     1      23.021  41.368  21.094  1.00  0.00     0.176 C
HETATM   11  N3  UNL     1      22.959  42.493  20.215  1.00  0.00    -0.338 N
ATOM     12  H3  UNL     1      22.330  43.230  20.532  1.00  0.00     0.164 HD
HETATM   13  C17 UNL     1      23.591  42.772  19.015  1.00  0.00     0.317 C
HETATM   14  O3  UNL     1      24.265  43.873  18.949  1.00  0.00    -0.247 OA
HETATM   15  N4  UNL     1      23.604  42.003  17.815  1.00  0.00    -0.330 N
ATOM     16  H4  UNL     1      24.489  41.907  17.316  1.00  0.00     0.165 HD
HETATM   17  C18 UNL     1      22.440  41.354  17.266  1.00  0.00     0.178 C
HETATM   18  C23 UNL     1      21.718  42.299  16.353  1.00  0.00     0.241 C
HETATM   19  O4  UNL     1      22.473  43.062  15.659  1.00  0.00    -0.271 OA
HETATM   20  N8  UNL     1      20.340  42.423  16.193  1.00  0.00    -0.346 N
ATOM     21  H8  UNL     1      19.998  42.509  15.236  1.00  0.00     0.163 HD
HETATM   22  C24 UNL     1      19.324  42.442  17.259  1.00  0.00     0.177 C
HETATM   23  C29 UNL     1      18.418  41.321  17.151  1.00  0.00     0.243 C
HETATM   24  O5  UNL     1      18.537  40.625  16.060  1.00  0.00    -0.271 OA
HETATM   25  N9  UNL     1      17.419  40.828  18.009  1.00  0.00    -0.343 N
HETATM   26  C30 UNL     1      16.219  40.257  17.396  1.00  0.00     0.153 C
ENDROOT
BRANCH  17  27
HETATM   27  C19 UNL     1      22.849  40.184  16.427  1.00  0.00     0.036 C
BRANCH  27  28
HETATM   28  C20 UNL     1      21.831  39.212  16.004  1.00  0.00     0.022 C
BRANCH  28  29
HETATM   29  C21 UNL     1      21.459  38.099  16.916  1.00  0.00     0.122 C
BRANCH  29  30
HETATM   30  N5  UNL     1      19.990  38.076  17.130  1.00  0.00    -0.367 N
HETATM   31  C22 UNL     1      19.552  37.166  17.916  1.00  0.00     0.196 C
HETATM   32  N6  UNL     1      20.374  36.219  18.566  1.00  0.00    -0.067 NA
HETATM   33  N7  UNL     1      18.155  37.097  18.155  1.00  0.00    -0.067 NA
ATOM     34  H5  UNL     1      19.367  38.745  16.677  1.00  0.00     0.161 HD
ENDBRANCH  29  30
ENDBRANCH  28  29
ENDBRANCH  27  28
ENDBRANCH  17  27
BRANCH  22  35
HETATM   35  C25 UNL     1      18.693  43.769  17.398  1.00  0.00     0.038 C
BRANCH  35  36
HETATM   36  C26 UNL     1      17.487  44.118  16.641  1.00  0.00    -0.020 C
HETATM   37  C27 UNL     1      16.261  44.355  17.471  1.00  0.00     0.009 C
HETATM   38  C28 UNL     1      17.725  45.441  15.877  1.00  0.00     0.009 C
ENDBRANCH  35  36
ENDBRANCH  22  35
BRANCH   9  39
HETATM   39  C14 UNL     1      23.322  43.225  22.734  1.00  0.00     0.050 C
HETATM   40  C15 UNL     1      22.197  44.153  23.084  1.00  0.00     0.011 C
ENDBRANCH   9  39
BRANCH   1  41
HETATM   41  C4  UNL     1      16.682  39.671  20.084  1.00  0.00     0.034 C
BRANCH  41  42
HETATM   42  C3  UNL     1      16.112  39.904  21.431  1.00  0.00     0.002 C
BRANCH  42  43
HETATM   43  C2  UNL     1      15.294  41.191  21.406  1.00  0.00    -0.004 C
HETATM   44  C1  UNL     1      13.821  40.975  21.433  1.00  0.00     0.005 C
ENDBRANCH  42  43
ENDBRANCH  41  42
ENDBRANCH   1  41
BRANCH   6  45
HETATM   45  O2  UNL     1      20.358  39.612  23.421  1.00  0.00    -0.348 OA
ATOM     46  H2  UNL     1      21.182  39.150  23.522  1.00  0.00     0.219 HD
ENDBRANCH   6  45
BRANCH   2  47
HETATM   47  O1  UNL     1      19.525  39.888  19.358  1.00  0.00    -0.348 OA
ATOM     48  H1  UNL     1      20.243  40.315  18.906  1.00  0.00     0.219 HD
ENDBRANCH   2  47
BRANCH   5  49
HETATM   49  C8  UNL     1      18.808  42.673  23.126  1.00  0.00     0.008 C
HETATM   50  C9  UNL     1      17.740  42.259  24.167  1.00  0.00     0.012 C
HETATM   51  C10 UNL     1      18.111  43.639  22.244  1.00  0.00     0.012 C
ENDBRANCH   5  49
TORSDOF 13
ENDMDL