MODEL 1
REMARK VINA RESULT: -7.241178262      0.000      0.000
REMARK  6 active torsions:
REMARK  status: ('A' for Active; 'I' for Inactive)
REMARK    1  A    between atoms: C5_6  and  C6_7
REMARK    2  A    between atoms: C6_7  and  C7_8
REMARK    3  A    between atoms: C7_8  and  N1_9
REMARK    4  A    between atoms: C8_12  and  N3_13
REMARK    5  A    between atoms: N3_13  and  C9_15
REMARK    6  A    between atoms: C12_18  and  N4_19
ROOT
HETATM    1  N1  UNL     1      26.527   1.109   3.966  1.00  0.00    -0.252 N
HETATM    2  N2  UNL     1      27.445   0.762   4.849  1.00  0.00    -0.128 N
ATOM      3  H2  UNL     1      27.285   0.690   5.854  1.00  0.00     0.206 HD
HETATM    4  C8  UNL     1      28.629   0.513   4.236  1.00  0.00     0.695 A
HETATM    5  N5  UNL     1      28.443   0.711   2.938  1.00  0.00    -0.163 N
ATOM      6  H5  UNL     1      29.145   0.606   2.205  1.00  0.00     0.187 HD
HETATM    7  C14 UNL     1      27.178   1.069   2.769  1.00  0.00     0.211 A
HETATM    8 CL1  UNL     1      26.440   1.444   1.218  1.00  0.00    -0.043 Cl
ENDROOT
BRANCH   1   9
HETATM    9  C7  UNL     1      25.137   1.454   4.194  1.00  0.00     0.157 C
BRANCH   9  10
HETATM   10  C6  UNL     1      25.066   2.588   5.188  1.00  0.00     0.067 C
BRANCH  10  11
HETATM   11  C5  UNL     1      25.092   3.911   4.564  1.00  0.00     0.024 A
HETATM   12  C4  UNL     1      23.930   4.594   4.253  1.00  0.00     0.126 A
HETATM   13  C3  UNL     1      23.998   5.858   3.656  1.00  0.00     0.052 A
HETATM   14  F1  UNL     1      22.708   4.062   4.515  1.00  0.00    -0.205 F
HETATM   15  C2  UNL     1      25.213   6.440   3.369  1.00  0.00    -0.017 A
HETATM   16  C1  UNL     1      25.297   7.792   2.730  1.00  0.00     0.052 C
HETATM   17  C16 UNL     1      26.369   5.756   3.681  1.00  0.00     0.161 A
HETATM   18  C15 UNL     1      26.295   4.515   4.267  1.00  0.00     0.164 A
HETATM   19  F3  UNL     1      27.584   6.304   3.409  1.00  0.00    -0.202 F
HETATM   20  F2  UNL     1      27.430   3.841   4.575  1.00  0.00    -0.202 F
ENDBRANCH  10  11
ENDBRANCH   9  10
ENDBRANCH   1   9
BRANCH   4  21
HETATM   21  N3  UNL     1      29.736   0.154   4.790  1.00  0.00    -0.220 N
ATOM     22  H3  UNL     1      30.214  -0.688   4.469  1.00  0.00     0.178 HD
BRANCH  21  23
HETATM   23  C9  UNL     1      30.306   0.938   5.865  1.00  0.00     0.101 C
HETATM   24  C10 UNL     1      31.063   2.142   5.351  1.00  0.00     0.027 C
HETATM   25  C11 UNL     1      32.295   2.227   6.262  1.00  0.00     0.035 C
HETATM   26  C12 UNL     1      32.601   0.755   6.450  1.00  0.00     0.185 C
HETATM   27  C13 UNL     1      31.247   0.172   6.738  1.00  0.00     0.058 C
BRANCH  26  28
HETATM   28  N4  UNL     1      33.535   0.542   7.538  1.00  0.00    -0.075 N
ATOM     29  H43 UNL     1      34.275   1.244   7.538  1.00  0.00     0.274 HD
ATOM     30  H42 UNL     1      33.113   0.756   8.441  1.00  0.00     0.274 HD
ATOM     31  H41 UNL     1      33.919  -0.404   7.522  1.00  0.00     0.274 HD
ENDBRANCH  26  28
ENDBRANCH  21  23
ENDBRANCH   4  21
TORSDOF 6
ENDMDL