MODEL 3
REMARK VINA RESULT: -5.412792652      1.656      2.321
REMARK  5 active torsions:
REMARK  status: ('A' for Active; 'I' for Inactive)
REMARK    1  A    between atoms: N2_5  and  C3_6
REMARK    2  A    between atoms: C3_6  and  C4_7
REMARK    3  A    between atoms: C6_10  and  N3_11
REMARK    4  A    between atoms: N3_11  and  C7_13
REMARK    5  A    between atoms: N5_17  and  C9_19
ROOT
HETATM    1  C7  UNL     1      27.107   1.885   3.985  1.00  0.00     0.162 A
HETATM    2  N4  UNL     1      28.382   1.518   4.314  1.00  0.00    -0.173 N
ATOM      3  H4  UNL     1      28.767   1.881   5.186  1.00  0.00     0.186 HD
HETATM    4  C8  UNL     1      29.155   0.726   3.587  1.00  0.00     0.684 A
HETATM    5  N5  UNL     1      30.366   0.402   3.832  1.00  0.00    -0.191 N
ATOM      6  H5  UNL     1      30.804  -0.227   3.159  1.00  0.00     0.184 HD
HETATM    7  N6  UNL     1      28.649   0.220   2.402  1.00  0.00    -0.199 N
ATOM      8  H6  UNL     1      29.213  -0.394   1.814  1.00  0.00     0.183 HD
HETATM    9  C15 UNL     1      27.406   0.555   2.044  1.00  0.00     0.152 A
HETATM   10  C16 UNL     1      26.598   1.372   2.783  1.00  0.00     0.176 A
HETATM   11  F4  UNL     1      25.324   1.704   2.394  1.00  0.00    -0.201 F
ENDROOT
BRANCH   1  12
HETATM   12  N3  UNL     1      26.403   2.609   4.666  1.00  0.00    -0.337 N
ATOM     13  H3  UNL     1      26.545   2.377   5.649  1.00  0.00     0.167 HD
BRANCH  12  14
HETATM   14  C6  UNL     1      25.486   3.624   4.578  1.00  0.00     0.074 A
HETATM   15  C2  UNL     1      24.089   3.603   4.706  1.00  0.00     0.050 A
HETATM   16  C1  UNL     1      23.286   2.370   4.968  1.00  0.00     0.072 C
HETATM   17  N1  UNL     1      23.645   4.861   4.552  1.00  0.00    -0.301 N
HETATM   18  N2  UNL     1      24.638   5.702   4.332  1.00  0.00    -0.299 N
ATOM     19  H1  UNL     1      22.663   5.133   4.600  1.00  0.00     0.187 HD
HETATM   20  C5  UNL     1      25.763   4.966   4.346  1.00  0.00     0.141 A
BRANCH  18  21
HETATM   21  C3  UNL     1      24.529   7.158   4.121  1.00  0.00     0.179 C
BRANCH  21  22
HETATM   22  C4  UNL     1      25.032   7.467   2.735  1.00  0.00     0.243 C
HETATM   23  F1  UNL     1      26.384   7.293   2.717  1.00  0.00    -0.254 F
ENDBRANCH  21  22
ENDBRANCH  18  21
ENDBRANCH  12  14
ENDBRANCH   1  12
BRANCH   5  24
HETATM   24  C9  UNL     1      31.176   0.803   4.915  1.00  0.00     0.055 A
HETATM   25  C10 UNL     1      31.903  -0.104   5.683  1.00  0.00     0.072 A
HETATM   26  C11 UNL     1      32.679   0.262   6.747  1.00  0.00     0.121 A
HETATM   27  F2  UNL     1      33.390  -0.627   7.488  1.00  0.00    -0.206 F
HETATM   28  C12 UNL     1      32.758   1.598   7.094  1.00  0.00     0.084 A
HETATM   29  C13 UNL     1      32.059   2.521   6.365  1.00  0.00     0.121 A
HETATM   30  F3  UNL     1      32.144   3.811   6.726  1.00  0.00    -0.206 F
HETATM   31  C14 UNL     1      31.278   2.126   5.291  1.00  0.00     0.072 A
ENDBRANCH   5  24
TORSDOF 5
ENDMDL