MODEL 5
REMARK VINA RESULT: -6.573916132      1.158      1.590
REMARK  5 active torsions:
REMARK  status: ('A' for Active; 'I' for Inactive)
REMARK    1  A    between atoms: C3_4  and  C4_5
REMARK    2  A    between atoms: C6_7  and  N2_8
REMARK    3  A    between atoms: N2_8  and  C7_10
REMARK    4  A    between atoms: C8_13  and  C9_14
REMARK    5  A    between atoms: C9_14  and  C10_15
ROOT
HETATM    1  C7  UNL     1      28.900   0.680   3.051  1.00  0.00     0.684 A
HETATM    2  N3  UNL     1      29.621   1.237   4.025  1.00  0.00    -0.191 N
ATOM      3  H3  UNL     1      29.430   2.199   4.306  1.00  0.00     0.184 HD
HETATM    4  C8  UNL     1      30.615   0.531   4.653  1.00  0.00     0.080 A
HETATM    5  C14 UNL     1      30.836  -0.744   4.246  1.00  0.00     0.156 A
HETATM    6  F3  UNL     1      31.826  -1.550   4.731  1.00  0.00    -0.203 F
HETATM    7  C15 UNL     1      30.063  -1.316   3.214  1.00  0.00     0.150 A
HETATM    8  N4  UNL     1      29.104  -0.582   2.636  1.00  0.00    -0.199 N
ATOM      9  H4  UNL     1      28.534  -0.976   1.887  1.00  0.00     0.183 HD
ENDROOT
BRANCH   1  10
HETATM   10  N2  UNL     1      27.949   1.329   2.438  1.00  0.00    -0.175 N
ATOM     11  H2  UNL     1      27.522   0.895   1.619  1.00  0.00     0.186 HD
BRANCH  10  12
HETATM   12  C6  UNL     1      27.477   2.586   2.838  1.00  0.00     0.137 A
HETATM   13  C5  UNL     1      26.393   2.931   3.620  1.00  0.00     0.077 A
HETATM   14  C4  UNL     1      26.359   4.294   3.718  1.00  0.00     0.037 A
HETATM   15  N6  UNL     1      27.395   4.764   3.014  1.00  0.00    -0.303 N
HETATM   16  N5  UNL     1      28.058   3.748   2.492  1.00  0.00    -0.285 N
ATOM     17  H6  UNL     1      27.634   5.749   2.898  1.00  0.00     0.186 HD
ATOM     18  H5  UNL     1      28.891   3.832   1.911  1.00  0.00     0.188 HD
BRANCH  14  19
HETATM   19  C3  UNL     1      25.358   5.106   4.466  1.00  0.00     0.093 C
HETATM   20  C2  UNL     1      24.335   4.303   5.228  1.00  0.00     0.284 C
HETATM   21  N1  UNL     1      23.269   5.026   4.547  1.00  0.00     0.085 N
HETATM   22  C1  UNL     1      22.243   4.205   3.966  1.00  0.00     0.309 C
HETATM   23  C16 UNL     1      24.208   5.603   3.606  1.00  0.00     0.284 C
ENDBRANCH  14  19
ENDBRANCH  10  12
ENDBRANCH   1  10
BRANCH   4  24
HETATM   24  C9  UNL     1      31.356   1.160   5.768  1.00  0.00     0.065 C
HETATM   25  C11 UNL     1      32.765   0.604   5.928  1.00  0.00     0.022 C
HETATM   26  C12 UNL     1      32.482   0.357   7.374  1.00  0.00     0.003 C
HETATM   27  C13 UNL     1      31.017   0.517   7.112  1.00  0.00     0.022 C
BRANCH  24  28
HETATM   28  C10 UNL     1      31.256   2.633   5.854  1.00  0.00     0.367 C
HETATM   29  F1  UNL     1      32.333   3.174   6.599  1.00  0.00    -0.213 F
HETATM   30  F2  UNL     1      30.148   3.137   6.457  1.00  0.00    -0.213 F
ENDBRANCH  24  28
ENDBRANCH   4  24
TORSDOF 5
ENDMDL