MODEL 2
REMARK VINA RESULT: -5.739601286      1.026      1.585
REMARK  4 active torsions:
REMARK  status: ('A' for Active; 'I' for Inactive)
REMARK    1  A    between atoms: C2_2  and  C3_3
REMARK    2  A    between atoms: N1_5  and  C5_6
REMARK    3  A    between atoms: C7_11  and  C8_12
REMARK    4  A    between atoms: C8_12  and  N3_13
ROOT
HETATM    1  C5  UNL     1      27.440   2.304   3.699  1.00  0.00     0.684 A
HETATM    2  N2  UNL     1      28.111   1.485   2.869  1.00  0.00    -0.165 N
ATOM      3  H2  UNL     1      27.845   1.463   1.885  1.00  0.00     0.186 HD
HETATM    4  C6  UNL     1      29.105   0.703   3.275  1.00  0.00     0.217 A
HETATM    5  F1  UNL     1      29.756  -0.107   2.408  1.00  0.00    -0.185 F
HETATM    6  C7  UNL     1      29.535   0.676   4.620  1.00  0.00     0.075 A
HETATM    7  C13 UNL     1      28.849   1.509   5.464  1.00  0.00     0.130 A
HETATM    8  N4  UNL     1      29.077   1.558   6.688  1.00  0.00    -0.384 N
ATOM      9  H41 UNL     1      28.566   2.178   7.317  1.00  0.00     0.157 HD
ATOM     10  H42 UNL     1      29.833   0.979   7.054  1.00  0.00     0.157 HD
HETATM   11  N5  UNL     1      27.818   2.300   4.964  1.00  0.00    -0.176 N
ATOM     12  H5  UNL     1      27.325   2.914   5.614  1.00  0.00     0.186 HD
ENDROOT
BRANCH   1  13
HETATM   13  N1  UNL     1      26.379   3.113   3.188  1.00  0.00    -0.217 N
HETATM   14  C4  UNL     1      26.327   4.549   3.260  1.00  0.00     0.149 C
HETATM   15  C3  UNL     1      25.145   5.012   4.084  1.00  0.00     0.043 C
HETATM   16  C16 UNL     1      24.154   3.917   4.317  1.00  0.00     0.106 C
HETATM   17  C15 UNL     1      23.986   2.964   3.185  1.00  0.00     0.064 C
HETATM   18  C17 UNL     1      22.787   4.433   4.705  1.00  0.00     0.052 C
HETATM   19  F4  UNL     1      24.584   3.159   5.419  1.00  0.00    -0.243 F
HETATM   20  C14 UNL     1      25.243   2.484   2.538  1.00  0.00     0.144 C
BRANCH  15  21
HETATM   21  C2  UNL     1      24.605   6.284   3.546  1.00  0.00     0.005 C
HETATM   22  C1  UNL     1      25.526   7.163   2.795  1.00  0.00     0.005 C
ENDBRANCH  15  21
ENDBRANCH   1  13
BRANCH   6  23
HETATM   23  C8  UNL     1      30.627  -0.257   4.952  1.00  0.00     0.079 C
BRANCH  23  24
HETATM   24  N3  UNL     1      31.856   0.272   5.392  1.00  0.00    -0.286 NA
HETATM   25  C9  UNL     1      31.625   1.747   5.500  1.00  0.00     0.101 C
HETATM   26  C10 UNL     1      32.698   2.192   6.466  1.00  0.00     0.095 C
HETATM   27  C11 UNL     1      33.002   0.938   7.275  1.00  0.00     0.256 C
HETATM   28  F2  UNL     1      32.924   1.184   8.632  1.00  0.00    -0.205 F
HETATM   29  F3  UNL     1      34.178   0.351   6.923  1.00  0.00    -0.205 F
HETATM   30  C12 UNL     1      31.860   0.043   6.880  1.00  0.00     0.173 C
ENDBRANCH  23  24
ENDBRANCH   6  23
TORSDOF 4
ENDMDL