MODEL 5
REMARK VINA RESULT: -2.142687009      3.316      7.928
REMARK  5 active torsions:
REMARK  status: ('A' for Active; 'I' for Inactive)
REMARK    1  A    between atoms: C2_2  and  N1_4
REMARK    2  A    between atoms: N2_7  and  C6_8
REMARK    3  A    between atoms: C8_10  and  C9_11
REMARK    4  A    between atoms: C9_11  and  C10_12
REMARK    5  A    between atoms: C16_24  and  N4_25
ROOT
HETATM    1  C6  UNL     1      28.619   1.414   4.085  1.00  0.00     0.121 A
HETATM    2  C7  UNL     1      27.768   2.121   4.938  1.00  0.00     0.074 A
HETATM    3  C8  UNL     1      26.513   2.506   4.527  1.00  0.00     0.034 A
HETATM    4  N3  UNL     1      26.144   2.171   3.271  1.00  0.00    -0.195 N
ATOM      5  H3  UNL     1      25.219   2.442   2.937  1.00  0.00     0.184 HD
HETATM    6  C16 UNL     1      26.959   1.492   2.452  1.00  0.00     0.677 A
HETATM    7  N5  UNL     1      28.187   1.110   2.843  1.00  0.00    -0.177 N
ATOM      8  H5  UNL     1      28.790   0.593   2.203  1.00  0.00     0.185 HD
ENDROOT
BRANCH   3   9
HETATM    9  C9  UNL     1      25.647   3.265   5.456  1.00  0.00     0.102 C
BRANCH   9  10
HETATM   10  C10 UNL     1      24.873   4.290   4.757  1.00  0.00     0.031 A
HETATM   11  C11 UNL     1      25.464   5.444   4.232  1.00  0.00     0.164 A
HETATM   12  F1  UNL     1      26.828   5.602   4.354  1.00  0.00    -0.202 F
HETATM   13  C12 UNL     1      24.679   6.388   3.599  1.00  0.00     0.158 A
HETATM   14  F2  UNL     1      25.243   7.517   3.070  1.00  0.00    -0.203 F
HETATM   15  C13 UNL     1      23.320   6.185   3.493  1.00  0.00     0.090 A
HETATM   16  C14 UNL     1      22.730   5.042   4.015  1.00  0.00     0.158 A
HETATM   17  F3  UNL     1      21.371   4.858   3.908  1.00  0.00    -0.203 F
HETATM   18  C15 UNL     1      23.497   4.093   4.646  1.00  0.00     0.164 A
HETATM   19  F4  UNL     1      22.945   2.967   5.169  1.00  0.00    -0.202 F
ENDBRANCH   9  10
ENDBRANCH   3   9
BRANCH   1  20
HETATM   20  N2  UNL     1      29.894   1.080   4.595  1.00  0.00    -0.363 N
HETATM   21  C5  UNL     1      30.287  -0.293   4.726  1.00  0.00     0.154 C
HETATM   22  C4  UNL     1      31.705  -0.446   5.170  1.00  0.00     0.292 C
HETATM   23  N1  UNL     1      32.073   0.387   6.245  1.00  0.00     0.095 N
HETATM   24  C18 UNL     1      31.520   1.708   6.293  1.00  0.00     0.292 C
HETATM   25  C17 UNL     1      30.838   2.103   4.996  1.00  0.00     0.154 C
BRANCH  23  26
HETATM   26  C2  UNL     1      33.492   0.357   6.532  1.00  0.00     0.215 C
HETATM   27  C1  UNL     1      33.669   0.199   8.014  1.00  0.00     0.042 C
HETATM   28  C3  UNL     1      34.203   1.615   6.097  1.00  0.00     0.042 C
ENDBRANCH  23  26
ENDBRANCH   1  20
BRANCH   6  29
HETATM   29  N4  UNL     1      26.571   1.189   1.251  1.00  0.00    -0.234 N
ATOM     30  H42 UNL     1      25.648   1.499   0.946  1.00  0.00     0.174 HD
ATOM     31  H41 UNL     1      27.182   0.653   0.636  1.00  0.00     0.174 HD
ENDBRANCH   6  29
TORSDOF 5
ENDMDL