MODEL 2
REMARK VINA RESULT: -6.122168179      1.132      1.247
REMARK  5 active torsions:
REMARK  status: ('A' for Active; 'I' for Inactive)
REMARK    1  A    between atoms: C3_4  and  N2_5
REMARK    2  A    between atoms: N3_9  and  C7_10
REMARK    3  A    between atoms: C7_10  and  C8_11
REMARK    4  A    between atoms: C8_11  and  C9_12
REMARK    5  A    between atoms: C15_23  and  N5_24
ROOT
HETATM    1  N1  UNL     1      28.817   4.968   2.838  1.00  0.00    -0.191 NA
HETATM    2  C1  UNL     1      27.715   4.846   3.164  1.00  0.00     0.105 C
HETATM    3  C2  UNL     1      26.345   4.722   3.583  1.00  0.00     0.117 A
HETATM    4  C3  UNL     1      25.749   3.512   3.861  1.00  0.00     0.127 A
HETATM    5  N4  UNL     1      24.446   3.460   4.261  1.00  0.00    -0.348 N
ATOM      6  H4  UNL     1      24.026   2.552   4.460  1.00  0.00     0.167 HD
HETATM    7  C13 UNL     1      23.697   4.567   4.401  1.00  0.00     0.134 A
HETATM    8  C14 UNL     1      24.238   5.803   4.137  1.00  0.00     0.159 A
HETATM    9  F1  UNL     1      23.518   6.967   4.264  1.00  0.00    -0.202 F
HETATM   10  C15 UNL     1      25.575   5.870   3.725  1.00  0.00     0.091 A
ENDROOT
BRANCH   4  11
HETATM   11  N2  UNL     1      26.507   2.313   3.726  1.00  0.00    -0.361 N
HETATM   12  C4  UNL     1      26.975   1.787   4.978  1.00  0.00     0.126 C
HETATM   13  C5  UNL     1      26.911   0.278   5.028  1.00  0.00     0.040 C
HETATM   14  C6  UNL     1      27.619  -0.369   3.879  1.00  0.00     0.128 C
HETATM   15  N3  UNL     1      28.462   0.619   3.284  1.00  0.00    -0.372 N
HETATM   16  C11 UNL     1      28.011   1.218   2.109  1.00  0.00     0.083 C
HETATM   17  C12 UNL     1      26.653   1.866   2.362  1.00  0.00     0.169 C
BRANCH  15  18
HETATM   18  C7  UNL     1      29.815   0.580   3.614  1.00  0.00     0.068 C
BRANCH  18  19
HETATM   19  C8  UNL     1      30.331   1.705   4.482  1.00  0.00     0.097 C
BRANCH  19  20
HETATM   20  C9  UNL     1      30.935   1.253   5.748  1.00  0.00     0.027 C
HETATM   21 CL1  UNL     1      29.952   0.463   6.956  1.00  0.00    -0.088 Cl
HETATM   22  C10 UNL     1      32.221   1.424   5.997  1.00  0.00     0.104 C
HETATM   23 CL2  UNL     1      32.908   0.865   7.539  1.00  0.00    -0.096 Cl
ENDBRANCH  19  20
ENDBRANCH  18  19
ENDBRANCH  15  18
ENDBRANCH   4  11
BRANCH  10  24
HETATM   24  N5  UNL     1      26.113   6.998   3.464  1.00  0.00    -0.395 N
ATOM     25  H52 UNL     1      26.399   7.225   2.511  1.00  0.00     0.156 HD
ATOM     26  H51 UNL     1      26.252   7.659   4.230  1.00  0.00     0.156 HD
ENDBRANCH  10  24
TORSDOF 5
ENDMDL