MODEL 1
REMARK VINA RESULT: -8.024625811      0.000      0.000
REMARK  4 active torsions:
REMARK  status: ('A' for Active; 'I' for Inactive)
REMARK    1  A    between atoms: N1_2  and  C3_4
REMARK    2  A    between atoms: C3_4  and  C4_5
REMARK    3  A    between atoms: C11_17  and  N4_18
REMARK    4  A    between atoms: N4_18  and  C12_20
ROOT
HETATM    1  C4  UNL     1      30.149   0.483   5.783  1.00  0.00     0.123 A
HETATM    2  N2  UNL     1      28.911   0.960   5.594  1.00  0.00    -0.342 N
ATOM      3  H2  UNL     1      28.478   1.507   6.338  1.00  0.00     0.167 HD
HETATM    4  C5  UNL     1      28.201   0.743   4.437  1.00  0.00     0.045 A
HETATM    5  C6  UNL     1      28.795   0.009   3.452  1.00  0.00     0.035 A
HETATM    6  C7  UNL     1      30.076  -0.497   3.623  1.00  0.00     0.255 A
HETATM    7  O1  UNL     1      30.594  -1.166   2.703  1.00  0.00    -0.268 OA
HETATM    8  N3  UNL     1      30.698  -0.236   4.787  1.00  0.00    -0.308 N
ATOM      9  H3  UNL     1      31.640  -0.604   4.921  1.00  0.00     0.170 HD
HETATM   10  C8  UNL     1      28.085  -0.257   2.163  1.00  0.00     0.046 C
HETATM   11  C9  UNL     1      27.394   1.065   1.835  1.00  0.00     0.007 C
HETATM   12  C10 UNL     1      26.412   1.440   2.890  1.00  0.00     0.032 C
HETATM   13  C11 UNL     1      26.838   1.287   4.297  1.00  0.00     0.132 C
ENDROOT
BRANCH  13  14
HETATM   14  N4  UNL     1      26.779   2.528   5.052  1.00  0.00    -0.377 N
ATOM     15  H4  UNL     1      27.265   2.554   5.948  1.00  0.00     0.160 HD
BRANCH  14  16
HETATM   16  C12 UNL     1      26.105   3.699   4.649  1.00  0.00     0.074 A
HETATM   17  C13 UNL     1      24.743   3.895   4.709  1.00  0.00     0.078 A
HETATM   18  C14 UNL     1      24.148   5.077   4.303  1.00  0.00     0.160 A
HETATM   19  F1  UNL     1      22.809   5.231   4.377  1.00  0.00    -0.203 F
HETATM   20  C15 UNL     1      24.901   6.120   3.816  1.00  0.00     0.196 A
HETATM   21  F2  UNL     1      24.310   7.293   3.414  1.00  0.00    -0.199 F
HETATM   22  C16 UNL     1      26.265   5.950   3.747  1.00  0.00     0.198 A
HETATM   23  F3  UNL     1      27.006   6.990   3.263  1.00  0.00    -0.199 F
HETATM   24  C17 UNL     1      26.835   4.771   4.154  1.00  0.00     0.184 A
HETATM   25  F4  UNL     1      28.190   4.688   4.051  1.00  0.00    -0.200 F
ENDBRANCH  14  16
ENDBRANCH  13  14
BRANCH   1  26
HETATM   26  C3  UNL     1      30.892   0.730   7.047  1.00  0.00     0.133 C
BRANCH  26  27
HETATM   27  N1  UNL     1      32.138   1.374   6.915  1.00  0.00    -0.395 N
HETATM   28  C1  UNL     1      32.192   2.587   6.183  1.00  0.00     0.148 C
HETATM   29  C2  UNL     1      33.307   0.562   6.911  1.00  0.00     0.148 C
ENDBRANCH  26  27
ENDBRANCH   1  26
TORSDOF 4
ENDMDL