MODEL 4
REMARK VINA RESULT: -6.157862534      1.246      2.210
REMARK  7 active torsions:
REMARK  status: ('A' for Active; 'I' for Inactive)
REMARK    1  A    between atoms: C5_7  and  N2_8
REMARK    2  A    between atoms: N2_8  and  C6_10
REMARK    3  A    between atoms: C11_15  and  N3_16
REMARK    4  A    between atoms: C12_22  and  O1_23
REMARK    5  A    between atoms: O1_23  and  C13_24
REMARK    6  A    between atoms: C13_24  and  C14_25
REMARK    7  A    between atoms: C13_24  and  C15_27
ROOT
HETATM    1  N1  UNL     1      31.042  -2.400   3.426  1.00  0.00    -0.191 NA
HETATM    2  C1  UNL     1      30.430  -1.434   3.542  1.00  0.00     0.104 C
HETATM    3  C2  UNL     1      29.624  -0.212   3.665  1.00  0.00     0.097 A
HETATM    4  C3  UNL     1      28.545  -0.098   2.815  1.00  0.00     0.055 A
HETATM    5  C4  UNL     1      27.751   1.012   2.871  1.00  0.00     0.079 A
HETATM    6 CL1  UNL     1      26.382   1.126   1.775  1.00  0.00    -0.080 Cl
HETATM    7  C5  UNL     1      28.024   2.009   3.767  1.00  0.00     0.125 A
HETATM    8  N4  UNL     1      29.083   1.860   4.576  1.00  0.00    -0.321 N
ATOM      9  H4  UNL     1      29.279   2.608   5.241  1.00  0.00     0.169 HD
HETATM   10  C12 UNL     1      29.919   0.779   4.573  1.00  0.00     0.165 A
ENDROOT
BRANCH  10  11
HETATM   11  O1  UNL     1      30.943   0.680   5.385  1.00  0.00    -0.324 OA
BRANCH  11  12
HETATM   12  C13 UNL     1      32.096   0.943   5.931  1.00  0.00     0.187 C
BRANCH  12  13
HETATM   13  C14 UNL     1      32.342   0.284   7.309  1.00  0.00     0.257 C
HETATM   14  F1  UNL     1      33.675   0.052   7.486  1.00  0.00    -0.253 F
ENDBRANCH  12  13
BRANCH  12  15
HETATM   15  C15 UNL     1      32.431   2.417   6.167  1.00  0.00     0.257 C
HETATM   16  F2  UNL     1      31.270   3.113   6.440  1.00  0.00    -0.253 F
ENDBRANCH  12  15
ENDBRANCH  11  12
ENDBRANCH  10  11
BRANCH   7  17
HETATM   17  N2  UNL     1      27.373   3.069   3.913  1.00  0.00    -0.368 N
ATOM     18  H2  UNL     1      27.452   3.381   4.881  1.00  0.00     0.161 HD
BRANCH  17  19
HETATM   19  C6  UNL     1      26.585   3.958   3.210  1.00  0.00     0.113 C
HETATM   20  C7  UNL     1      25.181   4.143   3.692  1.00  0.00     0.027 C
HETATM   21  C8  UNL     1      24.863   5.379   4.432  1.00  0.00     0.002 C
HETATM   22  C9  UNL     1      25.622   6.607   4.080  1.00  0.00     0.002 C
HETATM   23  C10 UNL     1      27.104   6.222   4.203  1.00  0.00     0.035 C
HETATM   24  C11 UNL     1      27.346   5.268   3.080  1.00  0.00     0.206 C
BRANCH  24  25
HETATM   25  N3  UNL     1      26.961   5.940   1.850  1.00  0.00    -0.073 N
ATOM     26  H33 UNL     1      25.977   6.205   1.850  1.00  0.00     0.274 HD
ATOM     27  H32 UNL     1      27.365   6.874   1.780  1.00  0.00     0.274 HD
ATOM     28  H31 UNL     1      27.202   5.356   1.048  1.00  0.00     0.274 HD
ENDBRANCH  24  25
ENDBRANCH  17  19
ENDBRANCH   7  17
TORSDOF 7
ENDMDL