MODEL 3
REMARK VINA RESULT: -6.974675439      1.243      1.576
REMARK  6 active torsions:
REMARK  status: ('A' for Active; 'I' for Inactive)
REMARK    1  A    between atoms: C2_2  and  N1_3
REMARK    2  A    between atoms: N1_3  and  C3_5
REMARK    3  A    between atoms: C4_8  and  N3_9
REMARK    4  A    between atoms: N3_9  and  C5_11
REMARK    5  A    between atoms: C8_14  and  O1_15
REMARK    6  A    between atoms: O1_15  and  C9_16
ROOT
HETATM    1  C3  UNL     1      29.968  -0.022   4.259  1.00  0.00     0.125 A
HETATM    2  N2  UNL     1      29.084   0.613   3.472  1.00  0.00    -0.176 N
ATOM      3  H2  UNL     1      28.529   0.046   2.830  1.00  0.00     0.186 HD
HETATM    4  C4  UNL     1      28.880   1.942   3.470  1.00  0.00     0.684 A
HETATM    5  N4  UNL     1      29.624   2.674   4.326  1.00  0.00    -0.193 N
ATOM      6  H4  UNL     1      29.494   3.685   4.349  1.00  0.00     0.184 HD
HETATM    7  C12 UNL     1      30.529   2.119   5.148  1.00  0.00     0.060 A
HETATM    8  C13 UNL     1      30.721   0.753   5.133  1.00  0.00     0.013 A
HETATM    9  C14 UNL     1      31.705   0.104   6.018  1.00  0.00     0.071 C
HETATM   10  C15 UNL     1      32.663   1.063   6.648  1.00  0.00     0.173 C
HETATM   11  O2  UNL     1      32.629   2.335   6.090  1.00  0.00    -0.385 OA
HETATM   12  C16 UNL     1      31.358   2.899   6.097  1.00  0.00     0.225 C
ENDROOT
BRANCH   4  13
HETATM   13  N3  UNL     1      28.000   2.484   2.672  1.00  0.00    -0.188 N
ATOM     14  H3  UNL     1      27.879   2.160   1.712  1.00  0.00     0.184 HD
BRANCH  13  15
HETATM   15  C5  UNL     1      27.220   3.544   3.203  1.00  0.00     0.091 A
HETATM   16  C6  UNL     1      26.083   3.205   3.903  1.00  0.00     0.036 A
HETATM   17  C7  UNL     1      25.284   4.222   4.445  1.00  0.00     0.042 A
HETATM   18  C8  UNL     1      25.609   5.540   4.294  1.00  0.00     0.116 A
HETATM   19  C10 UNL     1      26.756   5.853   3.587  1.00  0.00     0.190 A
HETATM   20  F3  UNL     1      27.060   7.166   3.448  1.00  0.00    -0.200 F
HETATM   21  C11 UNL     1      27.557   4.858   3.044  1.00  0.00     0.184 A
HETATM   22  F4  UNL     1      28.663   5.207   2.364  1.00  0.00    -0.200 F
BRANCH  18  23
HETATM   23  O1  UNL     1      24.839   6.538   4.817  1.00  0.00    -0.287 OA
BRANCH  23  24
HETATM   24  C9  UNL     1      23.930   7.367   4.178  1.00  0.00     0.505 C
HETATM   25  F1  UNL     1      23.783   8.566   4.854  1.00  0.00    -0.184 F
HETATM   26  F2  UNL     1      24.440   7.663   2.923  1.00  0.00    -0.184 F
ENDBRANCH  23  24
ENDBRANCH  18  23
ENDBRANCH  13  15
ENDBRANCH   4  13
BRANCH   1  27
HETATM   27  N1  UNL     1      30.165  -1.295   4.263  1.00  0.00    -0.376 N
ATOM     28  H1  UNL     1      29.907  -1.861   5.071  1.00  0.00     0.161 HD
BRANCH  27  29
HETATM   29  C2  UNL     1      30.763  -1.903   3.093  1.00  0.00     0.116 C
HETATM   30  C1  UNL     1      31.793  -2.954   3.499  1.00  0.00     0.026 C
ENDBRANCH  27  29
ENDBRANCH   1  27
TORSDOF 6
ENDMDL