MODEL 5
REMARK VINA RESULT: -4.397686394      1.453      1.548
REMARK  5 active torsions:
REMARK  status: ('A' for Active; 'I' for Inactive)
REMARK    1  A    between atoms: C5_5  and  C6_6
REMARK    2  A    between atoms: N3_19  and  C12_21
REMARK    3  A    between atoms: C12_21  and  C13_22
REMARK    4  A    between atoms: C13_22  and  O1_23
REMARK    5  A    between atoms: O1_23  and  C14_24
ROOT
HETATM    1  C1  UNL     1      24.978   2.484   2.726  1.00  0.00     0.045 C
HETATM    2  C2  UNL     1      25.786   1.826   3.753  1.00  0.00    -0.065 C
HETATM    3  C3  UNL     1      25.830   0.495   3.804  1.00  0.00    -0.021 C
HETATM    4  C4  UNL     1      26.668  -0.099   4.872  1.00  0.00     0.038 C
HETATM    5  C5  UNL     1      28.026   0.539   4.966  1.00  0.00     0.051 C
HETATM    6  C9  UNL     1      28.027   1.988   4.551  1.00  0.00     0.033 C
HETATM    7  C10 UNL     1      28.469   2.252   3.150  1.00  0.00     0.090 C
HETATM    8  S1  UNL     1      28.665   4.075   3.007  1.00  0.00    -0.094 SA
HETATM    9  C11 UNL     1      27.181   4.762   3.776  1.00  0.00     0.136 C
HETATM   10  N3  UNL     1      26.834   5.929   3.426  1.00  0.00    -0.369 N
ATOM     11  H3  UNL     1      27.420   6.397   2.735  1.00  0.00     0.161 HD
HETATM   12  N4  UNL     1      26.521   3.932   4.715  1.00  0.00    -0.362 N
ATOM     13  H4  UNL     1      25.924   4.392   5.403  1.00  0.00     0.162 HD
HETATM   14  C15 UNL     1      26.615   2.518   4.783  1.00  0.00     0.117 C
ENDROOT
BRANCH   5  15
HETATM   15  C6  UNL     1      28.995  -0.293   4.224  1.00  0.00     0.074 A
HETATM   16  N1  UNL     1      28.761  -1.023   3.136  1.00  0.00    -0.299 N
HETATM   17  N2  UNL     1      29.842  -1.641   2.708  1.00  0.00    -0.273 N
ATOM     18  H1  UNL     1      27.849  -1.096   2.685  1.00  0.00     0.186 HD
HETATM   19  C7  UNL     1      30.840  -1.313   3.541  1.00  0.00     0.243 A
ATOM     20  H2  UNL     1      29.908  -2.255   1.896  1.00  0.00     0.189 HD
HETATM   21  F1  UNL     1      32.137  -1.758   3.436  1.00  0.00    -0.181 F
HETATM   22  C8  UNL     1      30.328  -0.462   4.508  1.00  0.00     0.197 A
HETATM   23  F2  UNL     1      31.065   0.058   5.516  1.00  0.00    -0.199 F
ENDBRANCH   5  15
BRANCH  10  24
HETATM   24  C12 UNL     1      25.689   6.659   3.912  1.00  0.00     0.148 C
BRANCH  24  25
HETATM   25  C13 UNL     1      24.414   6.019   3.450  1.00  0.00     0.193 C
BRANCH  25  26
HETATM   26  O1  UNL     1      23.751   5.449   4.490  1.00  0.00    -0.331 OA
BRANCH  26  27
HETATM   27  C14 UNL     1      23.032   4.318   4.259  1.00  0.00     0.500 C
HETATM   28  F3  UNL     1      23.182   3.354   5.239  1.00  0.00    -0.185 F
HETATM   29  F4  UNL     1      21.680   4.678   4.237  1.00  0.00    -0.185 F
ENDBRANCH  26  27
ENDBRANCH  25  26
ENDBRANCH  24  25
ENDBRANCH  10  24
TORSDOF 5
ENDMDL