MODEL 5
REMARK VINA RESULT: -5.487447317      2.774      3.871
REMARK  7 active torsions:
REMARK  status: ('A' for Active; 'I' for Inactive)
REMARK    1  A    between atoms: C2_3  and  C3_4
REMARK    2  A    between atoms: C3_4  and  C4_5
REMARK    3  A    between atoms: C8_10  and  C9_11
REMARK    4  A    between atoms: C9_11  and  C10_12
REMARK    5  A    between atoms: C10_12  and  C11_13
REMARK    6  A    between atoms: C11_13  and  C12_14
REMARK    7  A    between atoms: C12_14  and  O2_15
ROOT
HETATM    1  N1  UNL     1      98.164  15.549   1.065  1.00  0.00    -0.197 NA
HETATM    2  C1  UNL     1      97.408  16.439   0.931  1.00  0.00     0.059 C
HETATM    3  C2  UNL     1      96.478  17.551   0.794  1.00  0.00     0.124 C
ENDROOT
BRANCH   3   4
HETATM    4  C3  UNL     1      96.684  18.336  -0.454  1.00  0.00     0.026 C
BRANCH   4   5
HETATM    5  C4  UNL     1      95.802  18.163  -1.561  1.00  0.00    -0.010 C
HETATM    6  C5  UNL     1      96.212  17.697  -2.914  1.00  0.00     0.178 C
HETATM    7  O1  UNL     1      94.967  17.808  -3.599  1.00  0.00    -0.385 OA
HETATM    8  C6  UNL     1      94.108  18.284  -2.606  1.00  0.00     0.127 C
HETATM    9  C7  UNL     1      94.498  17.411  -1.419  1.00  0.00     0.044 C
HETATM   10  C8  UNL     1      94.922  19.357  -1.980  1.00  0.00     0.025 C
BRANCH  10  11
HETATM   11  C9  UNL     1      94.442  20.092  -0.797  1.00  0.00     0.008 C
BRANCH  11  12
HETATM   12  C10 UNL     1      94.106  21.541  -1.059  1.00  0.00     0.002 C
BRANCH  12  13
HETATM   13  C11 UNL     1      92.604  21.718  -1.044  1.00  0.00     0.026 C
BRANCH  13  14
HETATM   14  C12 UNL     1      92.325  23.168  -1.372  1.00  0.00     0.164 C
BRANCH  14  15
HETATM   15  O2  UNL     1      91.933  23.909  -0.280  1.00  0.00    -0.401 OA
ATOM     16  H2  UNL     1      91.141  23.582   0.130  1.00  0.00     0.209 HD
ENDBRANCH  14  15
ENDBRANCH  13  14
ENDBRANCH  12  13
ENDBRANCH  11  12
ENDBRANCH  10  11
ENDBRANCH   4   5
ENDBRANCH   3   4
TORSDOF 7
ENDMDL