MODEL 1
REMARK VINA RESULT: -5.771899891      0.000      0.000
REMARK  5 active torsions:
REMARK  status: ('A' for Active; 'I' for Inactive)
REMARK    1  A    between atoms: C2_2  and  C3_3
REMARK    2  A    between atoms: C3_3  and  N1_4
REMARK    3  A    between atoms: N1_4  and  C4_7
REMARK    4  A    between atoms: C4_7  and  C5_8
REMARK    5  A    between atoms: C5_8  and  N2_9
ROOT
HETATM    1  N2  UNL     1      93.812  21.148  -0.188  1.00  0.00    -0.373 N
ATOM      2  H2  UNL     1      93.659  21.173   0.820  1.00  0.00     0.161 HD
HETATM    3  C6  UNL     1      94.507  20.195  -0.689  1.00  0.00     0.117 C
HETATM    4  C7  UNL     1      94.936  19.827  -2.058  1.00  0.00     0.122 C
HETATM    5  C8  UNL     1      95.158  18.503  -1.356  1.00  0.00     0.076 C
HETATM    6  C9  UNL     1      94.062  17.482  -1.617  1.00  0.00     0.039 C
HETATM    7  C10 UNL     1      94.699  16.382  -2.433  1.00  0.00     0.003 C
HETATM    8  C11 UNL     1      96.031  16.947  -2.882  1.00  0.00     0.003 C
HETATM    9  C12 UNL     1      96.430  17.788  -1.690  1.00  0.00     0.039 C
HETATM   10  O1  UNL     1      95.140  19.112  -0.100  1.00  0.00    -0.328 OA
ENDROOT
BRANCH   1  11
HETATM   11  C5  UNL     1      93.232  22.200  -1.022  1.00  0.00     0.149 C
BRANCH  11  12
HETATM   12  C4  UNL     1      91.811  21.838  -1.278  1.00  0.00     0.252 C
BRANCH  12  13
HETATM   13  N1  UNL     1      90.858  22.557  -0.487  1.00  0.00    -0.071 N
ATOM     14  H12 UNL     1      91.184  23.510  -0.320  1.00  0.00     0.277 HD
ATOM     15  H11 UNL     1      90.852  22.204   0.470  1.00  0.00     0.277 HD
BRANCH  13  16
HETATM   16  C3  UNL     1      89.534  22.571  -1.018  1.00  0.00     0.259 C
BRANCH  16  17
HETATM   17  C2  UNL     1      88.739  21.530  -0.272  1.00  0.00    -0.010 C
HETATM   18  C1  UNL     1      88.172  21.797   0.889  1.00  0.00     0.008 C
ENDBRANCH  16  17
ENDBRANCH  13  16
ENDBRANCH  12  13
ENDBRANCH  11  12
ENDBRANCH   1  11
TORSDOF 5
ENDMDL