MODEL 4
REMARK VINA RESULT: -5.728709719      2.642      5.517
REMARK  5 active torsions:
REMARK  status: ('A' for Active; 'I' for Inactive)
REMARK    1  A    between atoms: C2_2  and  C3_3
REMARK    2  A    between atoms: C3_3  and  C4_4
REMARK    3  A    between atoms: C4_4  and  C5_5
REMARK    4  A    between atoms: C5_5  and  C6_6
REMARK    5  A    between atoms: C6_6  and  N1_7
ROOT
HETATM    1  C3  UNL     1      95.157  16.447  -4.265  1.00  0.00    -0.020 C
HETATM    2  C8  UNL     1      93.948  17.307  -4.721  1.00  0.00     0.144 C
HETATM    3  N2  UNL     1      93.162  17.807  -3.643  1.00  0.00    -0.319 N
HETATM    4  C9  UNL     1      91.785  17.647  -3.610  1.00  0.00     0.179 C
HETATM    5  N3  UNL     1      90.633  17.496  -3.573  1.00  0.00    -0.172 NA
HETATM    6  C10 UNL     1      93.770  18.528  -2.495  1.00  0.00     0.139 C
HETATM    7  C11 UNL     1      95.221  18.367  -2.842  1.00  0.00     0.009 A
HETATM    8  C12 UNL     1      96.282  17.679  -2.206  1.00  0.00     0.012 A
HETATM    9  C13 UNL     1      95.362  16.823  -2.848  1.00  0.00     0.002 A
ENDROOT
BRANCH   1  10
HETATM   10  C2  UNL     1      96.342  16.842  -5.082  1.00  0.00     0.007 C
HETATM   11  C1  UNL     1      97.055  15.761  -5.819  1.00  0.00     0.006 C
ENDBRANCH   1  10
BRANCH   1  12
HETATM   12  C4  UNL     1      94.789  15.003  -4.288  1.00  0.00     0.013 C
BRANCH  12  13
HETATM   13  C5  UNL     1      94.400  14.317  -3.055  1.00  0.00     0.028 C
BRANCH  13  14
HETATM   14  C6  UNL     1      94.852  12.839  -3.104  1.00  0.00     0.231 C
BRANCH  14  15
HETATM   15  N1  UNL     1      95.661  12.620  -4.300  1.00  0.00    -0.079 N
HETATM   16  C7  UNL     1      96.080  11.255  -4.411  1.00  0.00     0.266 C
ATOM     17  H12 UNL     1      95.173  12.928  -5.141  1.00  0.00     0.276 HD
ATOM     18  H11 UNL     1      96.455  13.258  -4.334  1.00  0.00     0.276 HD
ENDBRANCH  14  15
ENDBRANCH  13  14
ENDBRANCH  12  13
ENDBRANCH   1  12
TORSDOF 5
ENDMDL