MODEL 4
REMARK VINA RESULT: -5.490385810      3.110      5.881
REMARK  6 active torsions:
REMARK  status: ('A' for Active; 'I' for Inactive)
REMARK    1  A    between atoms: C2_2  and  C3_3
REMARK    2  A    between atoms: C5_5  and  C6_6
REMARK    3  A    between atoms: C5_5  and  C7_11
REMARK    4  A    between atoms: C6_6  and  N1_7
REMARK    5  A    between atoms: C7_11  and  C8_12
REMARK    6  A    between atoms: N2_13  and  C9_15
ROOT
HETATM    1  C3  UNL     1      96.648  17.838  -0.624  1.00  0.00     0.078 C
HETATM    2  C4  UNL     1      96.511  17.870  -2.155  1.00  0.00     0.028 C
HETATM    3  C5  UNL     1      95.025  17.716  -2.319  1.00  0.00    -0.005 C
HETATM    4  C12 UNL     1      94.612  16.784  -1.195  1.00  0.00     0.090 C
HETATM    5  C13 UNL     1      95.809  16.655  -0.334  1.00  0.00     0.135 C
HETATM    6  O1  UNL     1      96.056  15.775   0.442  1.00  0.00    -0.297 OA
ENDROOT
BRANCH   3   7
HETATM    7  C6  UNL     1      94.382  19.060  -2.074  1.00  0.00     0.239 C
BRANCH   7   8
HETATM    8  N1  UNL     1      93.106  19.149  -2.761  1.00  0.00    -0.079 N
ATOM      9  H13 UNL     1      93.184  18.879  -3.741  1.00  0.00     0.274 HD
ATOM     10  H12 UNL     1      92.459  18.422  -2.454  1.00  0.00     0.274 HD
ATOM     11  H11 UNL     1      92.705  20.081  -2.655  1.00  0.00     0.274 HD
ENDBRANCH   7   8
ENDBRANCH   3   7
BRANCH   3  12
HETATM   12  C7  UNL     1      94.603  17.227  -3.659  1.00  0.00     0.056 C
BRANCH  12  13
HETATM   13  C8  UNL     1      95.626  16.535  -4.441  1.00  0.00     0.057 C
HETATM   14  N2  UNL     1      95.960  17.055  -5.562  1.00  0.00    -0.398 N
ATOM     15  H2  UNL     1      95.491  17.918  -5.841  1.00  0.00     0.159 HD
BRANCH  14  16
HETATM   16  C9  UNL     1      96.932  16.521  -6.447  1.00  0.00     0.080 A
HETATM   17  C10 UNL     1      98.347  16.404  -6.130  1.00  0.00     0.027 A
HETATM   18  C11 UNL     1      97.935  17.564  -6.946  1.00  0.00     0.027 A
ENDBRANCH  14  16
ENDBRANCH  12  13
ENDBRANCH   3  12
BRANCH   1  19
HETATM   19  C2  UNL     1      98.057  17.661  -0.228  1.00  0.00    -0.025 C
HETATM   20  C1  UNL     1      98.574  18.502   0.653  1.00  0.00     0.007 C
ENDBRANCH   1  19
TORSDOF 6
ENDMDL