MODEL 5
REMARK VINA RESULT: -5.283317384      0.559      1.635
REMARK  5 active torsions:
REMARK  status: ('A' for Active; 'I' for Inactive)
REMARK    1  A    between atoms: C2_2  and  C4_5
REMARK    2  A    between atoms: C4_5  and  N2_6
REMARK    3  A    between atoms: N2_6  and  C5_8
REMARK    4  A    between atoms: C5_8  and  C6_9
REMARK    5  A    between atoms: C6_9  and  N3_10
ROOT
HETATM    1  C1  UNL     1      89.706  22.026  -0.685  1.00  0.00     0.031 C
HETATM    2  C2  UNL     1      90.863  22.259  -1.618  1.00  0.00     0.127 C
HETATM    3  C3  UNL     1      91.272  23.691  -1.593  1.00  0.00     0.069 C
HETATM    4  N1  UNL     1      91.570  24.804  -1.575  1.00  0.00    -0.197 NA
ENDROOT
BRANCH   2   5
HETATM    5  C4  UNL     1      92.059  21.398  -1.413  1.00  0.00     0.079 C
BRANCH   5   6
HETATM    6  N2  UNL     1      93.268  21.962  -1.002  1.00  0.00    -0.376 N
ATOM      7  H2  UNL     1      93.268  22.919  -0.650  1.00  0.00     0.164 HD
BRANCH   6   8
HETATM    8  C5  UNL     1      94.484  21.261  -1.057  1.00  0.00     0.104 C
BRANCH   8   9
HETATM    9  C6  UNL     1      94.362  19.930  -1.739  1.00  0.00     0.107 C
BRANCH   9  10
HETATM   10  N3  UNL     1      94.495  18.786  -0.964  1.00  0.00    -0.369 N
HETATM   11  C7  UNL     1      95.318  18.695   0.156  1.00  0.00     0.063 C
HETATM   12  C8  UNL     1      96.773  18.380  -0.153  1.00  0.00     0.044 C
HETATM   13  C9  UNL     1      96.950  17.080  -0.860  1.00  0.00     0.005 C
HETATM   14  C10 UNL     1      95.930  16.100  -0.388  1.00  0.00     0.002 C
HETATM   15  C11 UNL     1      94.528  16.361  -0.811  1.00  0.00     0.020 C
HETATM   16  C12 UNL     1      94.333  17.541  -1.696  1.00  0.00     0.127 C
ENDBRANCH   9  10
ENDBRANCH   8   9
ENDBRANCH   6   8
ENDBRANCH   5   6
ENDBRANCH   2   5
TORSDOF 5
ENDMDL