MODEL 5
REMARK VINA RESULT: -7.018978907      3.679      6.178
REMARK  10 active torsions:
REMARK  status: ('A' for Active; 'I' for Inactive)
REMARK    1  A    between atoms: S1_2  and  C2_3
REMARK    2  A    between atoms: C2_3  and  C3_4
REMARK    3  A    between atoms: C3_4  and  C4_5
REMARK    4  A    between atoms: C4_5  and  N1_6
REMARK    5  A    between atoms: C4_5  and  C29_35
REMARK       I    between atoms: N1_6  and  C5_7
REMARK    6  A    between atoms: C5_7  and  C6_9
REMARK    7  A    between atoms: C6_9  and  C7_11
REMARK    8  A    between atoms: C7_11  and  C9_13
REMARK    9  A    between atoms: C19_23  and  O3_24
REMARK   10  A    between atoms: C29_35  and  O4_37
ROOT
HETATM    1  C9  UNL     1      37.069   0.226  17.382  1.00  0.00     0.005 C
HETATM    2  C10 UNL     1      35.907  -0.249  16.555  1.00  0.00     0.006 C
HETATM    3  C11 UNL     1      36.367  -1.201  15.509  1.00  0.00     0.006 C
HETATM    4  C12 UNL     1      37.836  -1.275  15.721  1.00  0.00    -0.002 C
HETATM    5  C13 UNL     1      38.659  -1.664  14.501  1.00  0.00    -0.004 C
HETATM    6  C14 UNL     1      38.529  -3.125  14.369  1.00  0.00     0.009 C
HETATM    7  C15 UNL     1      38.697  -3.642  12.980  1.00  0.00     0.028 C
HETATM    8  C16 UNL     1      39.928  -3.099  12.281  1.00  0.00    -0.023 C
HETATM    9  C17 UNL     1      40.825  -2.285  12.575  1.00  0.00    -0.072 C
HETATM   10  C18 UNL     1      41.844  -2.100  11.448  1.00  0.00     0.066 C
HETATM   11  C19 UNL     1      43.089  -2.167  12.234  1.00  0.00     0.122 C
HETATM   12  C20 UNL     1      43.374  -2.491  13.618  1.00  0.00     0.033 C
HETATM   13  C21 UNL     1      42.119  -2.410  14.506  1.00  0.00     0.016 C
HETATM   14  C22 UNL     1      41.125  -1.504  13.743  1.00  0.00    -0.017 C
HETATM   15  C23 UNL     1      41.950  -0.230  13.490  1.00  0.00     0.020 C
HETATM   16  C24 UNL     1      39.990  -1.045  14.584  1.00  0.00     0.002 C
HETATM   17  C25 UNL     1      40.394  -0.967  16.082  1.00  0.00     0.007 C
HETATM   18  C26 UNL     1      39.502   0.129  16.717  1.00  0.00     0.010 C
HETATM   19  C27 UNL     1      38.135   0.100  16.228  1.00  0.00    -0.036 C
HETATM   20  C28 UNL     1      37.741   1.092  15.216  1.00  0.00     0.016 C
ENDROOT
BRANCH   1  21
HETATM   21  C7  UNL     1      36.995   1.630  17.785  1.00  0.00     0.067 C
HETATM   22  C8  UNL     1      37.675   1.610  19.272  1.00  0.00     0.019 C
BRANCH  21  23
HETATM   23  C6  UNL     1      35.807   2.347  18.028  1.00  0.00     0.235 C
HETATM   24  O2  UNL     1      35.091   2.424  18.851  1.00  0.00    -0.286 OA
BRANCH  23  25
HETATM   25  C5  UNL     1      35.364   3.355  16.671  1.00  0.00     0.362 C
HETATM   26  N1  UNL     1      36.439   4.172  16.628  1.00  0.00    -0.370 NA
HETATM   27  O1  UNL     1      34.367   2.783  16.521  1.00  0.00    -0.248 OA
BRANCH  26  28
HETATM   28  C4  UNL     1      37.536   5.019  16.573  1.00  0.00     0.095 C
BRANCH  28  29
HETATM   29  C3  UNL     1      38.860   4.632  17.134  1.00  0.00     0.081 C
BRANCH  29  30
HETATM   30  C2  UNL     1      39.092   4.887  18.585  1.00  0.00     0.080 C
BRANCH  30  31
HETATM   31  S1  UNL     1      39.850   6.489  19.010  1.00  0.00    -0.173 SA
HETATM   32  C1  UNL     1      41.600   6.565  18.562  1.00  0.00     0.089 C
ENDBRANCH  30  31
ENDBRANCH  29  30
ENDBRANCH  28  29
BRANCH  28  33
HETATM   33  C29 UNL     1      37.699   5.912  15.373  1.00  0.00     0.174 C
HETATM   34  C30 UNL     1      37.822   7.367  15.853  1.00  0.00     0.046 C
BRANCH  33  35
HETATM   35  O4  UNL     1      36.603   5.910  14.533  1.00  0.00    -0.389 OA
ATOM     36  H4  UNL     1      35.957   6.571  14.754  1.00  0.00     0.210 HD
ENDBRANCH  33  35
ENDBRANCH  28  33
ENDBRANCH  26  28
ENDBRANCH  23  25
ENDBRANCH  21  23
ENDBRANCH   1  21
BRANCH  11  37
HETATM   37  O3  UNL     1      44.196  -1.855  11.527  1.00  0.00    -0.395 OA
ATOM     38  H3  UNL     1      44.115  -1.054  11.022  1.00  0.00     0.210 HD
ENDBRANCH  11  37
TORSDOF 10
ENDMDL