MODEL 2
REMARK VINA RESULT: -8.820321887      1.258      2.037
REMARK  11 active torsions:
REMARK  status: ('A' for Active; 'I' for Inactive)
REMARK    1  A    between atoms: C2_2  and  C3_3
REMARK    2  A    between atoms: C2_2  and  C22_25
REMARK    3  A    between atoms: C3_3  and  O2_5
REMARK    4  A    between atoms: O2_5  and  C4_6
REMARK    5  A    between atoms: C13_15  and  C15_17
REMARK    6  A    between atoms: C15_17  and  N1_18
REMARK    7  A    between atoms: C22_25  and  C23_27
REMARK    8  A    between atoms: C26_30  and  C27_31
REMARK    9  A    between atoms: C27_31  and  O4_33
REMARK   10  A    between atoms: C27_31  and  C29_35
REMARK   11  A    between atoms: C29_35  and  O5_36
ROOT
HETATM    1  O2  UNL     1      32.996  -3.338  22.222  1.00  0.00    -0.315 OA
ENDROOT
BRANCH   1   2
HETATM    2  C3  UNL     1      33.389  -2.715  21.031  1.00  0.00     0.270 C
HETATM    3  O1  UNL     1      32.601  -2.912  20.074  1.00  0.00    -0.264 OA
BRANCH   2   4
HETATM    4  C2  UNL     1      34.583  -1.899  20.841  1.00  0.00     0.151 C
HETATM    5  C1  UNL     1      35.785  -2.725  21.321  1.00  0.00     0.029 C
BRANCH   4   6
HETATM    6  C22 UNL     1      34.884  -1.612  19.401  1.00  0.00     0.144 C
HETATM    7  O3  UNL     1      34.261  -2.079  18.485  1.00  0.00    -0.297 OA
BRANCH   6   8
HETATM    8  C23 UNL     1      36.042  -0.680  19.183  1.00  0.00     0.060 C
HETATM    9  C24 UNL     1      35.940   0.569  20.004  1.00  0.00     0.013 C
HETATM   10  C25 UNL     1      35.873   1.731  19.051  1.00  0.00     0.009 C
HETATM   11  C26 UNL     1      35.662   1.135  17.715  1.00  0.00     0.026 C
HETATM   12  C30 UNL     1      36.189  -0.251  17.753  1.00  0.00    -0.000 C
HETATM   13  C31 UNL     1      37.657  -0.383  17.392  1.00  0.00     0.011 C
BRANCH  11  14
HETATM   14  C27 UNL     1      36.227   1.957  16.583  1.00  0.00     0.079 C
HETATM   15  C28 UNL     1      36.030   1.284  15.241  1.00  0.00     0.048 C
BRANCH  14  16
HETATM   16  O4  UNL     1      37.577   2.229  16.801  1.00  0.00    -0.388 OA
ATOM     17  H4  UNL     1      37.970   2.614  16.026  1.00  0.00     0.210 HD
ENDBRANCH  14  16
BRANCH  14  18
HETATM   18  C29 UNL     1      35.479   3.265  16.513  1.00  0.00     0.201 C
BRANCH  18  19
HETATM   19  O5  UNL     1      34.122   3.110  16.247  1.00  0.00    -0.398 OA
ATOM     20  H5  UNL     1      33.824   2.212  16.328  1.00  0.00     0.209 HD
ENDBRANCH  18  19
ENDBRANCH  14  18
ENDBRANCH  11  14
ENDBRANCH   6   8
ENDBRANCH   4   6
ENDBRANCH   2   4
ENDBRANCH   1   2
BRANCH   1  21
HETATM   21  C4  UNL     1      32.223  -2.682  23.200  1.00  0.00     0.136 C
HETATM   22  C5  UNL     1      32.017  -1.215  23.082  1.00  0.00     0.038 C
HETATM   23  C6  UNL     1      32.673  -1.046  24.433  1.00  0.00    -0.001 C
HETATM   24  C7  UNL     1      33.078  -2.479  24.471  1.00  0.00     0.020 C
HETATM   25  C11 UNL     1      31.823  -0.571  25.548  1.00  0.00    -0.005 C
HETATM   26  C8  UNL     1      32.576  -3.313  25.576  1.00  0.00     0.008 C
HETATM   27  C9  UNL     1      32.279  -2.655  26.863  1.00  0.00     0.006 C
HETATM   28  C10 UNL     1      32.200  -1.163  26.883  1.00  0.00    -0.006 C
HETATM   29  C20 UNL     1      31.110  -0.613  27.757  1.00  0.00    -0.004 C
HETATM   30  C13 UNL     1      29.899  -0.435  26.866  1.00  0.00    -0.014 C
HETATM   31  C21 UNL     1      30.881  -1.309  29.036  1.00  0.00     0.011 C
HETATM   32  C12 UNL     1      30.375  -0.852  25.457  1.00  0.00     0.016 C
HETATM   33  C14 UNL     1      29.526   1.016  26.737  1.00  0.00     0.017 C
BRANCH  30  34
HETATM   34  C15 UNL     1      28.761  -1.260  27.317  1.00  0.00     0.281 C
BRANCH  34  35
HETATM   35  N1  UNL     1      27.826  -1.735  26.370  1.00  0.00     0.089 N
HETATM   36  C16 UNL     1      27.368  -3.105  26.791  1.00  0.00     0.272 C
HETATM   37  C17 UNL     1      26.619  -2.750  28.075  1.00  0.00     0.032 C
HETATM   38  C18 UNL     1      25.996  -1.407  27.791  1.00  0.00     0.032 C
HETATM   39  C19 UNL     1      26.527  -1.103  26.385  1.00  0.00     0.272 C
ENDBRANCH  34  35
ENDBRANCH  30  34
ENDBRANCH   1  21
TORSDOF 11
ENDMDL