MODEL 5
REMARK VINA RESULT: -6.591711013      2.114      2.707
REMARK  11 active torsions:
REMARK  status: ('A' for Active; 'I' for Inactive)
REMARK    1  A    between atoms: C2_2  and  C3_3
REMARK    2  A    between atoms: C3_3  and  C4_4
REMARK    3  A    between atoms: C4_4  and  C5_5
REMARK    4  A    between atoms: C4_4  and  N1_10
REMARK    5  A    between atoms: C5_5  and  C6_6
REMARK    6  A    between atoms: C6_6  and  C7_7
REMARK    7  A    between atoms: N1_10  and  C9_12
REMARK    8  A    between atoms: C23_26  and  O3_27
REMARK    9  A    between atoms: O3_27  and  C24_28
REMARK   10  A    between atoms: C24_28  and  C25_30
REMARK   11  A    between atoms: C25_30  and  O5_33
ROOT
HETATM    1  C9  UNL     1      35.310  -0.753  19.403  1.00  0.00    -0.012 C
HETATM    2  C10 UNL     1      34.924  -0.851  17.985  1.00  0.00     0.053 C
HETATM    3  C11 UNL     1      36.074  -0.661  17.019  1.00  0.00     0.019 C
HETATM    4  C12 UNL     1      37.073   0.405  17.354  1.00  0.00    -0.016 C
HETATM    5  C13 UNL     1      38.411  -0.303  17.583  1.00  0.00     0.020 C
HETATM    6  C14 UNL     1      36.662   1.153  18.564  1.00  0.00    -0.070 C
HETATM    7  C15 UNL     1      36.625   2.475  18.688  1.00  0.00    -0.022 C
HETATM    8  C16 UNL     1      37.033   3.368  17.536  1.00  0.00     0.033 C
HETATM    9  C17 UNL     1      38.168   2.507  16.948  1.00  0.00    -0.001 C
HETATM   10  C18 UNL     1      37.355   1.395  16.273  1.00  0.00     0.003 C
HETATM   11  C19 UNL     1      38.114   0.951  15.082  1.00  0.00     0.007 C
HETATM   12  C20 UNL     1      38.084   2.161  14.126  1.00  0.00     0.012 C
HETATM   13  C21 UNL     1      39.000   3.215  14.660  1.00  0.00    -0.013 C
HETATM   14  C22 UNL     1      40.381   2.886  14.028  1.00  0.00     0.018 C
HETATM   15  C23 UNL     1      38.687   4.618  14.251  1.00  0.00     0.140 C
HETATM   16  C28 UNL     1      38.397   5.360  15.592  1.00  0.00     0.034 C
HETATM   17  C29 UNL     1      39.341   4.663  16.498  1.00  0.00     0.008 C
HETATM   18  C30 UNL     1      39.169   3.172  16.149  1.00  0.00     0.001 C
HETATM   19  C31 UNL     1      36.333   0.298  19.753  1.00  0.00     0.087 C
ENDROOT
BRANCH   1  20
HETATM   20  N1  UNL     1      35.310  -1.833  20.292  1.00  0.00    -0.387 N
HETATM   21  C8  UNL     1      36.471  -2.174  20.990  1.00  0.00     0.149 C
BRANCH  20  22
HETATM   22  C4  UNL     1      34.120  -2.383  20.797  1.00  0.00     0.084 C
BRANCH  22  23
HETATM   23  C3  UNL     1      33.982  -2.848  22.178  1.00  0.00     0.025 C
BRANCH  23  24
HETATM   24  C2  UNL     1      32.911  -2.118  22.944  1.00  0.00    -0.002 C
HETATM   25  C1  UNL     1      32.767  -2.722  24.348  1.00  0.00     0.005 C
ENDBRANCH  23  24
ENDBRANCH  22  23
BRANCH  22  26
HETATM   26  C5  UNL     1      33.597  -3.415  19.757  1.00  0.00     0.035 C
BRANCH  26  27
HETATM   27  C6  UNL     1      32.152  -3.069  19.454  1.00  0.00     0.115 C
BRANCH  27  28
HETATM   28  C7  UNL     1      31.972  -2.791  18.003  1.00  0.00     0.172 C
HETATM   29  O1  UNL     1      31.132  -1.907  17.655  1.00  0.00    -0.648 OA
HETATM   30  O2  UNL     1      32.665  -3.436  16.988  1.00  0.00    -0.648 OA
ENDBRANCH  27  28
ENDBRANCH  26  27
ENDBRANCH  22  26
ENDBRANCH  20  22
ENDBRANCH   1  20
BRANCH  15  31
HETATM   31  O3  UNL     1      39.770   5.274  13.637  1.00  0.00    -0.313 OA
BRANCH  31  32
HETATM   32  C24 UNL     1      39.800   6.594  13.314  1.00  0.00     0.293 C
HETATM   33  O4  UNL     1      38.835   7.054  12.636  1.00  0.00    -0.262 OA
BRANCH  32  34
HETATM   34  C25 UNL     1      40.954   7.423  13.778  1.00  0.00     0.138 C
HETATM   35  C26 UNL     1      41.937   6.424  14.439  1.00  0.00     0.056 C
HETATM   36  C27 UNL     1      40.510   8.327  14.892  1.00  0.00     0.056 C
BRANCH  34  37
HETATM   37  O5  UNL     1      41.585   8.080  12.763  1.00  0.00    -0.380 OA
ATOM     38  H5  UNL     1      42.194   8.743  13.068  1.00  0.00     0.211 HD
ENDBRANCH  34  37
ENDBRANCH  32  34
ENDBRANCH  31  32
ENDBRANCH  15  31
TORSDOF 11
ENDMDL