MODEL 2
REMARK VINA RESULT: -7.474645170      1.726      1.985
REMARK  8 active torsions:
REMARK  status: ('A' for Active; 'I' for Inactive)
REMARK    1  A    between atoms: C2_2  and  C3_3
REMARK    2  A    between atoms: C3_3  and  C4_4
REMARK    3  A    between atoms: C4_4  and  C5_5
REMARK    4  A    between atoms: C5_5  and  C6_6
REMARK    5  A    between atoms: C6_6  and  N1_7
REMARK       I    between atoms: N1_7  and  C7_9
REMARK    6  A    between atoms: C7_9  and  C8_11
REMARK    7  A    between atoms: C9_13  and  C10_14
REMARK    8  A    between atoms: C10_14  and  C11_15
REMARK       I    between atoms: C11_15  and  N2_17
ROOT
HETATM    1  C8  UNL     1      36.067   0.500  17.812  1.00  0.00     0.247 C
HETATM    2  O2  UNL     1      36.712   0.154  16.655  1.00  0.00    -0.355 OA
HETATM    3  C9  UNL     1      37.934   0.558  17.030  1.00  0.00     0.117 C
HETATM    4  C13 UNL     1      38.734   1.543  16.319  1.00  0.00     0.021 C
HETATM    5  C14 UNL     1      38.192   2.819  15.804  1.00  0.00    -0.033 C
HETATM    6  C15 UNL     1      38.675   3.036  14.354  1.00  0.00    -0.013 C
HETATM    7  C16 UNL     1      38.539   1.796  13.511  1.00  0.00     0.020 C
HETATM    8  C17 UNL     1      40.201   3.245  14.469  1.00  0.00     0.014 C
HETATM    9  C18 UNL     1      40.517   4.718  14.610  1.00  0.00     0.002 C
HETATM   10  C19 UNL     1      40.290   5.248  13.191  1.00  0.00     0.009 C
HETATM   11  C20 UNL     1      38.837   5.140  12.926  1.00  0.00    -0.043 C
HETATM   12  C21 UNL     1      38.671   4.839  11.426  1.00  0.00     0.015 C
HETATM   13  C22 UNL     1      38.270   6.568  13.061  1.00  0.00     0.015 C
HETATM   14  C23 UNL     1      38.035   4.257  13.788  1.00  0.00     0.006 C
HETATM   15  C24 UNL     1      36.760   3.970  13.033  1.00  0.00     0.007 C
HETATM   16  C25 UNL     1      35.800   3.096  13.753  1.00  0.00     0.008 C
HETATM   17  C26 UNL     1      35.701   3.259  15.218  1.00  0.00     0.026 C
HETATM   18  C27 UNL     1      34.756   4.462  15.443  1.00  0.00     0.013 C
HETATM   19  C28 UNL     1      36.842   3.245  16.099  1.00  0.00     0.141 A
HETATM   20  O4  UNL     1      36.740   4.419  17.062  1.00  0.00    -0.337 OA
HETATM   21  C29 UNL     1      36.551   3.160  17.550  1.00  0.00     0.301 A
HETATM   22  O5  UNL     1      37.480   2.476  18.290  1.00  0.00    -0.346 OA
HETATM   23  C30 UNL     1      37.316   1.131  18.305  1.00  0.00     0.202 C
ENDROOT
BRANCH   1  24
HETATM   24  C7  UNL     1      35.530  -0.642  18.619  1.00  0.00     0.249 C
HETATM   25  N1  UNL     1      35.773  -0.822  19.984  1.00  0.00    -0.359 N
ATOM     26  H1  UNL     1      36.349  -0.150  20.494  1.00  0.00     0.162 HD
HETATM   27  O1  UNL     1      34.821  -1.472  18.002  1.00  0.00    -0.271 OA
BRANCH  25  28
HETATM   28  C6  UNL     1      35.208  -1.959  20.674  1.00  0.00     0.122 C
BRANCH  28  29
HETATM   29  C5  UNL     1      36.240  -2.726  21.456  1.00  0.00     0.020 C
BRANCH  29  30
HETATM   30  C4  UNL     1      35.617  -3.820  22.286  1.00  0.00     0.002 C
BRANCH  30  31
HETATM   31  C3  UNL     1      34.108  -3.789  22.274  1.00  0.00    -0.000 C
BRANCH  31  32
HETATM   32  C2  UNL     1      33.551  -3.405  23.632  1.00  0.00    -0.005 C
HETATM   33  C1  UNL     1      32.698  -2.148  23.514  1.00  0.00     0.005 C
ENDBRANCH  31  32
ENDBRANCH  30  31
ENDBRANCH  29  30
ENDBRANCH  28  29
ENDBRANCH  25  28
ENDBRANCH   1  24
BRANCH   3  34
HETATM   34  C10 UNL     1      38.859  -0.603  17.451  1.00  0.00     0.148 C
BRANCH  34  35
HETATM   35  C11 UNL     1      39.617  -1.159  16.334  1.00  0.00     0.220 C
HETATM   36  O3  UNL     1      39.015  -1.789  15.432  1.00  0.00    -0.274 OA
HETATM   37  N2  UNL     1      41.022  -1.037  16.183  1.00  0.00    -0.365 N
HETATM   38  C12 UNL     1      41.755  -1.596  15.067  1.00  0.00     0.149 C
ATOM     39  H2  UNL     1      41.543  -0.530  16.898  1.00  0.00     0.161 HD
ENDBRANCH  34  35
ENDBRANCH   3  34
TORSDOF 8
ENDMDL