MODEL 4
REMARK VINA RESULT: -7.706420646      1.547      2.332
REMARK  8 active torsions:
REMARK  status: ('A' for Active; 'I' for Inactive)
REMARK    1  A    between atoms: C2_2  and  C3_3
REMARK    2  A    between atoms: C3_3  and  C4_4
REMARK    3  A    between atoms: C9_10  and  C11_12
REMARK    4  A    between atoms: C11_12  and  C12_13
REMARK       I    between atoms: C12_13  and  N1_15
REMARK    5  A    between atoms: N1_15  and  C13_17
REMARK    6  A    between atoms: C22_28  and  C23_29
REMARK    7  A    between atoms: C26_32  and  C27_33
REMARK    8  A    between atoms: C27_33  and  C28_34
ROOT
HETATM    1  C3  UNL     1      38.243   0.716  13.650  1.00  0.00     0.038 C
HETATM    2  C6  UNL     1      38.835   1.650  14.643  1.00  0.00    -0.006 C
HETATM    3  C7  UNL     1      38.561   1.981  15.839  1.00  0.00     0.050 C
HETATM    4  C8  UNL     1      37.574   1.637  16.831  1.00  0.00     0.184 C
HETATM    5  O1  UNL     1      36.572   2.424  17.014  1.00  0.00    -0.290 OA
HETATM    6  C9  UNL     1      37.547   0.436  17.728  1.00  0.00     0.139 C
HETATM    7  C10 UNL     1      38.006   0.950  19.123  1.00  0.00     0.056 C
HETATM    8  O3  UNL     1      38.377  -0.469  17.230  1.00  0.00    -0.301 OA
HETATM    9  C21 UNL     1      39.423  -0.962  16.661  1.00  0.00     0.265 C
HETATM   10  O4  UNL     1      40.603  -0.520  16.944  1.00  0.00    -0.265 OA
HETATM   11  C22 UNL     1      39.446  -2.049  15.655  1.00  0.00     0.100 C
HETATM   12  C26 UNL     1      38.860  -1.792  14.333  1.00  0.00     0.080 C
HETATM   13  C29 UNL     1      37.944  -0.649  14.174  1.00  0.00     0.144 C
HETATM   14  O7  UNL     1      36.744  -0.780  14.498  1.00  0.00    -0.296 OA
ENDROOT
BRANCH   6  15
HETATM   15  C11 UNL     1      36.091   0.065  17.931  1.00  0.00     0.149 C
BRANCH  15  16
HETATM   16  C12 UNL     1      35.760  -0.210  19.324  1.00  0.00     0.221 C
HETATM   17  O2  UNL     1      35.543   0.714  20.146  1.00  0.00    -0.273 OA
HETATM   18  N1  UNL     1      35.675  -1.546  19.783  1.00  0.00    -0.356 N
ATOM     19  H1  UNL     1      35.852  -2.299  19.118  1.00  0.00     0.162 HD
BRANCH  18  20
HETATM   20  C13 UNL     1      35.349  -1.900  21.163  1.00  0.00     0.085 C
HETATM   21  C14 UNL     1      33.897  -2.105  21.340  1.00  0.00     0.029 C
HETATM   22  C15 UNL     1      33.501  -3.535  21.493  1.00  0.00    -0.012 C
HETATM   23  C16 UNL     1      33.824  -4.349  20.256  1.00  0.00     0.005 C
HETATM   24  C19 UNL     1      34.357  -4.247  22.538  1.00  0.00     0.009 C
HETATM   25  C17 UNL     1      35.246  -4.844  20.463  1.00  0.00     0.005 C
HETATM   26  C18 UNL     1      35.672  -4.307  21.808  1.00  0.00    -0.012 C
HETATM   27  C20 UNL     1      36.269  -2.953  21.650  1.00  0.00     0.029 C
ENDBRANCH  18  20
ENDBRANCH  15  16
ENDBRANCH   6  15
BRANCH  11  28
HETATM   28  C23 UNL     1      40.864  -2.608  15.541  1.00  0.00    -0.008 C
HETATM   29  C24 UNL     1      41.505  -2.143  14.250  1.00  0.00     0.010 C
HETATM   30  C25 UNL     1      40.935  -4.099  15.597  1.00  0.00     0.010 C
ENDBRANCH  11  28
BRANCH   1  31
HETATM   31  C2  UNL     1      36.941   1.328  13.117  1.00  0.00     0.017 C
HETATM   32  C1  UNL     1      37.065   2.615  12.399  1.00  0.00     0.006 C
ENDBRANCH   1  31
BRANCH   1  33
HETATM   33  C4  UNL     1      39.181   0.518  12.507  1.00  0.00     0.017 C
HETATM   34  C5  UNL     1      40.543   1.078  12.549  1.00  0.00     0.006 C
ENDBRANCH   1  33
BRANCH  12  35
HETATM   35  C27 UNL     1      37.962  -2.982  13.881  1.00  0.00     0.126 C
BRANCH  35  36
HETATM   36  C28 UNL     1      38.644  -4.102  13.309  1.00  0.00     0.173 C
HETATM   37  O5  UNL     1      39.434  -3.904  12.321  1.00  0.00    -0.648 OA
HETATM   38  O6  UNL     1      38.514  -5.398  13.748  1.00  0.00    -0.648 OA
ENDBRANCH  35  36
ENDBRANCH  12  35
TORSDOF 8
ENDMDL