MODEL 2
REMARK VINA RESULT: -6.273521687      2.632      6.975
REMARK  9 active torsions:
REMARK  status: ('A' for Active; 'I' for Inactive)
REMARK    1  A    between atoms: C8_8  and  O1_9
REMARK    2  A    between atoms: O1_9  and  C9_10
REMARK    3  A    between atoms: C9_10  and  C10_12
REMARK    4  A    between atoms: C14_16  and  O3_17
REMARK    5  A    between atoms: C15_19  and  C16_20
REMARK    6  A    between atoms: C19_24  and  C21_26
REMARK       I    between atoms: C21_26  and  N1_28
REMARK    7  A    between atoms: N1_28  and  C22_30
REMARK    8  A    between atoms: C22_30  and  C23_31
REMARK    9  A    between atoms: C23_31  and  N2_32
ROOT
HETATM    1  C1  UNL     1      40.444  -3.785  15.553  1.00  0.00     0.010 C
HETATM    2  C2  UNL     1      40.455  -2.291  15.387  1.00  0.00    -0.014 C
HETATM    3  C3  UNL     1      41.485  -1.870  14.433  1.00  0.00     0.005 C
HETATM    4  C4  UNL     1      41.378  -0.427  13.982  1.00  0.00     0.014 C
HETATM    5  C5  UNL     1      39.973  -0.316  13.373  1.00  0.00    -0.015 C
HETATM    6  C6  UNL     1      39.925  -1.544  12.431  1.00  0.00     0.020 C
HETATM    7  C7  UNL     1      39.065  -0.444  14.501  1.00  0.00    -0.041 C
HETATM    8  C8  UNL     1      38.254   0.225  15.352  1.00  0.00     0.063 C
HETATM    9  C13 UNL     1      37.986   1.669  15.416  1.00  0.00     0.106 C
HETATM   10  C14 UNL     1      37.218   2.288  14.318  1.00  0.00     0.093 C
HETATM   11  C15 UNL     1      37.899   2.297  12.979  1.00  0.00     0.046 C
HETATM   12  C17 UNL     1      37.652   3.718  12.419  1.00  0.00     0.021 C
HETATM   13  C18 UNL     1      37.892   4.488  13.721  1.00  0.00     0.023 C
HETATM   14  C19 UNL     1      36.891   3.721  14.591  1.00  0.00     0.070 C
HETATM   15  C20 UNL     1      35.522   4.090  14.017  1.00  0.00     0.029 C
HETATM   16  C27 UNL     1      39.378   2.115  13.007  1.00  0.00     0.025 C
HETATM   17  C28 UNL     1      39.831   0.817  12.437  1.00  0.00    -0.005 C
HETATM   18  C29 UNL     1      41.147   1.031  11.698  1.00  0.00     0.011 C
HETATM   19  C30 UNL     1      39.028  -1.849  15.051  1.00  0.00     0.041 C
ENDROOT
BRANCH  14  20
HETATM   20  C21 UNL     1      37.044   4.228  15.943  1.00  0.00     0.229 C
HETATM   21  O5  UNL     1      36.259   3.902  16.864  1.00  0.00    -0.273 OA
HETATM   22  N1  UNL     1      38.094   5.115  16.267  1.00  0.00    -0.359 N
ATOM     23  H1  UNL     1      38.755   5.399  15.544  1.00  0.00     0.162 HD
BRANCH  22  24
HETATM   24  C22 UNL     1      38.243   5.625  17.612  1.00  0.00     0.150 C
BRANCH  24  25
HETATM   25  C23 UNL     1      39.489   5.210  18.313  1.00  0.00     0.255 C
BRANCH  25  26
HETATM   26  N2  UNL     1      40.471   6.281  18.386  1.00  0.00    -0.077 N
HETATM   27  C24 UNL     1      41.552   6.108  17.458  1.00  0.00     0.271 C
HETATM   28  C25 UNL     1      39.775   7.542  18.200  1.00  0.00     0.271 C
HETATM   29  C26 UNL     1      40.994   6.289  19.741  1.00  0.00     0.271 C
ENDBRANCH  25  26
ENDBRANCH  24  25
ENDBRANCH  22  24
ENDBRANCH  14  20
BRANCH  10  30
HETATM   30  O3  UNL     1      35.976   1.607  14.237  1.00  0.00    -0.387 OA
ATOM     31  H3  UNL     1      35.462   2.037  13.564  1.00  0.00     0.210 HD
ENDBRANCH  10  30
BRANCH  11  32
HETATM   32  C16 UNL     1      37.230   1.423  11.975  1.00  0.00     0.243 C
HETATM   33  O4  UNL     1      36.784   0.332  12.138  1.00  0.00    -0.306 OA
ENDBRANCH  11  32
BRANCH   8  34
HETATM   34  O1  UNL     1      37.688  -0.658  16.199  1.00  0.00    -0.283 OA
BRANCH  34  35
HETATM   35  C9  UNL     1      36.658  -0.606  17.062  1.00  0.00     0.267 C
HETATM   36  O2  UNL     1      35.523  -0.911  16.676  1.00  0.00    -0.265 OA
BRANCH  35  37
HETATM   37  C10 UNL     1      36.792  -0.198  18.475  1.00  0.00     0.078 C
HETATM   38  C11 UNL     1      36.005   1.056  18.792  1.00  0.00     0.020 C
HETATM   39  C12 UNL     1      38.235   0.076  18.882  1.00  0.00     0.020 C
ENDBRANCH  35  37
ENDBRANCH  34  35
ENDBRANCH   8  34
TORSDOF 9
ENDMDL