MODEL 2
REMARK VINA RESULT: -8.720466051      1.051      1.104
REMARK  8 active torsions:
REMARK  status: ('A' for Active; 'I' for Inactive)
REMARK    1  A    between atoms: C2_2  and  C4_4
REMARK    2  A    between atoms: C4_4  and  C5_5
REMARK    3  A    between atoms: C5_5  and  N1_6
REMARK    4  A    between atoms: C7_8  and  C8_9
REMARK    5  A    between atoms: C21_23  and  N2_24
REMARK       I    between atoms: N2_24  and  C22_26
REMARK    6  A    between atoms: C22_26  and  C23_28
REMARK    7  A    between atoms: C23_28  and  C24_29
REMARK    8  A    between atoms: C24_29  and  C25_30
ROOT
HETATM    1  C8  UNL     1      38.795   1.627  15.012  1.00  0.00     0.028 C
HETATM    2  C9  UNL     1      39.690   2.717  14.390  1.00  0.00     0.027 C
HETATM    3  C10 UNL     1      39.249   4.090  14.593  1.00  0.00     0.021 C
HETATM    4  C11 UNL     1      40.496   4.958  14.824  1.00  0.00     0.024 C
HETATM    5  C12 UNL     1      38.462   4.675  13.482  1.00  0.00     0.135 C
HETATM    6  O1  UNL     1      38.904   5.177  12.478  1.00  0.00    -0.297 OA
HETATM    7  C13 UNL     1      37.019   4.552  13.788  1.00  0.00     0.079 C
HETATM    8  C14 UNL     1      36.944   4.245  15.288  1.00  0.00     0.013 C
HETATM    9  C15 UNL     1      38.348   4.189  15.765  1.00  0.00     0.006 C
HETATM   10  C16 UNL     1      38.641   3.219  16.869  1.00  0.00    -0.004 C
HETATM   11  C17 UNL     1      37.559   3.507  17.867  1.00  0.00     0.006 C
HETATM   12  C18 UNL     1      37.468   2.578  18.994  1.00  0.00     0.006 C
HETATM   13  C19 UNL     1      38.047   1.226  18.764  1.00  0.00    -0.004 C
HETATM   14  C20 UNL     1      37.301   0.277  19.644  1.00  0.00     0.030 C
HETATM   15  C21 UNL     1      36.004  -0.214  19.069  1.00  0.00     0.084 C
HETATM   16  C26 UNL     1      36.098  -0.586  17.615  1.00  0.00     0.026 C
HETATM   17  C27 UNL     1      36.707   0.524  16.791  1.00  0.00     0.012 C
HETATM   18  C28 UNL     1      38.074   0.801  17.297  1.00  0.00    -0.036 C
HETATM   19  C29 UNL     1      38.785  -0.564  17.375  1.00  0.00     0.016 C
HETATM   20  C30 UNL     1      38.870   1.794  16.491  1.00  0.00     0.007 C
ENDROOT
BRANCH   1  21
HETATM   21  C7  UNL     1      39.453   0.412  14.451  1.00  0.00    -0.020 A
HETATM   22  C6  UNL     1      38.858  -0.655  13.807  1.00  0.00     0.119 A
HETATM   23  N1  UNL     1      39.795  -1.521  13.445  1.00  0.00    -0.303 N
HETATM   24  N4  UNL     1      40.961  -1.057  13.825  1.00  0.00    -0.310 N
HETATM   25  C31 UNL     1      40.792   0.110  14.438  1.00  0.00     0.116 A
ATOM     26  H4  UNL     1      41.857  -1.520  13.675  1.00  0.00     0.186 HD
BRANCH  23  27
HETATM   27  C5  UNL     1      39.531  -2.789  12.729  1.00  0.00     0.148 C
BRANCH  27  28
HETATM   28  C4  UNL     1      38.632  -3.639  13.605  1.00  0.00     0.025 C
BRANCH  28  29
HETATM   29  C2  UNL     1      39.381  -4.883  14.024  1.00  0.00    -0.021 C
HETATM   30  C1  UNL     1      38.374  -5.976  14.310  1.00  0.00     0.009 C
HETATM   31  C3  UNL     1      40.197  -4.650  15.276  1.00  0.00     0.009 C
ENDBRANCH  28  29
ENDBRANCH  27  28
ENDBRANCH  23  27
ENDBRANCH   1  21
BRANCH  15  32
HETATM   32  N2  UNL     1      35.508  -1.296  19.841  1.00  0.00    -0.356 N
HETATM   33  C22 UNL     1      34.429  -2.078  19.365  1.00  0.00     0.218 C
HETATM   34  O2  UNL     1      33.893  -1.828  18.253  1.00  0.00    -0.274 OA
ATOM     35  H2  UNL     1      35.930  -1.511  20.745  1.00  0.00     0.162 HD
BRANCH  33  36
HETATM   36  C23 UNL     1      33.894  -3.209  20.147  1.00  0.00     0.111 C
BRANCH  36  37
HETATM   37  C24 UNL     1      33.691  -2.828  21.605  1.00  0.00     0.109 C
BRANCH  37  38
HETATM   38  C25 UNL     1      34.613  -3.602  22.473  1.00  0.00     0.231 C
HETATM   39  N3  UNL     1      35.917  -3.886  21.989  1.00  0.00    -0.062 NA
HETATM   40  O3  UNL     1      34.309  -4.020  23.610  1.00  0.00    -0.277 OA
ENDBRANCH  37  38
ENDBRANCH  36  37
ENDBRANCH  33  36
ENDBRANCH  15  32
TORSDOF 8
ENDMDL