MODEL 4
REMARK VINA RESULT: -7.272367143      4.271      7.032
REMARK  9 active torsions:
REMARK  status: ('A' for Active; 'I' for Inactive)
REMARK    1  A    between atoms: C2_2  and  C3_3
REMARK    2  A    between atoms: C3_3  and  S1_4
REMARK    3  A    between atoms: C3_3  and  C17_18
REMARK    4  A    between atoms: S1_4  and  C4_5
REMARK    5  A    between atoms: C10_11  and  C11_12
REMARK    6  A    between atoms: C11_12  and  C14_15
REMARK       I    between atoms: C17_18  and  N1_20
REMARK    7  A    between atoms: N1_20  and  C18_21
REMARK    8  A    between atoms: C20_25  and  C21_26
REMARK    9  A    between atoms: C23_30  and  O5_31
ROOT
HETATM    1  C17 UNL     1      36.894   0.500  16.650  1.00  0.00     0.301 C
HETATM    2  O1  UNL     1      35.651   0.425  16.749  1.00  0.00    -0.256 OA
HETATM    3  N1  UNL     1      37.752  -0.548  16.330  1.00  0.00    -0.396 NA
ENDROOT
BRANCH   1   4
HETATM    4  C3  UNL     1      37.429   1.891  16.914  1.00  0.00     0.154 C
BRANCH   4   5
HETATM    5  C2  UNL     1      38.369   1.793  18.093  1.00  0.00     0.021 C
HETATM    6  C1  UNL     1      37.608   2.071  19.390  1.00  0.00     0.007 C
ENDBRANCH   4   5
BRANCH   4   7
HETATM    7  S1  UNL     1      36.205   3.103  17.265  1.00  0.00    -0.148 SA
BRANCH   7   8
HETATM    8  C4  UNL     1      36.171   4.513  16.129  1.00  0.00     0.056 C
HETATM    9  C5  UNL     1      34.956   4.246  15.222  1.00  0.00    -0.004 C
HETATM   10  C6  UNL     1      35.108   2.994  14.432  1.00  0.00     0.011 C
HETATM   11  C7  UNL     1      34.780   5.500  14.437  1.00  0.00     0.005 C
HETATM   12  C8  UNL     1      35.940   5.678  13.535  1.00  0.00     0.001 C
HETATM   13  C9  UNL     1      37.200   4.946  13.881  1.00  0.00     0.006 C
HETATM   14  C10 UNL     1      37.446   4.606  15.284  1.00  0.00     0.008 C
BRANCH  14  15
HETATM   15  C11 UNL     1      38.471   5.350  16.051  1.00  0.00    -0.040 C
HETATM   16  C12 UNL     1      38.848   6.585  15.195  1.00  0.00     0.015 C
HETATM   17  C13 UNL     1      39.801   4.574  16.144  1.00  0.00     0.015 C
BRANCH  15  18
HETATM   18  C14 UNL     1      38.193   5.861  17.398  1.00  0.00    -0.015 C
HETATM   19  C15 UNL     1      39.083   5.404  18.513  1.00  0.00     0.010 C
HETATM   20  C16 UNL     1      37.803   7.299  17.566  1.00  0.00     0.010 C
ENDBRANCH  15  18
ENDBRANCH  14  15
ENDBRANCH   7   8
ENDBRANCH   4   7
ENDBRANCH   1   4
BRANCH   3  21
HETATM   21  C18 UNL     1      38.557  -1.572  16.020  1.00  0.00     0.291 C
HETATM   22  C19 UNL     1      40.018  -1.212  15.846  1.00  0.00     0.261 C
HETATM   23  O2  UNL     1      40.716  -0.342  16.385  1.00  0.00    -0.270 OA
HETATM   24  N2  UNL     1      40.172  -2.227  14.892  1.00  0.00    -0.314 N
HETATM   25  C20 UNL     1      40.872  -3.160  14.053  1.00  0.00     0.221 C
HETATM   26  C26 UNL     1      38.708  -2.207  14.695  1.00  0.00     0.196 C
HETATM   27  C22 UNL     1      40.767  -2.788  12.617  1.00  0.00    -0.016 C
HETATM   28  C23 UNL     1      41.713  -3.268  11.832  1.00  0.00     0.140 C
HETATM   29  C25 UNL     1      39.732  -1.928  12.006  1.00  0.00     0.115 C
HETATM   30  S2  UNL     1      38.533  -1.241  13.175  1.00  0.00    -0.135 SA
BRANCH  25  31
HETATM   31  C21 UNL     1      40.527  -4.525  14.386  1.00  0.00     0.201 C
HETATM   32  O3  UNL     1      41.027  -5.036  15.455  1.00  0.00    -0.646 OA
HETATM   33  O4  UNL     1      39.699  -5.371  13.665  1.00  0.00    -0.646 OA
ENDBRANCH  25  31
BRANCH  28  34
HETATM   34  O5  UNL     1      42.745  -4.058  12.259  1.00  0.00    -0.368 OA
HETATM   35  C24 UNL     1      44.084  -3.903  11.905  1.00  0.00     0.208 C
ENDBRANCH  28  34
ENDBRANCH   3  21
TORSDOF 9
ENDMDL