MODEL 1
REMARK VINA RESULT: -8.469702154      0.000      0.000
REMARK  9 active torsions:
REMARK  status: ('A' for Active; 'I' for Inactive)
REMARK    1  A    between atoms: C5_5  and  C6_6
REMARK    2  A    between atoms: C6_6  and  O1_7
REMARK    3  A    between atoms: C7_9  and  N1_10
REMARK       I    between atoms: N1_10  and  C8_12
REMARK    4  A    between atoms: C8_12  and  C9_14
REMARK    5  A    between atoms: C9_14  and  C10_15
REMARK    6  A    between atoms: C10_15  and  C11_16
REMARK    7  A    between atoms: C11_16  and  C12_17
REMARK    8  A    between atoms: C12_17  and  C13_18
REMARK    9  A    between atoms: C13_18  and  N2_19
ROOT
HETATM    1  C1  UNL     1      37.863   1.961  12.994  1.00  0.00     0.020 C
HETATM    2  C2  UNL     1      38.526   1.722  14.331  1.00  0.00    -0.022 C
HETATM    3  C3  UNL     1      38.106   2.810  15.255  1.00  0.00    -0.021 C
HETATM    4  C4  UNL     1      36.926   3.033  15.778  1.00  0.00    -0.021 C
HETATM    5  C5  UNL     1      35.666   2.317  15.641  1.00  0.00     0.054 C
HETATM    6  C7  UNL     1      35.859   0.824  15.929  1.00  0.00     0.094 C
HETATM    7  C18 UNL     1      36.688   0.138  14.930  1.00  0.00     0.032 C
HETATM    8  C19 UNL     1      38.158   0.432  14.970  1.00  0.00     0.004 C
HETATM    9  C20 UNL     1      38.869  -0.792  14.444  1.00  0.00    -0.005 C
HETATM   10  C21 UNL     1      38.955  -1.773  15.593  1.00  0.00     0.006 C
HETATM   11  C22 UNL     1      39.927  -2.892  15.381  1.00  0.00     0.006 C
HETATM   12  C23 UNL     1      41.270  -2.476  14.883  1.00  0.00     0.001 C
HETATM   13  C24 UNL     1      42.078  -3.685  14.565  1.00  0.00     0.083 C
HETATM   14  C25 UNL     1      43.144  -3.485  13.577  1.00  0.00     0.127 C
HETATM   15  O4  UNL     1      43.943  -4.405  13.419  1.00  0.00    -0.298 OA
HETATM   16  C26 UNL     1      43.347  -2.278  12.752  1.00  0.00     0.079 C
HETATM   17  C27 UNL     1      42.469  -1.140  13.264  1.00  0.00     0.017 C
HETATM   18  C28 UNL     1      41.074  -1.663  13.628  1.00  0.00    -0.036 C
HETATM   19  C29 UNL     1      40.501  -2.503  12.490  1.00  0.00     0.016 C
HETATM   20  C30 UNL     1      40.175  -0.492  13.810  1.00  0.00    -0.002 C
HETATM   21  C31 UNL     1      40.804   0.658  14.559  1.00  0.00     0.007 C
HETATM   22  C32 UNL     1      40.010   1.882  14.160  1.00  0.00     0.014 C
ENDROOT
BRANCH   6  23
HETATM   23  N1  UNL     1      36.209   0.635  17.293  1.00  0.00    -0.356 N
HETATM   24  C8  UNL     1      35.777  -0.415  18.128  1.00  0.00     0.217 C
HETATM   25  O2  UNL     1      34.998  -1.245  17.553  1.00  0.00    -0.274 OA
ATOM     26  H1  UNL     1      36.833   1.326  17.709  1.00  0.00     0.162 HD
BRANCH  24  27
HETATM   27  C9  UNL     1      36.156  -0.586  19.529  1.00  0.00     0.103 C
BRANCH  27  28
HETATM   28  C10 UNL     1      35.135  -1.225  20.413  1.00  0.00     0.009 C
BRANCH  28  29
HETATM   29  C11 UNL     1      35.721  -2.365  21.170  1.00  0.00     0.002 C
BRANCH  29  30
HETATM   30  C12 UNL     1      34.710  -3.120  22.012  1.00  0.00     0.030 C
BRANCH  30  31
HETATM   31  C13 UNL     1      33.327  -2.529  21.907  1.00  0.00     0.272 C
BRANCH  31  32
HETATM   32  N2  UNL     1      32.618  -2.571  23.151  1.00  0.00     0.092 N
HETATM   33  C14 UNL     1      32.419  -1.256  23.722  1.00  0.00     0.298 C
HETATM   34  C15 UNL     1      31.338  -1.352  24.802  1.00  0.00     0.198 C
HETATM   35  O3  UNL     1      31.400  -2.607  25.420  1.00  0.00    -0.388 OA
HETATM   36  C16 UNL     1      32.707  -3.062  25.543  1.00  0.00     0.198 C
HETATM   37  C17 UNL     1      33.183  -3.441  24.143  1.00  0.00     0.298 C
ENDBRANCH  31  32
ENDBRANCH  30  31
ENDBRANCH  29  30
ENDBRANCH  28  29
ENDBRANCH  27  28
ENDBRANCH  24  27
ENDBRANCH   6  23
BRANCH   5  38
HETATM   38  C6  UNL     1      34.589   2.873  16.579  1.00  0.00     0.174 C
BRANCH  38  39
HETATM   39  O1  UNL     1      33.720   3.678  15.877  1.00  0.00    -0.400 OA
ATOM     40  H1  UNL     1      32.958   3.179  15.608  1.00  0.00     0.209 HD
ENDBRANCH  38  39
ENDBRANCH   5  38
TORSDOF 9
ENDMDL