MODEL 1
REMARK VINA RESULT: -8.187353463      0.000      0.000
REMARK  8 active torsions:
REMARK  status: ('A' for Active; 'I' for Inactive)
REMARK    1  A    between atoms: C2_2  and  C3_3
REMARK    2  A    between atoms: C3_3  and  C4_4
REMARK    3  A    between atoms: C4_4  and  C5_5
REMARK    4  A    between atoms: C5_5  and  C6_6
REMARK    5  A    between atoms: C6_6  and  C7_7
REMARK    6  A    between atoms: C7_7  and  N1_8
REMARK       I    between atoms: N1_8  and  C8_10
REMARK    7  A    between atoms: C8_10  and  C9_12
REMARK    8  A    between atoms: C26_31  and  O4_32
ROOT
HETATM    1  C9  UNL     1      40.437  -3.251  13.699  1.00  0.00     0.102 C
HETATM    2  C10 UNL     1      39.696  -3.228  12.339  1.00  0.00     0.034 C
HETATM    3  C11 UNL     1      41.870  -3.263  13.354  1.00  0.00     0.144 C
HETATM    4  O2  UNL     1      42.549  -4.292  13.390  1.00  0.00    -0.297 OA
HETATM    5  C12 UNL     1      42.557  -2.034  12.946  1.00  0.00     0.080 C
HETATM    6  C13 UNL     1      41.713  -0.811  13.129  1.00  0.00     0.017 C
HETATM    7  C14 UNL     1      40.987  -0.885  14.435  1.00  0.00    -0.034 C
HETATM    8  C15 UNL     1      42.087  -1.079  15.498  1.00  0.00     0.016 C
HETATM    9  C16 UNL     1      40.226   0.339  14.791  1.00  0.00     0.002 C
HETATM   10  C17 UNL     1      39.759   1.196  13.667  1.00  0.00     0.007 C
HETATM   11  C18 UNL     1      38.396   1.819  13.852  1.00  0.00     0.014 C
HETATM   12  C19 UNL     1      38.084   2.324  15.208  1.00  0.00    -0.014 C
HETATM   13  C20 UNL     1      36.562   2.248  15.366  1.00  0.00     0.020 C
HETATM   14  C21 UNL     1      38.611   1.330  16.194  1.00  0.00    -0.063 C
HETATM   15  C22 UNL     1      38.729   1.671  17.439  1.00  0.00     0.054 C
HETATM   16  C23 UNL     1      38.344   3.005  17.826  1.00  0.00     0.154 C
HETATM   17  O3  UNL     1      37.832   3.225  18.938  1.00  0.00    -0.293 OA
HETATM   18  C24 UNL     1      38.563   4.124  16.884  1.00  0.00     0.071 C
HETATM   19  C25 UNL     1      37.681   5.282  17.192  1.00  0.00     0.073 C
HETATM   20  C26 UNL     1      37.151   6.074  16.072  1.00  0.00     0.257 C
HETATM   21  O5  UNL     1      37.991   5.970  14.968  1.00  0.00    -0.361 OA
HETATM   22  C27 UNL     1      37.896   4.652  14.524  1.00  0.00     0.177 C
HETATM   23  C28 UNL     1      38.611   3.697  15.440  1.00  0.00     0.033 C
HETATM   24  C29 UNL     1      38.977   0.017  15.624  1.00  0.00     0.020 C
HETATM   25  C30 UNL     1      39.160  -1.065  16.601  1.00  0.00     0.010 C
HETATM   26  C31 UNL     1      39.592  -2.333  15.886  1.00  0.00     0.008 C
HETATM   27  C32 UNL     1      40.032  -2.064  14.479  1.00  0.00     0.019 C
ENDROOT
BRANCH   1  28
HETATM   28  C8  UNL     1      40.043  -4.564  14.336  1.00  0.00     0.237 C
HETATM   29  N1  UNL     1      38.848  -5.215  14.016  1.00  0.00    -0.336 N
ATOM     30  H1  UNL     1      38.287  -4.698  13.338  1.00  0.00     0.168 HD
HETATM   31  O1  UNL     1      40.853  -5.014  15.152  1.00  0.00    -0.272 OA
BRANCH  29  32
HETATM   32  C7  UNL     1      38.243  -6.418  14.415  1.00  0.00     0.087 C
BRANCH  32  33
HETATM   33  C6  UNL     1      36.777  -6.604  14.412  1.00  0.00    -0.010 C
BRANCH  33  34
HETATM   34  C5  UNL     1      36.140  -7.862  14.795  1.00  0.00     0.028 C
BRANCH  34  35
HETATM   35  C4  UNL     1      34.697  -8.037  14.389  1.00  0.00     0.004 C
BRANCH  35  36
HETATM   36  C3  UNL     1      34.520  -8.060  12.891  1.00  0.00    -0.000 C
BRANCH  36  37
HETATM   37  C2  UNL     1      34.052  -9.409  12.388  1.00  0.00    -0.005 C
HETATM   38  C1  UNL     1      32.889  -9.189  11.421  1.00  0.00     0.005 C
ENDBRANCH  36  37
ENDBRANCH  35  36
ENDBRANCH  34  35
ENDBRANCH  33  34
ENDBRANCH  32  33
ENDBRANCH  29  32
ENDBRANCH   1  28
BRANCH  20  39
HETATM   39  O4  UNL     1      35.826   5.790  15.746  1.00  0.00    -0.371 OA
ATOM     40  H4  UNL     1      35.628   4.863  15.682  1.00  0.00     0.212 HD
ENDBRANCH  20  39
TORSDOF 8
ENDMDL