MODEL 3
REMARK VINA RESULT: -8.560791512      1.588      2.008
REMARK  10 active torsions:
REMARK  status: ('A' for Active; 'I' for Inactive)
REMARK    1  A    between atoms: O1_2  and  C2_3
REMARK    2  A    between atoms: C2_3  and  C3_5
REMARK    3  A    between atoms: C3_5  and  C4_6
REMARK    4  A    between atoms: C4_6  and  O3_7
REMARK    5  A    between atoms: O3_7  and  C5_8
REMARK    6  A    between atoms: C5_8  and  C6_10
REMARK    7  A    between atoms: C6_10  and  C7_11
REMARK    8  A    between atoms: C7_11  and  C8_12
REMARK    9  A    between atoms: C8_12  and  C9_13
REMARK   10  A    between atoms: N1_22  and  C17_23
ROOT
HETATM    1  C4  UNL     1     -19.254  72.975  35.221  1.00  0.00     0.090 C
HETATM    2  C15 UNL     1     -18.657  72.719  33.837  1.00  0.00     0.060 C
HETATM    3  C16 UNL     1     -19.562  71.983  32.906  1.00  0.00     0.126 C
HETATM    4  N1  UNL     1     -19.974  70.744  33.480  1.00  0.00    -0.381 N
HETATM    5  C23 UNL     1     -20.257  70.775  34.919  1.00  0.00     0.126 C
HETATM    6  C24 UNL     1     -20.598  72.241  35.183  1.00  0.00     0.060 C
ENDROOT
BRANCH   1   7
HETATM    7  C3  UNL     1     -19.461  74.454  35.320  1.00  0.00     0.080 C
HETATM    8  C25 UNL     1     -18.353  75.075  34.456  1.00  0.00     0.023 C
HETATM    9  C26 UNL     1     -18.847  76.156  33.562  1.00  0.00     0.001 C
HETATM   10  C27 UNL     1     -19.764  77.113  34.274  1.00  0.00     0.000 C
HETATM   11  C28 UNL     1     -20.873  76.407  34.980  1.00  0.00     0.001 C
HETATM   12  C29 UNL     1     -20.813  74.894  34.802  1.00  0.00     0.023 C
BRANCH   7  13
HETATM   13  C2  UNL     1     -19.326  75.074  36.647  1.00  0.00     0.270 C
HETATM   14  O2  UNL     1     -20.155  74.813  37.586  1.00  0.00    -0.264 OA
BRANCH  13  15
HETATM   15  O1  UNL     1     -18.315  75.979  36.997  1.00  0.00    -0.326 OA
HETATM   16  C1  UNL     1     -17.477  75.785  38.121  1.00  0.00     0.213 C
ENDBRANCH  13  15
ENDBRANCH   7  13
ENDBRANCH   1   7
BRANCH   1  17
HETATM   17  O3  UNL     1     -18.381  72.430  36.100  1.00  0.00    -0.309 OA
BRANCH  17  18
HETATM   18  C5  UNL     1     -17.144  71.996  36.184  1.00  0.00     0.259 C
HETATM   19  O4  UNL     1     -16.944  70.777  36.208  1.00  0.00    -0.265 OA
BRANCH  18  20
HETATM   20  C6  UNL     1     -15.978  72.907  36.252  1.00  0.00     0.111 C
BRANCH  20  21
HETATM   21  C7  UNL     1     -14.957  72.429  35.252  1.00  0.00     0.014 C
BRANCH  21  22
HETATM   22  C8  UNL     1     -15.250  72.878  33.843  1.00  0.00     0.039 C
BRANCH  22  23
HETATM   23  C9  UNL     1     -15.421  71.751  32.902  1.00  0.00    -0.058 A
HETATM   24  C10 UNL     1     -15.756  71.968  31.593  1.00  0.00     0.009 A
HETATM   25  C11 UNL     1     -15.917  70.914  30.712  1.00  0.00     0.024 A
HETATM   26  C12 UNL     1     -15.744  69.616  31.131  1.00  0.00     0.034 A
HETATM   27 CL1  UNL     1     -15.947  68.256  30.015  1.00  0.00    -0.084 Cl
HETATM   28  C13 UNL     1     -15.408  69.378  32.444  1.00  0.00     0.024 A
HETATM   29  C14 UNL     1     -15.249  70.454  33.325  1.00  0.00     0.009 A
ENDBRANCH  22  23
ENDBRANCH  21  22
ENDBRANCH  20  21
ENDBRANCH  18  20
ENDBRANCH  17  18
ENDBRANCH   1  17
BRANCH   4  30
HETATM   30  C17 UNL     1     -20.117  69.559  32.739  1.00  0.00     0.032 A
HETATM   31  C18 UNL     1     -19.050  68.685  32.574  1.00  0.00     0.032 A
HETATM   32  C19 UNL     1     -19.136  67.514  31.869  1.00  0.00     0.046 A
HETATM   33  C20 UNL     1     -20.320  67.160  31.286  1.00  0.00     0.138 A
HETATM   34  F1  UNL     1     -20.382  65.998  30.594  1.00  0.00    -0.204 F
HETATM   35  C21 UNL     1     -21.404  67.987  31.419  1.00  0.00     0.074 A
HETATM   36 CL2  UNL     1     -22.940  67.546  30.674  1.00  0.00    -0.081 Cl
HETATM   37  C22 UNL     1     -21.298  69.179  32.142  1.00  0.00     0.056 A
ENDBRANCH   4  30
TORSDOF 10
ENDMDL