MODEL 1
REMARK VINA RESULT: -7.584816882      0.000      0.000
REMARK  11 active torsions:
REMARK  status: ('A' for Active; 'I' for Inactive)
REMARK    1  A    between atoms: C2_2  and  O1_3
REMARK    2  A    between atoms: O1_3  and  C3_4
REMARK    3  A    between atoms: C3_4  and  C4_6
REMARK    4  A    between atoms: N1_8  and  C6_9
REMARK    5  A    between atoms: C9_12  and  C10_13
REMARK    6  A    between atoms: C10_13  and  O4_15
REMARK    7  A    between atoms: O4_15  and  C11_16
REMARK    8  A    between atoms: C11_16  and  C12_17
REMARK    9  A    between atoms: C12_17  and  C13_19
REMARK   10  A    between atoms: C19_25  and  C20_26
REMARK   11  A    between atoms: C23_29  and  C24_30
ROOT
HETATM    1  C4  UNL     1     -20.018  76.544  34.633  1.00  0.00     0.067 C
HETATM    2  C5  UNL     1     -20.605  77.591  34.105  1.00  0.00     0.108 C
HETATM    3  N1  UNL     1     -21.725  77.506  33.232  1.00  0.00    -0.365 N
HETATM    4  C8  UNL     1     -22.188  76.203  32.945  1.00  0.00     0.108 C
HETATM    5  C9  UNL     1     -21.639  75.112  33.452  1.00  0.00     0.067 C
HETATM    6  C19 UNL     1     -20.585  75.193  34.443  1.00  0.00     0.009 C
ENDROOT
BRANCH   5   7
HETATM    7  C10 UNL     1     -22.232  73.826  33.032  1.00  0.00     0.296 C
HETATM    8  O3  UNL     1     -22.275  73.522  31.819  1.00  0.00    -0.259 OA
BRANCH   7   9
HETATM    9  O4  UNL     1     -22.751  72.953  33.952  1.00  0.00    -0.310 OA
BRANCH   9  10
HETATM   10  C11 UNL     1     -23.143  71.633  33.616  1.00  0.00     0.257 C
BRANCH  10  11
HETATM   11  C12 UNL     1     -22.030  70.697  33.828  1.00  0.00     0.155 C
HETATM   12  O5  UNL     1     -22.019  70.068  34.897  1.00  0.00    -0.295 OA
BRANCH  11  13
HETATM   13  C13 UNL     1     -20.971  70.505  32.826  1.00  0.00     0.057 C
HETATM   14  C14 UNL     1     -21.621  70.001  31.532  1.00  0.00     0.012 C
HETATM   15  C15 UNL     1     -21.847  68.496  31.708  1.00  0.00     0.001 C
HETATM   16  C16 UNL     1     -20.544  67.743  31.616  1.00  0.00     0.000 C
HETATM   17  C17 UNL     1     -19.432  68.658  32.087  1.00  0.00     0.001 C
HETATM   18  C18 UNL     1     -19.923  69.509  33.227  1.00  0.00     0.012 C
ENDBRANCH  11  13
ENDBRANCH  10  11
ENDBRANCH   9  10
ENDBRANCH   7   9
ENDBRANCH   5   7
BRANCH   6  19
HETATM   19  C20 UNL     1     -19.631  74.095  34.528  1.00  0.00    -0.024 A
HETATM   20  C21 UNL     1     -19.655  73.088  35.458  1.00  0.00     0.013 A
HETATM   21  C22 UNL     1     -18.721  72.084  35.472  1.00  0.00     0.012 A
HETATM   22  C23 UNL     1     -17.700  72.024  34.557  1.00  0.00    -0.005 A
HETATM   23  C25 UNL     1     -17.650  73.024  33.609  1.00  0.00     0.012 A
HETATM   24  C26 UNL     1     -18.592  74.025  33.601  1.00  0.00     0.013 A
BRANCH  22  25
HETATM   25  C24 UNL     1     -16.659  70.947  34.538  1.00  0.00     0.216 C
HETATM   26 CL1  UNL     1     -17.083  69.557  35.533  1.00  0.00    -0.078 Cl
HETATM   27 CL2  UNL     1     -15.140  71.724  35.115  1.00  0.00    -0.078 Cl
HETATM   28 CL3  UNL     1     -16.387  70.462  32.836  1.00  0.00    -0.078 Cl
ENDBRANCH  22  25
ENDBRANCH   6  19
BRANCH   3  29
HETATM   29  C6  UNL     1     -22.353  78.716  32.704  1.00  0.00     0.123 C
HETATM   30  C7  UNL     1     -22.375  79.757  33.849  1.00  0.00     0.027 C
ENDBRANCH   3  29
BRANCH   1  31
HETATM   31  C3  UNL     1     -18.847  76.776  35.518  1.00  0.00     0.295 C
HETATM   32  O2  UNL     1     -17.855  77.439  35.116  1.00  0.00    -0.259 OA
BRANCH  31  33
HETATM   33  O1  UNL     1     -18.818  76.279  36.791  1.00  0.00    -0.318 OA
BRANCH  33  34
HETATM   34  C2  UNL     1     -17.700  76.012  37.574  1.00  0.00     0.174 C
HETATM   35  C1  UNL     1     -16.985  74.728  37.288  1.00  0.00     0.034 C
ENDBRANCH  33  34
ENDBRANCH  31  33
ENDBRANCH   1  31
TORSDOF 11
ENDMDL