MODEL 1
REMARK VINA RESULT: -8.561286462      0.000      0.000
REMARK  11 active torsions:
REMARK  status: ('A' for Active; 'I' for Inactive)
REMARK    1  A    between atoms: C2_2  and  C3_3
REMARK    2  A    between atoms: C3_3  and  C31_37
REMARK    3  A    between atoms: C4_4  and  C6_6
REMARK    4  A    between atoms: C6_6  and  C7_7
REMARK    5  A    between atoms: C7_7  and  C8_8
REMARK    6  A    between atoms: C17_17  and  C19_19
REMARK    7  A    between atoms: C19_19  and  O1_20
REMARK    8  A    between atoms: O1_20  and  C20_21
REMARK    9  A    between atoms: C20_21  and  C21_23
REMARK   10  A    between atoms: C23_25  and  C24_26
REMARK   11  A    between atoms: C24_26  and  O4_28
ROOT
HETATM    1  C8  UNL     1     -21.969  75.245  33.298  1.00  0.00    -0.010 C
HETATM    2  C9  UNL     1     -20.537  75.151  32.833  1.00  0.00     0.005 C
HETATM    3  C10 UNL     1     -19.771  74.075  33.593  1.00  0.00     0.010 C
HETATM    4  C11 UNL     1     -20.609  72.833  33.788  1.00  0.00     0.025 C
HETATM    5  C12 UNL     1     -21.709  72.900  32.790  1.00  0.00    -0.078 C
HETATM    6  C13 UNL     1     -21.846  72.105  31.743  1.00  0.00    -0.023 C
HETATM    7  C14 UNL     1     -20.794  71.048  31.556  1.00  0.00     0.032 C
HETATM    8  C15 UNL     1     -20.543  70.535  32.976  1.00  0.00    -0.004 C
HETATM    9  C16 UNL     1     -19.910  69.196  32.879  1.00  0.00     0.011 C
HETATM   10  C17 UNL     1     -19.832  71.562  33.782  1.00  0.00    -0.011 C
HETATM   11  C18 UNL     1     -19.794  71.023  35.221  1.00  0.00     0.018 C
HETATM   12  C30 UNL     1     -22.731  73.958  33.007  1.00  0.00     0.039 C
ENDROOT
BRANCH  10  13
HETATM   13  C19 UNL     1     -18.381  71.749  33.401  1.00  0.00     0.189 C
BRANCH  13  14
HETATM   14  O1  UNL     1     -17.601  71.681  34.583  1.00  0.00    -0.320 OA
BRANCH  14  15
HETATM   15  C20 UNL     1     -16.267  71.917  34.645  1.00  0.00     0.268 C
HETATM   16  O2  UNL     1     -15.442  71.056  34.279  1.00  0.00    -0.264 OA
BRANCH  15  17
HETATM   17  C21 UNL     1     -15.814  73.262  35.173  1.00  0.00     0.135 A
HETATM   18  C22 UNL     1     -16.436  73.542  36.468  1.00  0.00     0.067 A
HETATM   19  C23 UNL     1     -17.150  74.832  36.577  1.00  0.00     0.040 A
HETATM   20  C26 UNL     1     -17.257  75.708  35.612  1.00  0.00     0.017 A
HETATM   21  C27 UNL     1     -17.984  77.022  35.725  1.00  0.00     0.069 C
HETATM   22  N1  UNL     1     -16.626  75.382  34.354  1.00  0.00    -0.366 N
HETATM   23  C28 UNL     1     -15.985  74.299  34.154  1.00  0.00    -0.003 A
ATOM     24  H1  UNL     1     -16.697  76.052  33.588  1.00  0.00     0.165 HD
HETATM   25  C29 UNL     1     -15.379  74.092  32.788  1.00  0.00     0.064 C
BRANCH  19  26
HETATM   26  C24 UNL     1     -17.774  75.123  37.875  1.00  0.00     0.290 C
HETATM   27  O3  UNL     1     -17.285  75.931  38.667  1.00  0.00    -0.260 OA
BRANCH  26  28
HETATM   28  O4  UNL     1     -18.945  74.485  38.242  1.00  0.00    -0.323 OA
HETATM   29  C25 UNL     1     -20.102  74.563  37.433  1.00  0.00     0.213 C
ENDBRANCH  26  28
ENDBRANCH  19  26
ENDBRANCH  15  17
ENDBRANCH  14  15
ENDBRANCH  13  14
ENDBRANCH  10  13
BRANCH   1  30
HETATM   30  C7  UNL     1     -22.661  76.339  32.514  1.00  0.00     0.009 C
BRANCH  30  31
HETATM   31  C6  UNL     1     -21.674  77.093  31.687  1.00  0.00     0.034 C
BRANCH  31  32
HETATM   32  C4  UNL     1     -21.005  78.217  32.420  1.00  0.00    -0.073 C
HETATM   33  C3  UNL     1     -19.823  78.616  32.033  1.00  0.00     0.027 C
HETATM   34  C5  UNL     1     -21.761  78.865  33.540  1.00  0.00     0.044 C
BRANCH  33  35
HETATM   35  C2  UNL     1     -19.072  77.946  30.903  1.00  0.00     0.039 C
HETATM   36  C1  UNL     1     -17.941  77.120  31.437  1.00  0.00     0.010 C
ENDBRANCH  33  35
BRANCH  33  37
HETATM   37  C31 UNL     1     -19.113  79.746  32.670  1.00  0.00     0.414 C
HETATM   38  F1  UNL     1     -18.181  80.206  31.706  1.00  0.00    -0.166 F
HETATM   39  F2  UNL     1     -18.441  79.508  33.811  1.00  0.00    -0.166 F
HETATM   40  F3  UNL     1     -20.053  80.768  32.860  1.00  0.00    -0.166 F
ENDBRANCH  33  37
ENDBRANCH  31  32
ENDBRANCH  30  31
ENDBRANCH   1  30
TORSDOF 11
ENDMDL