MODEL 2
REMARK VINA RESULT: -8.414768451      3.962      6.365
REMARK  8 active torsions:
REMARK  status: ('A' for Active; 'I' for Inactive)
REMARK    1  A    between atoms: C6_8  and  C7_9
REMARK    2  A    between atoms: C11_14  and  C12_15
REMARK    3  A    between atoms: C12_15  and  C13_16
REMARK    4  A    between atoms: C12_15  and  C19_22
REMARK    5  A    between atoms: C13_16  and  C14_17
REMARK    6  A    between atoms: C14_17  and  C15_18
REMARK    7  A    between atoms: C25_29  and  O4_30
REMARK    8  A    between atoms: O4_30  and  C26_31
ROOT
HETATM    1  C12 UNL     1     -15.935  74.314  33.188  1.00  0.00     0.017 C
ENDROOT
BRANCH   1   2
HETATM    2  C11 UNL     1     -16.531  74.210  31.807  1.00  0.00    -0.004 C
HETATM    3  C10 UNL     1     -15.802  74.046  30.588  1.00  0.00     0.058 C
HETATM    4  C9  UNL     1     -14.893  72.894  30.389  1.00  0.00     0.166 C
HETATM    5  C29 UNL     1     -15.324  75.205  29.769  1.00  0.00     0.301 C
HETATM    6  C6  UNL     1     -14.144  72.805  29.118  1.00  0.00     0.071 C
HETATM    7  O3  UNL     1     -14.732  72.024  31.214  1.00  0.00    -0.292 OA
HETATM    8  C5  UNL     1     -14.667  73.581  27.976  1.00  0.00     0.071 C
HETATM    9  C2  UNL     1     -15.453  72.855  26.965  1.00  0.00     0.015 C
HETATM   10  C4  UNL     1     -15.500  74.783  28.277  1.00  0.00     0.219 C
HETATM   11  C1  UNL     1     -15.169  72.043  25.988  1.00  0.00     0.025 C
HETATM   12  C3  UNL     1     -16.850  73.258  27.261  1.00  0.00     0.289 C
HETATM   13  O1  UNL     1     -17.922  72.681  26.958  1.00  0.00    -0.260 OA
HETATM   14  O2  UNL     1     -16.826  74.471  27.981  1.00  0.00    -0.305 OA
HETATM   15  F1  UNL     1     -16.035  76.358  29.930  1.00  0.00    -0.198 F
HETATM   16  F2  UNL     1     -13.971  75.462  29.820  1.00  0.00    -0.198 F
BRANCH   6  17
HETATM   17  C7  UNL     1     -13.865  71.386  28.663  1.00  0.00     0.009 C
HETATM   18  C8  UNL     1     -12.394  71.110  28.468  1.00  0.00     0.006 C
ENDBRANCH   6  17
ENDBRANCH   1   2
BRANCH   1  19
HETATM   19  C13 UNL     1     -16.190  75.657  33.719  1.00  0.00     0.013 C
BRANCH  19  20
HETATM   20  C14 UNL     1     -17.130  76.629  33.136  1.00  0.00     0.028 C
BRANCH  20  21
HETATM   21  C15 UNL     1     -18.211  76.793  34.221  1.00  0.00    -0.025 C
HETATM   22  C16 UNL     1     -19.454  76.429  34.014  1.00  0.00    -0.091 C
HETATM   23  C17 UNL     1     -19.822  75.846  32.704  1.00  0.00     0.042 C
HETATM   24  C18 UNL     1     -20.479  76.593  35.066  1.00  0.00     0.042 C
ENDBRANCH  20  21
ENDBRANCH  19  20
ENDBRANCH   1  19
BRANCH   1  25
HETATM   25  C19 UNL     1     -16.502  73.196  34.027  1.00  0.00    -0.035 C
HETATM   26  C20 UNL     1     -15.410  72.152  34.183  1.00  0.00     0.016 C
HETATM   27  C21 UNL     1     -17.609  72.475  33.300  1.00  0.00     0.012 C
HETATM   28  C22 UNL     1     -18.962  72.513  33.848  1.00  0.00     0.028 C
HETATM   29  C23 UNL     1     -19.067  72.490  35.352  1.00  0.00     0.060 C
HETATM   30  C24 UNL     1     -18.670  71.200  35.972  1.00  0.00     0.035 C
HETATM   31 CL1  UNL     1     -20.771  72.806  35.768  1.00  0.00    -0.117 Cl
HETATM   32  C25 UNL     1     -18.268  73.676  35.817  1.00  0.00     0.155 C
HETATM   33  C28 UNL     1     -16.854  73.681  35.388  1.00  0.00     0.044 C
BRANCH  32  34
HETATM   34  O4  UNL     1     -18.349  73.666  37.249  1.00  0.00    -0.314 OA
BRANCH  34  35
HETATM   35  C26 UNL     1     -18.617  74.779  37.995  1.00  0.00     0.255 C
HETATM   36  C27 UNL     1     -17.618  75.874  38.101  1.00  0.00     0.126 C
HETATM   37  O5  UNL     1     -19.736  74.837  38.581  1.00  0.00    -0.266 OA
ENDBRANCH  34  35
ENDBRANCH  32  34
ENDBRANCH   1  25
TORSDOF 8
ENDMDL