MODEL 5
REMARK VINA RESULT: -7.641015065      1.963      3.283
REMARK  9 active torsions:
REMARK  status: ('A' for Active; 'I' for Inactive)
REMARK    1  A    between atoms: O1_2  and  C2_3
REMARK    2  A    between atoms: C5_6  and  C6_7
REMARK    3  A    between atoms: C6_7  and  O2_8
REMARK    4  A    between atoms: C7_10  and  C8_11
REMARK    5  A    between atoms: C7_10  and  C19_26
REMARK    6  A    between atoms: C9_12  and  C10_13
REMARK    7  A    between atoms: C12_15  and  O3_16
REMARK    8  A    between atoms: C14_18  and  O4_19
REMARK    9  A    between atoms: C16_21  and  O5_22
ROOT
HETATM    1  C6  UNL     1     -19.797  78.736  31.695  1.00  0.00     0.086 C
HETATM    2  C7  UNL     1     -21.104  78.400  32.139  1.00  0.00     0.000 C
ENDROOT
BRANCH   2   3
HETATM    3  C8  UNL     1     -21.385  76.930  32.303  1.00  0.00     0.015 C
HETATM    4  C9  UNL     1     -21.650  76.291  33.379  1.00  0.00     0.014 C
BRANCH   4   5
HETATM    5  C10 UNL     1     -21.917  74.833  33.412  1.00  0.00    -0.013 A
HETATM    6  C11 UNL     1     -22.783  74.224  32.519  1.00  0.00     0.052 A
HETATM    7  C12 UNL     1     -22.963  72.839  32.565  1.00  0.00     0.105 A
HETATM    8  C14 UNL     1     -22.313  72.062  33.470  1.00  0.00     0.136 A
HETATM    9  C16 UNL     1     -21.451  72.677  34.360  1.00  0.00     0.122 A
HETATM   10  C18 UNL     1     -21.253  74.054  34.331  1.00  0.00     0.057 A
HETATM   11 BR1  UNL     1     -20.047  74.871  35.588  1.00  0.00    -0.047 Br
BRANCH   7  12
HETATM   12  O3  UNL     1     -23.854  72.268  31.637  1.00  0.00    -0.353 OA
HETATM   13  C13 UNL     1     -24.007  72.716  30.327  1.00  0.00     0.210 C
ENDBRANCH   7  12
BRANCH   8  14
HETATM   14  O4  UNL     1     -22.532  70.696  33.470  1.00  0.00    -0.351 OA
HETATM   15  C15 UNL     1     -21.811  69.740  32.758  1.00  0.00     0.210 C
ENDBRANCH   8  14
BRANCH   9  16
HETATM   16  O5  UNL     1     -20.783  71.922  35.286  1.00  0.00    -0.352 OA
HETATM   17  C17 UNL     1     -19.505  71.426  35.032  1.00  0.00     0.210 C
ENDBRANCH   9  16
ENDBRANCH   4   5
ENDBRANCH   2   3
BRANCH   2  18
HETATM   18  C19 UNL     1     -22.039  79.130  32.736  1.00  0.00    -0.065 C
HETATM   19  C20 UNL     1     -22.143  79.962  33.947  1.00  0.00     0.036 C
HETATM   20  C21 UNL     1     -22.718  81.267  33.403  1.00  0.00     0.025 C
HETATM   21  C22 UNL     1     -23.587  80.861  32.255  1.00  0.00     0.086 C
HETATM   22 CL1  UNL     1     -25.294  81.311  32.542  1.00  0.00    -0.125 Cl
HETATM   23  C23 UNL     1     -23.435  79.368  32.135  1.00  0.00     0.055 C
ENDBRANCH   2  18
BRANCH   1  24
HETATM   24  C5  UNL     1     -19.169  79.939  31.230  1.00  0.00     0.001 A
HETATM   25  C4  UNL     1     -19.822  80.756  30.282  1.00  0.00     0.017 A
HETATM   26  C3  UNL     1     -19.315  81.979  29.900  1.00  0.00     0.041 A
HETATM   27  C2  UNL     1     -18.146  82.460  30.426  1.00  0.00     0.106 A
HETATM   28  C25 UNL     1     -17.508  81.677  31.344  1.00  0.00     0.150 A
HETATM   29  C24 UNL     1     -18.012  80.435  31.740  1.00  0.00     0.059 A
HETATM   30  F1  UNL     1     -16.335  82.107  31.899  1.00  0.00    -0.203 F
BRANCH  27  31
HETATM   31  O1  UNL     1     -17.615  83.695  30.050  1.00  0.00    -0.353 OA
HETATM   32  C1  UNL     1     -17.781  84.174  28.710  1.00  0.00     0.210 C
ENDBRANCH  27  31
ENDBRANCH   1  24
BRANCH   1  33
HETATM   33  O2  UNL     1     -18.919  77.732  31.690  1.00  0.00    -0.359 OA
ATOM     34  H2  UNL     1     -19.251  77.008  32.208  1.00  0.00     0.217 HD
ENDBRANCH   1  33
TORSDOF 9
ENDMDL