MODEL 2
REMARK VINA RESULT: -8.438716310      0.543      1.728
REMARK  11 active torsions:
REMARK  status: ('A' for Active; 'I' for Inactive)
REMARK    1  A    between atoms: C2_2  and  O1_4
REMARK    2  A    between atoms: O1_4  and  C4_5
REMARK    3  A    between atoms: C4_5  and  C5_7
REMARK    4  A    between atoms: C5_7  and  C6_8
REMARK    5  A    between atoms: C5_7  and  N1_18
REMARK    6  A    between atoms: C6_8  and  C7_9
REMARK    7  A    between atoms: N1_18  and  C13_19
REMARK    8  A    between atoms: N1_18  and  C20_31
REMARK    9  A    between atoms: C13_19  and  O3_20
REMARK   10  A    between atoms: C13_19  and  C14_22
REMARK   11  A    between atoms: C17_25  and  N2_26
ROOT
HETATM    1  N1  UNL     1     -17.850  73.737  35.023  1.00  0.00    -0.320 N
ENDROOT
BRANCH   1   2
HETATM    2  C5  UNL     1     -19.066  72.883  34.719  1.00  0.00     0.195 C
BRANCH   2   3
HETATM    3  C4  UNL     1     -20.313  73.443  35.184  1.00  0.00     0.283 C
HETATM    4  O2  UNL     1     -20.598  73.429  36.441  1.00  0.00    -0.263 OA
BRANCH   3   5
HETATM    5  O1  UNL     1     -21.286  74.015  34.408  1.00  0.00    -0.315 OA
BRANCH   5   6
HETATM    6  C2  UNL     1     -22.045  73.299  33.454  1.00  0.00     0.123 C
HETATM    7  C1  UNL     1     -22.967  72.278  34.035  1.00  0.00     0.040 C
HETATM    8  C3  UNL     1     -22.741  74.245  32.531  1.00  0.00     0.040 C
ENDBRANCH   5   6
ENDBRANCH   3   5
ENDBRANCH   2   3
BRANCH   2   9
HETATM    9  C6  UNL     1     -18.790  71.528  35.294  1.00  0.00     0.074 C
BRANCH   9  10
HETATM   10  C7  UNL     1     -18.856  70.416  34.326  1.00  0.00    -0.052 A
HETATM   11  C8  UNL     1     -17.755  69.606  34.151  1.00  0.00     0.032 A
HETATM   12  C9  UNL     1     -17.831  68.571  33.241  1.00  0.00     0.058 A
HETATM   13 CL1  UNL     1     -16.480  67.509  32.970  1.00  0.00    -0.082 Cl
HETATM   14  C10 UNL     1     -18.994  68.335  32.506  1.00  0.00     0.077 A
HETATM   15 CL2  UNL     1     -19.103  67.030  31.353  1.00  0.00    -0.081 Cl
HETATM   16  C11 UNL     1     -20.079  69.149  32.690  1.00  0.00     0.058 A
HETATM   17 CL3  UNL     1     -21.572  68.910  31.799  1.00  0.00    -0.082 Cl
HETATM   18  C12 UNL     1     -20.018  70.180  33.589  1.00  0.00     0.032 A
ENDBRANCH   9  10
ENDBRANCH   2   9
ENDBRANCH   1   2
BRANCH   1  19
HETATM   19  C13 UNL     1     -18.107  75.080  35.007  1.00  0.00     0.153 C
BRANCH  19  20
HETATM   20  O3  UNL     1     -18.387  75.527  36.248  1.00  0.00    -0.345 OA
ATOM     21  H3  UNL     1     -19.257  75.254  36.514  1.00  0.00     0.219 HD
ENDBRANCH  19  20
BRANCH  19  22
HETATM   22  C14 UNL     1     -18.172  76.180  34.083  1.00  0.00     0.015 A
HETATM   23  C15 UNL     1     -17.887  76.175  32.745  1.00  0.00     0.018 A
HETATM   24  C16 UNL     1     -17.935  77.310  31.940  1.00  0.00     0.037 A
HETATM   25  C17 UNL     1     -18.283  78.518  32.474  1.00  0.00     0.102 A
HETATM   26  C18 UNL     1     -18.581  78.596  33.798  1.00  0.00     0.037 A
HETATM   27  C19 UNL     1     -18.525  77.468  34.560  1.00  0.00     0.018 A
BRANCH  25  28
HETATM   28  N2  UNL     1     -18.351  79.706  31.711  1.00  0.00    -0.116 N
HETATM   29  O4  UNL     1     -17.475  80.564  31.854  1.00  0.00    -0.532 OA
HETATM   30  O5  UNL     1     -19.364  79.905  30.833  1.00  0.00    -0.532 OA
ENDBRANCH  25  28
ENDBRANCH  19  22
ENDBRANCH   1  19
BRANCH   1  31
HETATM   31  C20 UNL     1     -16.685  72.990  35.212  1.00  0.00    -0.008 C
HETATM   32  C21 UNL     1     -15.923  73.049  36.493  1.00  0.00     0.053 C
HETATM   33  C22 UNL     1     -15.154  71.734  36.614  1.00  0.00     0.006 C
HETATM   34  C23 UNL     1     -14.240  71.483  35.459  1.00  0.00     0.001 C
HETATM   35  C24 UNL     1     -14.818  71.787  34.116  1.00  0.00     0.006 C
HETATM   36  C25 UNL     1     -15.657  73.041  34.085  1.00  0.00     0.053 C
ENDBRANCH   1  31
TORSDOF 11
ENDMDL