MODEL 4
REMARK VINA RESULT: -8.193863866      0.900      1.467
REMARK  9 active torsions:
REMARK  status: ('A' for Active; 'I' for Inactive)
REMARK    1  A    between atoms: C2_2  and  O1_3
REMARK    2  A    between atoms: O1_3  and  C3_4
REMARK    3  A    between atoms: C3_4  and  C4_6
REMARK    4  A    between atoms: N1_8  and  C6_9
REMARK    5  A    between atoms: C6_9  and  C7_10
REMARK    6  A    between atoms: C6_9  and  C11_14
REMARK    7  A    between atoms: C7_10  and  C8_11
REMARK    8  A    between atoms: N2_16  and  C13_17
REMARK    9  A    between atoms: C22_31  and  C23_32
ROOT
HETATM    1  C6  UNL     1     -18.230  73.774  35.601  1.00  0.00     0.260 C
ENDROOT
BRANCH   1   2
HETATM    2  N1  UNL     1     -19.038  74.507  34.651  1.00  0.00     0.098 N
HETATM    3  C5  UNL     1     -18.361  75.452  33.871  1.00  0.00     0.288 C
HETATM    4  C4  UNL     1     -18.955  76.834  33.895  1.00  0.00     0.118 C
HETATM    5  C22 UNL     1     -20.418  76.939  33.776  1.00  0.00     0.002 C
HETATM    6  C21 UNL     1     -21.147  75.785  34.449  1.00  0.00     0.036 C
HETATM    7  C20 UNL     1     -20.256  74.923  35.269  1.00  0.00     0.273 C
BRANCH   4   8
HETATM    8  C3  UNL     1     -18.225  77.693  32.951  1.00  0.00     0.265 C
HETATM    9  O2  UNL     1     -17.660  77.222  31.903  1.00  0.00    -0.265 OA
BRANCH   8  10
HETATM   10  O1  UNL     1     -18.101  79.036  33.134  1.00  0.00    -0.322 OA
BRANCH  10  11
HETATM   11  C2  UNL     1     -18.432  80.015  32.168  1.00  0.00     0.174 C
HETATM   12  C1  UNL     1     -19.818  80.589  32.362  1.00  0.00     0.034 C
ENDBRANCH  10  11
ENDBRANCH   8  10
ENDBRANCH   4   8
BRANCH   5  13
HETATM   13  C23 UNL     1     -21.032  77.144  32.443  1.00  0.00     0.001 C
HETATM   14  C24 UNL     1     -22.472  76.886  32.267  1.00  0.00     0.005 C
ENDBRANCH   5  13
ENDBRANCH   1   2
BRANCH   1  15
HETATM   15  C7  UNL     1     -16.969  74.455  35.970  1.00  0.00     0.044 C
BRANCH  15  16
HETATM   16  C8  UNL     1     -17.040  75.201  37.285  1.00  0.00    -0.020 C
HETATM   17  C9  UNL     1     -18.273  74.771  38.074  1.00  0.00     0.009 C
HETATM   18  C10 UNL     1     -17.175  76.697  37.056  1.00  0.00     0.009 C
ENDBRANCH  15  16
ENDBRANCH   1  15
BRANCH   1  19
HETATM   19  C11 UNL     1     -18.085  72.418  35.027  1.00  0.00     0.028 A
HETATM   20  C12 UNL     1     -18.842  71.659  34.198  1.00  0.00     0.129 A
HETATM   21  N2  UNL     1     -18.260  70.462  33.988  1.00  0.00    -0.266 N
HETATM   22  N3  UNL     1     -17.138  70.487  34.696  1.00  0.00    -0.286 N
HETATM   23  C19 UNL     1     -16.972  71.635  35.345  1.00  0.00     0.104 A
ATOM     24  H3  UNL     1     -16.477  69.711  34.737  1.00  0.00     0.188 HD
HETATM   25 BR1  UNL     1     -15.502  72.136  36.486  1.00  0.00    -0.029 Br
BRANCH  21  26
HETATM   26  C13 UNL     1     -18.704  69.385  33.182  1.00  0.00     0.057 A
HETATM   27  C14 UNL     1     -17.850  68.367  32.825  1.00  0.00     0.033 A
HETATM   28  C15 UNL     1     -18.255  67.302  32.051  1.00  0.00     0.028 A
HETATM   29  C16 UNL     1     -19.572  67.246  31.611  1.00  0.00     0.055 A
HETATM   30 CL1  UNL     1     -20.102  65.885  30.617  1.00  0.00    -0.083 Cl
HETATM   31  C17 UNL     1     -20.441  68.248  31.951  1.00  0.00     0.058 A
HETATM   32 CL2  UNL     1     -22.091  68.157  31.387  1.00  0.00    -0.082 Cl
HETATM   33  C18 UNL     1     -20.004  69.320  32.740  1.00  0.00     0.057 A
ENDBRANCH  21  26
ENDBRANCH   1  19
TORSDOF 9
ENDMDL