MODEL 4
REMARK VINA RESULT: -8.895116567      3.256      5.460
REMARK  8 active torsions:
REMARK  status: ('A' for Active; 'I' for Inactive)
REMARK    1  A    between atoms: C2_2  and  C3_3
REMARK    2  A    between atoms: C3_3  and  C4_4
REMARK    3  A    between atoms: C4_4  and  C5_5
REMARK    4  A    between atoms: C5_5  and  C6_6
REMARK    5  A    between atoms: C6_6  and  C7_7
REMARK       I    between atoms: N1_9  and  C9_10
REMARK    6  A    between atoms: C16_20  and  C17_21
REMARK    7  A    between atoms: C17_21  and  O4_22
REMARK    8  A    between atoms: O4_22  and  C18_23
ROOT
HETATM    1  C7  UNL     1     -19.410  71.583  32.609  1.00  0.00     0.040 C
HETATM    2  C8  UNL     1     -18.901  72.004  31.197  1.00  0.00     0.133 C
HETATM    3  N1  UNL     1     -19.581  73.267  30.966  1.00  0.00    -0.352 N
HETATM    4  C9  UNL     1     -19.825  73.775  29.682  1.00  0.00     0.215 C
HETATM    5  C10 UNL     1     -20.518  75.062  29.420  1.00  0.00     0.117 C
HETATM    6  O1  UNL     1     -19.434  73.098  28.695  1.00  0.00    -0.274 OA
HETATM    7  C11 UNL     1     -20.017  74.017  32.127  1.00  0.00     0.129 C
HETATM    8  C12 UNL     1     -19.038  73.861  33.271  1.00  0.00     0.059 C
HETATM    9  C13 UNL     1     -18.601  72.430  33.523  1.00  0.00     0.086 C
HETATM   10  O2  UNL     1     -17.259  72.434  33.116  1.00  0.00    -0.326 OA
HETATM   11  C14 UNL     1     -16.444  73.255  33.795  1.00  0.00     0.419 C
HETATM   12  O3  UNL     1     -16.907  73.874  34.937  1.00  0.00    -0.300 OA
HETATM   13  C15 UNL     1     -18.057  73.440  35.577  1.00  0.00     0.061 C
HETATM   14  C16 UNL     1     -18.583  74.083  36.603  1.00  0.00     0.033 C
HETATM   15  C24 UNL     1     -18.600  72.187  34.970  1.00  0.00     0.037 C
HETATM   16  C25 UNL     1     -20.021  72.102  35.557  1.00  0.00     0.025 C
HETATM   17  C26 UNL     1     -17.761  71.128  35.568  1.00  0.00     0.022 C
HETATM   18  C27 UNL     1     -16.481  70.711  35.015  1.00  0.00     0.038 C
HETATM   19  C28 UNL     1     -15.310  71.639  35.052  1.00  0.00     0.059 C
HETATM   20  C29 UNL     1     -14.996  72.069  36.439  1.00  0.00     0.045 C
HETATM   21  C30 UNL     1     -14.137  70.711  34.625  1.00  0.00     0.045 C
HETATM   22  O5  UNL     1     -15.274  72.612  34.092  1.00  0.00    -0.328 OA
ENDROOT
BRANCH   1  23
HETATM   23  C6  UNL     1     -19.336  70.099  32.732  1.00  0.00     0.009 C
BRANCH  23  24
HETATM   24  C5  UNL     1     -20.683  69.438  32.928  1.00  0.00     0.001 C
BRANCH  24  25
HETATM   25  C4  UNL     1     -21.859  70.366  32.850  1.00  0.00     0.000 C
BRANCH  25  26
HETATM   26  C3  UNL     1     -22.557  70.377  34.190  1.00  0.00    -0.000 C
BRANCH  26  27
HETATM   27  C2  UNL     1     -23.471  71.582  34.315  1.00  0.00    -0.005 C
HETATM   28  C1  UNL     1     -23.137  72.567  33.223  1.00  0.00     0.005 C
ENDBRANCH  26  27
ENDBRANCH  25  26
ENDBRANCH  24  25
ENDBRANCH  23  24
ENDBRANCH   1  23
BRANCH  14  29
HETATM   29  C17 UNL     1     -17.993  75.320  37.154  1.00  0.00     0.206 C
BRANCH  29  30
HETATM   30  O4  UNL     1     -18.470  76.503  36.649  1.00  0.00    -0.344 OA
BRANCH  30  31
HETATM   31  C18 UNL     1     -18.822  76.907  35.407  1.00  0.00     0.111 A
HETATM   32  C19 UNL     1     -17.963  77.435  34.479  1.00  0.00     0.043 A
HETATM   33  C20 UNL     1     -18.393  77.831  33.209  1.00  0.00     0.048 A
HETATM   34  C21 UNL     1     -19.713  77.684  32.889  1.00  0.00     0.158 A
HETATM   35  F1  UNL     1     -20.165  78.061  31.662  1.00  0.00    -0.203 F
HETATM   36  C22 UNL     1     -20.621  77.159  33.785  1.00  0.00     0.196 A
HETATM   37  F2  UNL     1     -21.945  77.017  33.452  1.00  0.00    -0.199 F
HETATM   38  C23 UNL     1     -20.155  76.782  35.022  1.00  0.00     0.191 A
HETATM   39  F3  UNL     1     -21.041  76.271  35.894  1.00  0.00    -0.200 F
ENDBRANCH  30  31
ENDBRANCH  29  30
ENDBRANCH  14  29
TORSDOF 8
ENDMDL