MODEL 1
REMARK VINA RESULT: -8.723781064      0.000      0.000
REMARK  8 active torsions:
REMARK  status: ('A' for Active; 'I' for Inactive)
REMARK    1  A    between atoms: O1_2  and  C2_3
REMARK    2  A    between atoms: C6_8  and  C7_9
REMARK    3  A    between atoms: C7_9  and  C8_10
REMARK    4  A    between atoms: C8_10  and  C9_11
REMARK    5  A    between atoms: C9_11  and  C10_12
REMARK    6  A    between atoms: C15_19  and  O2_20
REMARK    7  A    between atoms: O2_20  and  C16_21
REMARK    8  A    between atoms: C25_32  and  C26_33
ROOT
HETATM    1  C7  UNL     1     -19.401  73.417  34.589  1.00  0.00     0.028 C
HETATM    2  C21 UNL     1     -19.881  73.084  35.999  1.00  0.00     0.098 C
HETATM    3  C22 UNL     1     -19.587  74.150  36.973  1.00  0.00     0.135 C
HETATM    4  O3  UNL     1     -20.449  74.702  37.663  1.00  0.00    -0.298 OA
HETATM    5  C23 UNL     1     -18.172  74.561  37.100  1.00  0.00     0.162 C
HETATM    6  C24 UNL     1     -17.626  74.744  35.744  1.00  0.00     0.167 C
HETATM    7  O4  UNL     1     -16.773  75.593  35.595  1.00  0.00    -0.292 OA
HETATM    8  C25 UNL     1     -18.044  73.963  34.556  1.00  0.00     0.047 C
ENDROOT
BRANCH   1   9
HETATM    9  C6  UNL     1     -20.408  74.399  34.084  1.00  0.00    -0.040 A
HETATM   10  C5  UNL     1     -21.461  74.004  33.262  1.00  0.00     0.032 A
HETATM   11  C4  UNL     1     -22.402  74.894  32.768  1.00  0.00     0.037 A
HETATM   12  C3  UNL     1     -22.317  76.230  33.090  1.00  0.00     0.060 A
HETATM   13 CL1  UNL     1     -23.698  74.287  31.744  1.00  0.00    -0.084 Cl
HETATM   14  C2  UNL     1     -21.290  76.656  33.899  1.00  0.00     0.070 A
HETATM   15  C28 UNL     1     -20.368  75.751  34.375  1.00  0.00     0.045 A
BRANCH  14  16
HETATM   16  O1  UNL     1     -21.238  78.013  34.197  1.00  0.00    -0.356 OA
HETATM   17  C1  UNL     1     -22.018  78.968  33.526  1.00  0.00     0.210 C
ENDBRANCH  14  16
ENDBRANCH   1   9
BRANCH   1  18
HETATM   18  C8  UNL     1     -19.597  72.151  33.790  1.00  0.00     0.025 C
BRANCH  18  19
HETATM   19  C9  UNL     1     -19.686  70.884  34.578  1.00  0.00     0.043 C
BRANCH  19  20
HETATM   20  C10 UNL     1     -19.273  69.788  33.615  1.00  0.00    -0.021 A
HETATM   21  C11 UNL     1     -20.141  69.436  32.601  1.00  0.00     0.033 A
HETATM   22  C12 UNL     1     -19.815  68.411  31.742  1.00  0.00     0.036 A
HETATM   23 CL2  UNL     1     -20.897  67.923  30.433  1.00  0.00    -0.084 Cl
HETATM   24  C13 UNL     1     -18.630  67.735  31.889  1.00  0.00     0.050 A
HETATM   25  C14 UNL     1     -17.784  68.105  32.905  1.00  0.00     0.069 A
HETATM   26 CL3  UNL     1     -16.319  67.183  33.099  1.00  0.00    -0.081 Cl
HETATM   27  C15 UNL     1     -18.084  69.150  33.799  1.00  0.00     0.097 A
BRANCH  27  28
HETATM   28  O2  UNL     1     -17.172  69.465  34.794  1.00  0.00    -0.344 OA
BRANCH  28  29
HETATM   29  C16 UNL     1     -16.586  70.745  34.824  1.00  0.00     0.129 C
HETATM   30  C17 UNL     1     -15.290  70.878  34.079  1.00  0.00     0.032 C
HETATM   31  C18 UNL     1     -14.751  72.219  34.622  1.00  0.00     0.002 C
HETATM   32  C19 UNL     1     -15.071  72.115  36.074  1.00  0.00     0.002 C
HETATM   33  C20 UNL     1     -16.256  71.210  36.201  1.00  0.00     0.032 C
ENDBRANCH  28  29
ENDBRANCH  27  28
ENDBRANCH  19  20
ENDBRANCH  18  19
ENDBRANCH   1  18
BRANCH   8  34
HETATM   34  C26 UNL     1     -17.616  74.569  33.292  1.00  0.00     0.156 C
HETATM   35  C27 UNL     1     -17.085  73.763  32.155  1.00  0.00     0.096 C
HETATM   36  O5  UNL     1     -17.684  75.769  33.128  1.00  0.00    -0.293 OA
ENDBRANCH   8  34
TORSDOF 8
ENDMDL