MODEL 1
REMARK VINA RESULT: -8.296234340      0.000      0.000
REMARK  8 active torsions:
REMARK  status: ('A' for Active; 'I' for Inactive)
REMARK    1  A    between atoms: S1_2  and  C1_4
REMARK    2  A    between atoms: S1_2  and  C8_12
REMARK    3  A    between atoms: C1_4  and  C2_5
REMARK    4  A    between atoms: C8_12  and  S2_14
REMARK    5  A    between atoms: C8_12  and  S3_22
REMARK    6  A    between atoms: S2_14  and  C9_15
REMARK    7  A    between atoms: C9_15  and  C10_16
REMARK    8  A    between atoms: S3_22  and  C16_25
ROOT
HETATM    1  C8  UNL     1     -20.159  72.621  32.892  1.00  0.00     0.294 C
HETATM    2 CL2  UNL     1     -19.493  73.914  31.829  1.00  0.00    -0.072 Cl
ENDROOT
BRANCH   1   3
HETATM    3  S1  UNL     1     -21.183  71.558  31.940  1.00  0.00     0.196 S
HETATM    4  O1  UNL     1     -22.480  72.350  31.700  1.00  0.00    -0.224 OA
HETATM    5  O2  UNL     1     -20.533  71.360  30.557  1.00  0.00    -0.224 OA
BRANCH   3   6
HETATM    6  C1  UNL     1     -21.656  70.039  32.626  1.00  0.00     0.182 C
BRANCH   6   7
HETATM    7  C2  UNL     1     -21.047  68.832  32.058  1.00  0.00    -0.044 A
HETATM    8  C3  UNL     1     -21.815  67.987  31.264  1.00  0.00     0.010 A
HETATM    9  C4  UNL     1     -21.298  66.824  30.734  1.00  0.00     0.024 A
HETATM   10  C5  UNL     1     -19.992  66.455  30.975  1.00  0.00     0.034 A
HETATM   11 CL1  UNL     1     -19.335  64.961  30.291  1.00  0.00    -0.084 Cl
HETATM   12  C6  UNL     1     -19.219  67.279  31.757  1.00  0.00     0.024 A
HETATM   13  C7  UNL     1     -19.761  68.457  32.287  1.00  0.00     0.010 A
ENDBRANCH   6   7
ENDBRANCH   3   6
ENDBRANCH   1   3
BRANCH   1  14
HETATM   14  S2  UNL     1     -18.917  71.818  33.875  1.00  0.00    -0.111 SA
BRANCH  14  15
HETATM   15  C9  UNL     1     -17.210  72.118  33.502  1.00  0.00     0.082 C
BRANCH  15  16
HETATM   16  C10 UNL     1     -16.542  73.077  34.497  1.00  0.00    -0.005 C
HETATM   17  C11 UNL     1     -16.898  72.723  35.903  1.00  0.00     0.005 C
HETATM   18  C12 UNL     1     -15.704  72.573  36.805  1.00  0.00     0.000 C
HETATM   19  C13 UNL     1     -14.827  71.484  36.254  1.00  0.00     0.000 C
HETATM   20  C14 UNL     1     -14.506  71.730  34.811  1.00  0.00     0.000 C
HETATM   21  C15 UNL     1     -15.050  73.041  34.320  1.00  0.00     0.005 C
ENDBRANCH  15  16
ENDBRANCH  14  15
ENDBRANCH   1  14
BRANCH   1  22
HETATM   22  S3  UNL     1     -21.220  73.549  34.064  1.00  0.00     0.222 S
HETATM   23  O3  UNL     1     -21.985  74.551  33.245  1.00  0.00    -0.219 OA
HETATM   24  O4  UNL     1     -22.213  72.611  34.682  1.00  0.00    -0.219 OA
BRANCH  22  25
HETATM   25  C16 UNL     1     -20.245  74.366  35.253  1.00  0.00     0.063 A
HETATM   26  C17 UNL     1     -20.281  73.950  36.589  1.00  0.00     0.025 A
HETATM   27  C18 UNL     1     -19.518  74.556  37.563  1.00  0.00     0.025 A
HETATM   28  C19 UNL     1     -18.684  75.604  37.261  1.00  0.00     0.034 A
HETATM   29 CL3  UNL     1     -17.693  76.406  38.468  1.00  0.00    -0.084 Cl
HETATM   30  C20 UNL     1     -18.647  76.018  35.934  1.00  0.00     0.025 A
HETATM   31  C21 UNL     1     -19.409  75.416  34.948  1.00  0.00     0.025 A
ENDBRANCH  22  25
ENDBRANCH   1  22
TORSDOF 8
ENDMDL