MODEL 3
REMARK VINA RESULT: -5.703490813      1.735      2.225
REMARK  5 active torsions:
REMARK  status: ('A' for Active; 'I' for Inactive)
REMARK    1  A    between atoms: C2_2  and  C3_3
REMARK    2  A    between atoms: C6_6  and  C7_7
REMARK    3  A    between atoms: C7_7  and  N1_8
REMARK    4  A    between atoms: N1_8  and  C8_11
REMARK    5  A    between atoms: C11_17  and  N3_18
ROOT
HETATM    1  N1  UNL     1      44.488  16.660   0.561  1.00  0.00    -0.062 N
ATOM      2  H11 UNL     1      45.507  16.664   0.587  1.00  0.00     0.278 HD
ATOM      3  H12 UNL     1      44.368  17.540   0.060  1.00  0.00     0.278 HD
ENDROOT
BRANCH   1   4
HETATM    4  C7  UNL     1      43.883  16.665   1.875  1.00  0.00     0.287 C
BRANCH   4   5
HETATM    5  C6  UNL     1      44.869  16.748   2.962  1.00  0.00     0.038 C
HETATM    6  C5  UNL     1      46.356  16.539   2.898  1.00  0.00     0.096 C
HETATM    7  C3  UNL     1      46.655  16.308   4.342  1.00  0.00     0.090 C
HETATM    8  C4  UNL     1      47.988  16.875   4.770  1.00  0.00     0.049 C
HETATM    9  O1  UNL     1      45.645  17.044   4.990  1.00  0.00    -0.269 OA
HETATM   10  N4  UNL     1      44.554  17.026   4.175  1.00  0.00    -0.272 N
ATOM     11  H4  UNL     1      43.602  17.212   4.491  1.00  0.00     0.193 HD
BRANCH   7  12
HETATM   12  C2  UNL     1      46.554  14.863   4.767  1.00  0.00     0.036 C
HETATM   13  C1  UNL     1      46.826  14.016   3.525  1.00  0.00     0.008 C
ENDBRANCH   7  12
ENDBRANCH   4   5
ENDBRANCH   1   4
BRANCH   1  14
HETATM   14  C8  UNL     1      43.939  15.520  -0.148  1.00  0.00     0.236 C
HETATM   15  C9  UNL     1      44.497  14.214   0.331  1.00  0.00     0.267 C
HETATM   16  N2  UNL     1      44.817  13.422  -0.842  1.00  0.00    -0.071 N
HETATM   17  C10 UNL     1      44.184  14.047  -1.958  1.00  0.00     0.260 C
ATOM     18  H22 UNL     1      45.820  13.290  -0.973  1.00  0.00     0.277 HD
ATOM     19  H21 UNL     1      44.567  12.438  -0.741  1.00  0.00     0.277 HD
HETATM   20  C11 UNL     1      44.303  15.535  -1.615  1.00  0.00     0.147 C
BRANCH  20  21
HETATM   21  N3  UNL     1      43.405  16.293  -2.410  1.00  0.00    -0.346 N
HETATM   22  S1  UNL     1      42.090  15.782  -2.547  1.00  0.00     0.037 SA
ATOM     23  H3  UNL     1      43.691  17.163  -2.860  1.00  0.00     0.169 HD
ENDBRANCH  20  21
ENDBRANCH   1  14
TORSDOF 5
ENDMDL