MODEL 5
REMARK VINA RESULT: -6.422963532      3.324      4.846
REMARK  5 active torsions:
REMARK  status: ('A' for Active; 'I' for Inactive)
REMARK    1  A    between atoms: C2_3  and  C3_4
REMARK    2  A    between atoms: C6_7  and  O1_8
REMARK    3  A    between atoms: C7_10  and  O2_11
REMARK    4  A    between atoms: C9_14  and  C10_15
REMARK    5  A    between atoms: C10_15  and  C11_16
ROOT
HETATM    1  N1  UNL     1      42.565  15.743  -2.597  1.00  0.00    -0.197 NA
HETATM    2  C1  UNL     1      43.077  15.913  -1.569  1.00  0.00     0.062 C
HETATM    3  C2  UNL     1      43.749  16.123  -0.272  1.00  0.00     0.151 C
ENDROOT
BRANCH   3   4
HETATM    4  C3  UNL     1      44.270  14.816   0.251  1.00  0.00    -0.010 C
HETATM    5  C4  UNL     1      44.742  14.648   1.478  1.00  0.00    -0.076 C
HETATM    6  C5  UNL     1      44.741  15.844   2.357  1.00  0.00     0.068 C
HETATM    7  C9  UNL     1      45.240  13.307   1.915  1.00  0.00     0.019 C
HETATM    8  C6  UNL     1      45.420  15.688   3.666  1.00  0.00     0.151 C
HETATM    9  C7  UNL     1      45.818  14.317   4.033  1.00  0.00     0.147 C
HETATM   10  C8  UNL     1      46.379  13.511   2.836  1.00  0.00     0.043 C
BRANCH   8  11
HETATM   11  O1  UNL     1      44.517  16.143   4.657  1.00  0.00    -0.393 OA
ATOM     12  H1  UNL     1      44.473  15.467   5.325  1.00  0.00     0.210 HD
ENDBRANCH   8  11
BRANCH   9  13
HETATM   13  O2  UNL     1      46.753  14.343   5.061  1.00  0.00    -0.393 OA
ATOM     14  H2  UNL     1      47.572  13.957   4.773  1.00  0.00     0.210 HD
ENDBRANCH   9  13
BRANCH   7  15
HETATM   15  C10 UNL     1      45.391  12.424   0.751  1.00  0.00     0.043 C
BRANCH  15  16
HETATM   16  C11 UNL     1      45.210  10.956   0.932  1.00  0.00     0.200 C
HETATM   17  C12 UNL     1      46.368  10.248   1.434  1.00  0.00     0.078 C
HETATM   18  N2  UNL     1      47.305   9.691   1.818  1.00  0.00    -0.196 NA
HETATM   19  C13 UNL     1      44.597  10.364  -0.237  1.00  0.00     0.078 C
HETATM   20  N3  UNL     1      44.081   9.872  -1.163  1.00  0.00    -0.196 NA
ENDBRANCH  15  16
ENDBRANCH   7  15
ENDBRANCH   3   4
TORSDOF 5
ENDMDL