MODEL 5
REMARK VINA RESULT: -6.069990733      1.241      1.820
REMARK  6 active torsions:
REMARK  status: ('A' for Active; 'I' for Inactive)
REMARK    1  A    between atoms: C2_2  and  C4_4
REMARK    2  A    between atoms: C5_7  and  C6_8
REMARK    3  A    between atoms: C6_8  and  C7_9
REMARK    4  A    between atoms: C7_9  and  O1_10
REMARK    5  A    between atoms: C10_14  and  C11_15
REMARK    6  A    between atoms: C11_15  and  N2_16
ROOT
HETATM    1  C7  UNL     1      45.496  10.993   0.859  1.00  0.00     0.064 C
HETATM    2  C8  UNL     1      45.620   9.527   0.581  1.00  0.00     0.038 C
HETATM    3  C9  UNL     1      44.490   9.068  -0.288  1.00  0.00     0.009 C
HETATM    4  C10 UNL     1      44.293   9.855  -1.535  1.00  0.00     0.011 C
HETATM    5  C12 UNL     1      44.578  11.309  -1.438  1.00  0.00     0.009 C
HETATM    6  C13 UNL     1      45.689  11.676  -0.509  1.00  0.00     0.038 C
ENDROOT
BRANCH   1   7
HETATM    7  C6  UNL     1      46.549  11.571   1.734  1.00  0.00     0.116 C
BRANCH   7   8
HETATM    8  C5  UNL     1      46.241  12.884   2.312  1.00  0.00     0.106 A
HETATM    9  N1  UNL     1      46.970  13.458   3.284  1.00  0.00    -0.326 N
HETATM   10  C4  UNL     1      46.462  14.637   3.607  1.00  0.00     0.151 A
ATOM     11  H1  UNL     1      47.797  13.044   3.712  1.00  0.00     0.169 HD
HETATM   12  O2  UNL     1      45.413  14.808   2.839  1.00  0.00    -0.223 OA
HETATM   13  N3  UNL     1      45.260  13.763   2.049  1.00  0.00    -0.247 N
ATOM     14  H3  UNL     1      44.522  13.643   1.355  1.00  0.00     0.196 HD
BRANCH  10  15
HETATM   15  C2  UNL     1      46.973  15.601   4.645  1.00  0.00     0.055 C
HETATM   16  C1  UNL     1      45.958  16.688   4.890  1.00  0.00     0.018 C
HETATM   17  C3  UNL     1      48.243  16.259   4.153  1.00  0.00     0.018 C
ENDBRANCH  10  15
ENDBRANCH   7   8
ENDBRANCH   1   7
BRANCH   1  18
HETATM   18  O1  UNL     1      44.200  11.259   1.320  1.00  0.00    -0.389 OA
ATOM     19  H1  UNL     1      43.551  10.671   0.953  1.00  0.00     0.210 HD
ENDBRANCH   1  18
BRANCH   4  20
HETATM   20  C11 UNL     1      45.030   9.243  -2.713  1.00  0.00     0.234 C
BRANCH  20  21
HETATM   21  N2  UNL     1      44.295   8.094  -3.169  1.00  0.00    -0.079 N
ATOM     22  H23 UNL     1      43.966   7.511  -2.400  1.00  0.00     0.274 HD
ATOM     23  H22 UNL     1      43.385   8.342  -3.558  1.00  0.00     0.274 HD
ATOM     24  H21 UNL     1      44.875   7.578  -3.831  1.00  0.00     0.274 HD
ENDBRANCH  20  21
ENDBRANCH   4  20
TORSDOF 6
ENDMDL