MODEL 1
REMARK VINA RESULT: -6.593302637      0.000      0.000
REMARK  6 active torsions:
REMARK  status: ('A' for Active; 'I' for Inactive)
REMARK    1  A    between atoms: C2_2  and  C3_3
REMARK    2  A    between atoms: C3_3  and  N1_4
REMARK    3  A    between atoms: C6_10  and  C7_11
REMARK    4  A    between atoms: N3_16  and  C10_17
REMARK    5  A    between atoms: C10_17  and  C11_18
REMARK    6  A    between atoms: C11_18  and  O1_19
ROOT
HETATM    1  C3  UNL     1      45.871  16.041   3.805  1.00  0.00     0.123 C
HETATM    2  C4  UNL     1      46.607  14.871   4.434  1.00  0.00     0.039 C
HETATM    3  C5  UNL     1      46.853  13.845   3.362  1.00  0.00     0.015 C
HETATM    4  C6  UNL     1      45.473  13.329   2.932  1.00  0.00     0.055 C
HETATM    5  C12 UNL     1      44.811  14.471   2.196  1.00  0.00     0.015 C
HETATM    6  C13 UNL     1      45.509  15.781   2.376  1.00  0.00     0.039 C
ENDROOT
BRANCH   4   7
HETATM    7  C7  UNL     1      45.714  12.162   2.070  1.00  0.00     0.101 A
HETATM    8  N2  UNL     1      44.779  11.598   1.286  1.00  0.00    -0.333 N
HETATM    9  C8  UNL     1      45.298  10.569   0.631  1.00  0.00     0.095 A
ATOM     10  H2  UNL     1      43.812  11.915   1.207  1.00  0.00     0.168 HD
HETATM   11  C9  UNL     1      44.592   9.701  -0.318  1.00  0.00     0.091 C
HETATM   12  N3  UNL     1      46.583  10.478   1.006  1.00  0.00    -0.277 N
HETATM   13  N4  UNL     1      46.827  11.447   1.879  1.00  0.00    -0.285 N
ATOM     14  H4  UNL     1      47.724  11.620   2.332  1.00  0.00     0.188 HD
BRANCH  12  15
HETATM   15  C10 UNL     1      47.478   9.458   0.492  1.00  0.00     0.176 C
BRANCH  15  16
HETATM   16  C11 UNL     1      47.743   8.401   1.536  1.00  0.00     0.185 C
BRANCH  16  17
HETATM   17  O1  UNL     1      48.444   9.023   2.575  1.00  0.00    -0.399 OA
ATOM     18  H1  UNL     1      49.145   8.433   2.825  1.00  0.00     0.209 HD
ENDBRANCH  16  17
ENDBRANCH  15  16
ENDBRANCH  12  15
ENDBRANCH   4   7
BRANCH   1  19
HETATM   19  C2  UNL     1      46.756  17.245   3.943  1.00  0.00     0.034 C
HETATM   20  C1  UNL     1      47.984  17.016   4.753  1.00  0.00     0.007 C
ENDBRANCH   1  19
BRANCH   1  21
HETATM   21  N1  UNL     1      44.653  16.243   4.564  1.00  0.00    -0.070 N
ATOM     22  H13 UNL     1      44.199  15.362   4.805  1.00  0.00     0.275 HD
ATOM     23  H12 UNL     1      44.840  16.574   5.511  1.00  0.00     0.275 HD
ATOM     24  H11 UNL     1      44.031  16.871   4.053  1.00  0.00     0.275 HD
ENDBRANCH   1  21
TORSDOF 6
ENDMDL