MODEL 2
REMARK VINA RESULT: -5.624420490      1.379      1.584
REMARK  4 active torsions:
REMARK  status: ('A' for Active; 'I' for Inactive)
REMARK    1  A    between atoms: N1_2  and  C2_5
REMARK    2  A    between atoms: C7_10  and  N2_11
REMARK    3  A    between atoms: N2_11  and  C8_13
REMARK    4  A    between atoms: C11_19  and  N4_20
ROOT
HETATM    1  N2  UNL     1      44.426  13.347   1.190  1.00  0.00    -0.360 N
ATOM      2  H2  UNL     1      43.423  13.524   1.118  1.00  0.00     0.162 HD
ENDROOT
BRANCH   1   3
HETATM    3  C7  UNL     1      45.051  12.307   0.354  1.00  0.00     0.114 C
HETATM    4  C2  UNL     1      44.655  12.533  -1.057  1.00  0.00     0.207 C
HETATM    5  C3  UNL     1      44.071  11.378  -1.790  1.00  0.00     0.035 C
HETATM    6  C4  UNL     1      44.648  10.048  -1.390  1.00  0.00     0.002 C
HETATM    7  C5  UNL     1      44.637   9.815   0.075  1.00  0.00     0.002 C
HETATM    8  C6  UNL     1      44.705  10.996   0.957  1.00  0.00     0.027 C
BRANCH   4   9
HETATM    9  N1  UNL     1      45.755  13.162  -1.758  1.00  0.00    -0.073 N
HETATM   10  C1  UNL     1      45.361  14.213  -2.629  1.00  0.00     0.267 C
ATOM     11  H12 UNL     1      46.302  12.465  -2.263  1.00  0.00     0.277 HD
ATOM     12  H11 UNL     1      46.460  13.490  -1.097  1.00  0.00     0.277 HD
ENDBRANCH   4   9
ENDBRANCH   1   3
BRANCH   1  13
HETATM   13  C8  UNL     1      45.143  14.032   2.009  1.00  0.00     0.202 A
HETATM   14  O1  UNL     1      46.064  13.698   2.853  1.00  0.00    -0.217 OA
HETATM   15  N3  UNL     1      46.552  14.698   3.505  1.00  0.00    -0.261 N
HETATM   16  C9  UNL     1      45.933  15.839   3.097  1.00  0.00     0.066 A
ATOM     17  H3  UNL     1      47.285  14.642   4.212  1.00  0.00     0.194 HD
HETATM   18  C10 UNL     1      46.184  17.223   3.586  1.00  0.00     0.073 C
HETATM   19  C11 UNL     1      45.031  15.426   2.143  1.00  0.00     0.179 A
BRANCH  19  20
HETATM   20  N4  UNL     1      44.137  16.242   1.410  1.00  0.00    -0.109 N
HETATM   21  O2  UNL     1      43.713  17.325   1.858  1.00  0.00    -0.532 OA
HETATM   22  O3  UNL     1      43.704  15.861   0.165  1.00  0.00    -0.532 OA
ENDBRANCH  19  20
ENDBRANCH   1  13
TORSDOF 4
ENDMDL