MODEL 1
REMARK VINA RESULT: -6.022220662      0.000      0.000
REMARK  5 active torsions:
REMARK  status: ('A' for Active; 'I' for Inactive)
REMARK    1  A    between atoms: O1_2  and  C2_3
REMARK    2  A    between atoms: C2_3  and  C3_5
REMARK    3  A    between atoms: C3_5  and  C4_6
REMARK    4  A    between atoms: C4_6  and  C5_7
REMARK    5  A    between atoms: C5_7  and  C6_9
ROOT
HETATM    1  C6  UNL     1      45.206  13.969   1.650  1.00  0.00     0.202 C
HETATM    2  C7  UNL     1      44.425  12.910   0.999  1.00  0.00     0.066 C
HETATM    3  C8  UNL     1      44.748  11.512   1.387  1.00  0.00     0.129 C
HETATM    4  O3  UNL     1      44.584  10.720   0.216  1.00  0.00    -0.385 OA
HETATM    5  C9  UNL     1      45.750  10.857  -0.493  1.00  0.00     0.168 C
HETATM    6  C10 UNL     1      46.828  10.928   0.535  1.00  0.00     0.035 C
HETATM    7  C11 UNL     1      46.130  11.230   1.844  1.00  0.00     0.042 C
HETATM    8  C12 UNL     1      46.693  12.358   2.614  1.00  0.00     0.239 C
HETATM    9  N1  UNL     1      45.768  13.415   2.897  1.00  0.00    -0.069 N
ATOM     10  H11 UNL     1      45.034  13.113   3.539  1.00  0.00     0.277 HD
ATOM     11  H12 UNL     1      46.190  14.140   3.476  1.00  0.00     0.277 HD
ENDROOT
BRANCH   1  12
HETATM   12  C5  UNL     1      44.578  15.256   1.967  1.00  0.00     0.089 C
HETATM   13  S1  UNL     1      44.017  16.088   0.422  1.00  0.00    -0.090 SA
BRANCH  12  14
HETATM   14  C4  UNL     1      45.251  16.224   2.834  1.00  0.00     0.028 C
BRANCH  14  15
HETATM   15  C3  UNL     1      44.776  16.453   4.211  1.00  0.00     0.112 C
BRANCH  15  16
HETATM   16  C2  UNL     1      45.921  16.119   5.141  1.00  0.00     0.258 C
HETATM   17  O2  UNL     1      46.125  14.945   5.523  1.00  0.00    -0.265 OA
BRANCH  16  18
HETATM   18  O1  UNL     1      46.785  17.105   5.602  1.00  0.00    -0.326 OA
HETATM   19  C1  UNL     1      48.028  17.366   4.972  1.00  0.00     0.213 C
ENDBRANCH  16  18
ENDBRANCH  15  16
ENDBRANCH  14  15
ENDBRANCH  12  14
ENDBRANCH   1  12
TORSDOF 5
ENDMDL