MODEL 4
REMARK VINA RESULT: -5.521114033      2.050      4.569
REMARK  5 active torsions:
REMARK  status: ('A' for Active; 'I' for Inactive)
REMARK    1  A    between atoms: C2_2  and  C3_3
REMARK    2  A    between atoms: C3_3  and  C4_4
REMARK    3  A    between atoms: C4_4  and  N1_5
REMARK    4  A    between atoms: N1_5  and  C5_6
REMARK    5  A    between atoms: N1_5  and  C9_17
ROOT
HETATM    1  C5  UNL     1      45.649  15.505   3.276  1.00  0.00     0.679 C
HETATM    2  N2  UNL     1      45.016  15.962   4.274  1.00  0.00    -0.226 N
ATOM      3  H2  UNL     1      44.010  15.799   4.272  1.00  0.00     0.177 HD
HETATM    4  C6  UNL     1      45.524  16.674   5.398  1.00  0.00     0.145 C
HETATM    5  C7  UNL     1      46.950  17.117   5.266  1.00  0.00     0.097 C
HETATM    6  C8  UNL     1      47.701  16.377   4.246  1.00  0.00     0.092 C
HETATM    7  N3  UNL     1      48.997  16.364   4.323  1.00  0.00    -0.388 N
ATOM      8  H31 UNL     1      49.519  15.849   3.613  1.00  0.00     0.157 HD
ATOM      9  H32 UNL     1      49.457  16.864   5.084  1.00  0.00     0.157 HD
HETATM   10  N4  UNL     1      47.065  15.686   3.194  1.00  0.00    -0.181 N
ATOM     11  H4  UNL     1      47.598  15.328   2.402  1.00  0.00     0.185 HD
ENDROOT
BRANCH   1  12
HETATM   12  N1  UNL     1      44.988  14.806   2.222  1.00  0.00    -0.189 N
BRANCH  12  13
HETATM   13  C4  UNL     1      43.809  15.337   1.569  1.00  0.00     0.144 C
BRANCH  13  14
HETATM   14  C3  UNL     1      44.260  16.422   0.618  1.00  0.00     0.020 C
BRANCH  14  15
HETATM   15  C2  UNL     1      43.920  16.067  -0.823  1.00  0.00    -0.003 C
HETATM   16  C1  UNL     1      44.614  17.084  -1.702  1.00  0.00     0.005 C
ENDBRANCH  14  15
ENDBRANCH  13  14
ENDBRANCH  12  13
BRANCH  12  17
HETATM   17  C9  UNL     1      45.526  13.538   1.813  1.00  0.00     0.264 C
HETATM   18  C10 UNL     1      44.448  12.638   1.256  1.00  0.00     0.222 C
HETATM   19  O1  UNL     1      44.947  11.493   0.656  1.00  0.00    -0.385 OA
HETATM   20  C11 UNL     1      46.283  11.342   0.984  1.00  0.00     0.194 C
HETATM   21  C12 UNL     1      46.535  11.620   2.445  1.00  0.00     0.196 C
HETATM   22  O2  UNL     1      46.115  12.853   2.874  1.00  0.00    -0.362 OA
ENDBRANCH  12  17
ENDBRANCH   1  12
TORSDOF 5
ENDMDL