MODEL 2
REMARK VINA RESULT: -5.679347281      2.384      2.849
REMARK  6 active torsions:
REMARK  status: ('A' for Active; 'I' for Inactive)
REMARK    1  A    between atoms: O1_1  and  C1_3
REMARK    2  A    between atoms: C1_3  and  C2_4
REMARK    3  A    between atoms: C1_3  and  S2_10
REMARK    4  A    between atoms: C2_4  and  C3_5
REMARK    5  A    between atoms: C3_5  and  N1_6
REMARK    6  A    between atoms: S2_10  and  C5_11
ROOT
HETATM    1  N1  UNL     1      45.309  11.596  -0.802  1.00  0.00    -0.367 N
ATOM      2  H1  UNL     1      46.170  11.529  -0.260  1.00  0.00     0.165 HD
HETATM    3  C4  UNL     1      44.707  10.528  -1.068  1.00  0.00     0.169 C
HETATM    4  S1  UNL     1      44.050   9.077  -1.258  1.00  0.00    -0.074 SA
ENDROOT
BRANCH   1   5
HETATM    5  C3  UNL     1      44.884  12.890  -1.199  1.00  0.00     0.087 C
BRANCH   5   6
HETATM    6  C2  UNL     1      44.515  13.841  -0.374  1.00  0.00     0.032 C
BRANCH   6   7
HETATM    7  C1  UNL     1      44.856  13.745   1.051  1.00  0.00     0.204 C
BRANCH   7   8
HETATM    8  O1  UNL     1      44.220  12.637   1.664  1.00  0.00    -0.381 OA
ATOM      9  H1  UNL     1      44.849  11.969   1.913  1.00  0.00     0.211 HD
ENDBRANCH   7   8
BRANCH   7  10
HETATM   10  S2  UNL     1      44.361  15.254   1.873  1.00  0.00    -0.123 SA
BRANCH  10  11
HETATM   11  C5  UNL     1      45.419  15.810   3.174  1.00  0.00     0.020 C
HETATM   12  C6  UNL     1      44.813  16.004   4.549  1.00  0.00     0.054 C
HETATM   13  C7  UNL     1      46.018  15.814   5.437  1.00  0.00     0.188 C
HETATM   14  C8  UNL     1      46.593  14.538   4.793  1.00  0.00     0.041 C
HETATM   15  N2  UNL     1      47.027  16.767   5.062  1.00  0.00    -0.066 N
HETATM   16  C9  UNL     1      46.717  15.093   3.391  1.00  0.00     0.037 C
HETATM   17  C10 UNL     1      47.335  16.445   3.672  1.00  0.00     0.193 C
HETATM   18  C11 UNL     1      46.219  17.036   2.800  1.00  0.00     0.054 C
ATOM     19  H22 UNL     1      46.759  17.738   5.216  1.00  0.00     0.278 HD
ATOM     20  H21 UNL     1      47.840  16.775   5.678  1.00  0.00     0.278 HD
ENDBRANCH  10  11
ENDBRANCH   7  10
ENDBRANCH   6   7
ENDBRANCH   5   6
ENDBRANCH   1   5
TORSDOF 6
ENDMDL