MODEL 2
REMARK VINA RESULT: -5.366894622      1.348      1.596
REMARK  8 active torsions:
REMARK  status: ('A' for Active; 'I' for Inactive)
REMARK    1  A    between atoms: N1_2  and  C2_3
REMARK    2  A    between atoms: N1_2  and  C9_13
REMARK    3  A    between atoms: C2_3  and  C3_4
REMARK    4  A    between atoms: N2_8  and  C7_9
REMARK    5  A    between atoms: C7_9  and  C8_10
REMARK    6  A    between atoms: C8_10  and  O1_11
REMARK    7  A    between atoms: C9_13  and  S1_18
REMARK    8  A    between atoms: N3_14  and  O2_16
ROOT
HETATM    1  C2  UNL     1      44.478  13.395   1.736  1.00  0.00     0.101 C
ENDROOT
BRANCH   1   2
HETATM    2  N1  UNL     1      45.013  12.499   0.795  1.00  0.00    -0.342 N
HETATM    3  C1  UNL     1      44.945  12.897  -0.628  1.00  0.00     0.157 C
BRANCH   2   4
HETATM    4  C9  UNL     1      45.662  11.292   1.028  1.00  0.00     0.177 C
HETATM    5  N3  UNL     1      46.666  11.310   1.857  1.00  0.00    -0.246 N
ATOM      6  H3  UNL     1      46.924  12.197   2.289  1.00  0.00     0.196 HD
BRANCH   5   7
HETATM    7  O2  UNL     1      47.388  10.200   2.172  1.00  0.00    -0.288 OA
ATOM      8  H2  UNL     1      48.143   9.914   1.673  1.00  0.00     0.244 HD
ENDBRANCH   5   7
BRANCH   4   9
HETATM    9  S1  UNL     1      45.220   9.773   0.235  1.00  0.00    -0.007 SA
HETATM   10  S2  UNL     1      46.562   9.233  -1.295  1.00  0.00    -0.005 SA
ENDBRANCH   4   9
ENDBRANCH   2   4
ENDBRANCH   1   2
BRANCH   1  11
HETATM   11  C3  UNL     1      45.004  14.769   1.858  1.00  0.00     0.261 C
HETATM   12  C4  UNL     1      44.219  15.859   1.220  1.00  0.00     0.043 C
HETATM   13  C5  UNL     1      44.204  17.010   2.170  1.00  0.00     0.033 C
HETATM   14  C6  UNL     1      45.032  16.576   3.352  1.00  0.00     0.273 C
HETATM   15  N2  UNL     1      45.302  15.176   3.211  1.00  0.00     0.100 N
BRANCH  15  16
HETATM   16  C7  UNL     1      46.674  14.935   3.555  1.00  0.00     0.299 C
BRANCH  16  17
HETATM   17  C8  UNL     1      47.226  15.959   4.508  1.00  0.00     0.194 C
BRANCH  17  18
HETATM   18  O1  UNL     1      48.416  16.446   3.921  1.00  0.00    -0.399 OA
ATOM     19  H1  UNL     1      48.320  16.323   2.984  1.00  0.00     0.209 HD
ENDBRANCH  17  18
ENDBRANCH  16  17
ENDBRANCH  15  16
ENDBRANCH   1  11
TORSDOF 8
ENDMDL