MODEL 3
REMARK VINA RESULT: -6.240766293      1.113      2.002
REMARK  10 active torsions:
REMARK  status: ('A' for Active; 'I' for Inactive)
REMARK    1  A    between atoms: C10_10  and  O1_11
REMARK    2  A    between atoms: O1_11  and  C11_12
REMARK    3  A    between atoms: C22_26  and  C23_27
REMARK       I    between atoms: C23_27  and  N1_29
REMARK    4  A    between atoms: N1_29  and  C24_31
REMARK    5  A    between atoms: C24_31  and  C25_32
REMARK    6  A    between atoms: C25_32  and  C26_33
REMARK    7  A    between atoms: C26_33  and  N2_34
REMARK    8  A    between atoms: C29_37  and  C30_38
REMARK    9  A    between atoms: C30_38  and  O6_39
REMARK   10  A    between atoms: N3_41  and  O7_43
ROOT
HETATM    1  C1  UNL     1      52.364   5.496   0.776  1.00  0.00     0.015 C
HETATM    2  C2  UNL     1      52.237   6.556   1.854  1.00  0.00     0.020 C
HETATM    3  C3  UNL     1      51.217   7.582   1.569  1.00  0.00     0.015 C
HETATM    4  C4  UNL     1      49.858   6.915   1.323  1.00  0.00     0.004 C
HETATM    5  C5  UNL     1      48.976   7.920   0.706  1.00  0.00    -0.003 C
HETATM    6  C6  UNL     1      48.350   7.523  -0.616  1.00  0.00     0.006 C
HETATM    7  C7  UNL     1      46.967   8.055  -0.799  1.00  0.00     0.008 C
HETATM    8  C8  UNL     1      46.716   9.431  -0.301  1.00  0.00     0.025 C
HETATM    9  C9  UNL     1      47.103  10.542  -1.205  1.00  0.00     0.068 C
HETATM   10  C10 UNL     1      48.272  11.202  -0.523  1.00  0.00     0.266 C
HETATM   11  O4  UNL     1      48.506  10.572   0.661  1.00  0.00    -0.350 OA
HETATM   12  C15 UNL     1      47.434   9.773   0.991  1.00  0.00     0.068 C
HETATM   13  C16 UNL     1      46.550  10.523   1.946  1.00  0.00     0.047 C
HETATM   14  C17 UNL     1      47.854   8.438   1.566  1.00  0.00     0.025 C
HETATM   15  C18 UNL     1      48.353   8.483   2.966  1.00  0.00     0.009 C
HETATM   16  C19 UNL     1      48.520   7.047   3.415  1.00  0.00     0.015 C
HETATM   17  C20 UNL     1      49.384   6.195   2.531  1.00  0.00    -0.007 C
HETATM   18  C21 UNL     1      48.664   4.939   2.031  1.00  0.00     0.021 C
HETATM   19  C22 UNL     1      50.525   5.683   3.384  1.00  0.00     0.029 C
HETATM   20  C29 UNL     1      51.791   5.827   3.138  1.00  0.00     0.011 C
ENDROOT
BRANCH  19  21
HETATM   21  C23 UNL     1      50.125   4.751   4.466  1.00  0.00     0.249 C
HETATM   22  O5  UNL     1      49.809   5.261   5.592  1.00  0.00    -0.268 OA
HETATM   23  N1  UNL     1      50.052   3.353   4.396  1.00  0.00    -0.357 N
ATOM     24  H1  UNL     1      50.302   2.859   3.540  1.00  0.00     0.162 HD
BRANCH  23  25
HETATM   25  C24 UNL     1      49.600   2.606   5.609  1.00  0.00     0.124 C
BRANCH  25  26
HETATM   26  C25 UNL     1      48.991   1.300   5.298  1.00  0.00     0.050 C
BRANCH  26  27
HETATM   27  C26 UNL     1      48.990   0.980   3.843  1.00  0.00     0.273 C
BRANCH  27  28
HETATM   28  N2  UNL     1      47.768   0.647   3.203  1.00  0.00     0.080 N
HETATM   29  C27 UNL     1      47.023  -0.190   4.207  1.00  0.00     0.309 C
HETATM   30  C28 UNL     1      46.849   1.751   2.983  1.00  0.00     0.309 C
ENDBRANCH  27  28
ENDBRANCH  26  27
ENDBRANCH  25  26
ENDBRANCH  23  25
ENDBRANCH  19  21
BRANCH  20  31
HETATM   31  C30 UNL     1      52.901   5.543   4.030  1.00  0.00     0.167 C
HETATM   32  N3  UNL     1      53.554   4.401   3.752  1.00  0.00    -0.247 N
ATOM     33  H3  UNL     1      53.236   3.834   2.965  1.00  0.00     0.196 HD
BRANCH  31  34
HETATM   34  O6  UNL     1      53.420   6.192   5.093  1.00  0.00    -0.344 OA
ATOM     35  H6  UNL     1      53.074   6.418   5.948  1.00  0.00     0.219 HD
ENDBRANCH  31  34
BRANCH  32  36
HETATM   36  O7  UNL     1      54.614   3.973   4.473  1.00  0.00    -0.288 OA
ATOM     37  H7  UNL     1      54.747   3.060   4.695  1.00  0.00     0.244 HD
ENDBRANCH  32  36
ENDBRANCH  20  31
BRANCH  10  38
HETATM   38  O1  UNL     1      49.384  11.095  -1.376  1.00  0.00    -0.308 OA
BRANCH  38  39
HETATM   39  C11 UNL     1      50.566  10.964  -0.674  1.00  0.00     0.415 C
HETATM   40  O2  UNL     1      51.209  12.201  -0.740  1.00  0.00    -0.339 OA
HETATM   41  C12 UNL     1      52.573  12.103  -0.464  1.00  0.00     0.175 C
HETATM   42  C13 UNL     1      53.260  11.209  -1.466  1.00  0.00     0.053 C
HETATM   43  C14 UNL     1      52.247  10.287  -2.097  1.00  0.00     0.175 C
HETATM   44  O3  UNL     1      51.304   9.916  -1.169  1.00  0.00    -0.339 OA
ENDBRANCH  38  39
ENDBRANCH  10  38
TORSDOF 10
ENDMDL