MODEL 5
REMARK VINA RESULT: -7.353027721      1.657      2.145
REMARK  14 active torsions:
REMARK  status: ('A' for Active; 'I' for Inactive)
REMARK    1  A    between atoms: C2_2  and  C3_3
REMARK    2  A    between atoms: C2_2  and  C11_13
REMARK    3  A    between atoms: C4_4  and  C5_5
REMARK    4  A    between atoms: C5_5  and  C7_7
REMARK    5  A    between atoms: C8_8  and  C9_9
REMARK    6  A    between atoms: C9_9  and  O2_11
REMARK    7  A    between atoms: C19_21  and  O3_22
REMARK    8  A    between atoms: C21_25  and  O4_26
REMARK    9  A    between atoms: C22_28  and  C23_29
REMARK   10  A    between atoms: C23_29  and  O5_30
REMARK   11  A    between atoms: O5_30  and  C24_31
REMARK   12  A    between atoms: C24_31  and  C25_33
REMARK   13  A    between atoms: C30_38  and  O7_39
REMARK   14  A    between atoms: O7_39  and  C31_40
ROOT
HETATM    1  C11 UNL     1      45.586  11.027   0.739  1.00  0.00     0.051 C
HETATM    2  C12 UNL     1      44.781   9.851   0.478  1.00  0.00     0.016 C
HETATM    3  C13 UNL     1      44.522   9.276  -0.883  1.00  0.00     0.028 C
HETATM    4  C14 UNL     1      43.662  10.074  -1.787  1.00  0.00    -0.026 C
HETATM    5  C15 UNL     1      43.290  10.092  -3.020  1.00  0.00    -0.001 C
HETATM    6  C16 UNL     1      42.391  11.002  -3.815  1.00  0.00    -0.077 C
HETATM    7  C17 UNL     1      40.966  10.518  -3.902  1.00  0.00     0.044 C
HETATM    8  C18 UNL     1      42.496  12.456  -3.703  1.00  0.00     0.052 A
HETATM    9  C19 UNL     1      43.198  13.311  -4.665  1.00  0.00     0.134 A
HETATM   10  C20 UNL     1      43.859  13.038  -3.356  1.00  0.00     0.059 A
HETATM   11  C21 UNL     1      43.811  14.080  -2.337  1.00  0.00     0.156 C
HETATM   12  C22 UNL     1      44.494  13.939  -1.026  1.00  0.00    -0.028 C
HETATM   13  C29 UNL     1      45.273  13.072  -0.522  1.00  0.00     0.013 C
HETATM   14  C30 UNL     1      46.082  11.852  -0.452  1.00  0.00     0.163 C
ENDROOT
BRANCH   1  15
HETATM   15  C2  UNL     1      46.729  10.808   1.753  1.00  0.00    -0.061 C
HETATM   16  C1  UNL     1      46.883  11.560   2.713  1.00  0.00     0.019 C
BRANCH  15  17
HETATM   17  C3  UNL     1      47.602   9.640   1.556  1.00  0.00     0.003 C
HETATM   18  C4  UNL     1      48.029   8.728   2.322  1.00  0.00    -0.018 C
BRANCH  18  19
HETATM   19  C5  UNL     1      48.934   7.652   1.779  1.00  0.00     0.027 C
HETATM   20  C6  UNL     1      48.190   6.797   0.779  1.00  0.00     0.018 C
BRANCH  19  21
HETATM   21  C7  UNL     1      50.093   8.243   1.116  1.00  0.00    -0.012 C
HETATM   22  C8  UNL     1      50.804   7.750   0.120  1.00  0.00     0.079 C
BRANCH  22  23
HETATM   23  C9  UNL     1      51.943   8.511  -0.410  1.00  0.00     0.282 C
HETATM   24  O1  UNL     1      52.936   7.822  -0.826  1.00  0.00    -0.260 OA
BRANCH  23  25
HETATM   25  O2  UNL     1      52.040   9.857  -0.492  1.00  0.00    -0.323 OA
HETATM   26  C10 UNL     1      52.899  10.506  -1.444  1.00  0.00     0.213 C
ENDBRANCH  23  25
ENDBRANCH  22  23
ENDBRANCH  19  21
ENDBRANCH  18  19
ENDBRANCH  15  17
ENDBRANCH   1  15
BRANCH  14  27
HETATM   27  O7  UNL     1      46.346  11.192  -1.608  1.00  0.00    -0.312 OA
BRANCH  27  28
HETATM   28  C31 UNL     1      47.483  10.866  -2.274  1.00  0.00     0.255 C
HETATM   29  C32 UNL     1      48.225   9.578  -2.050  1.00  0.00     0.126 C
HETATM   30  O8  UNL     1      47.926  11.684  -3.114  1.00  0.00    -0.266 OA
ENDBRANCH  27  28
ENDBRANCH  14  27
BRANCH  12  31
HETATM   31  C23 UNL     1      44.061  15.134  -0.167  1.00  0.00     0.215 C
BRANCH  31  32
HETATM   32  O5  UNL     1      44.164  15.007   1.196  1.00  0.00    -0.317 OA
BRANCH  32  33
HETATM   33  C24 UNL     1      44.492  16.034   2.025  1.00  0.00     0.266 C
HETATM   34  O6  UNL     1      43.888  17.122   1.795  1.00  0.00    -0.264 OA
BRANCH  33  35
HETATM   35  C25 UNL     1      45.442  16.049   3.134  1.00  0.00     0.037 C
HETATM   36  C26 UNL     1      46.410  17.183   3.019  1.00  0.00     0.025 C
HETATM   37  C27 UNL     1      46.225  14.751   3.260  1.00  0.00     0.025 C
HETATM   38  C28 UNL     1      44.681  16.271   4.452  1.00  0.00     0.025 C
ENDBRANCH  33  35
ENDBRANCH  32  33
ENDBRANCH  31  32
ENDBRANCH  12  31
BRANCH  11  39
HETATM   39  O4  UNL     1      44.124  15.289  -2.947  1.00  0.00    -0.391 OA
ATOM     40  H4  UNL     1      44.398  15.106  -3.837  1.00  0.00     0.210 HD
ENDBRANCH  11  39
BRANCH   9  41
HETATM   41  O3  UNL     1      42.628  14.575  -4.856  1.00  0.00    -0.394 OA
ATOM     42  H3  UNL     1      42.070  14.651  -5.621  1.00  0.00     0.210 HD
ENDBRANCH   9  41
TORSDOF 14
ENDMDL