MODEL 3
REMARK VINA RESULT: -5.929308442      5.691      9.268
REMARK  12 active torsions:
REMARK  status: ('A' for Active; 'I' for Inactive)
REMARK    1  A    between atoms: C2_2  and  C4_4
REMARK    2  A    between atoms: C5_5  and  C6_6
REMARK    3  A    between atoms: C11_11  and  O1_12
REMARK    4  A    between atoms: C16_19  and  C17_20
REMARK    5  A    between atoms: C17_20  and  C18_21
REMARK    6  A    between atoms: C18_21  and  C19_22
REMARK    7  A    between atoms: C24_28  and  O4_30
REMARK    8  A    between atoms: C26_32  and  C27_33
REMARK    9  A    between atoms: C27_33  and  N1_34
REMARK   10  A    between atoms: C27_33  and  O7_40
REMARK       I    between atoms: N1_34  and  C28_36
REMARK   11  A    between atoms: C28_36  and  O6_38
REMARK   12  A    between atoms: O7_40  and  C30_41
ROOT
HETATM    1  C6  UNL     1      45.554  12.603   0.395  1.00  0.00    -0.037 C
HETATM    2  C7  UNL     1      46.529  11.561   0.943  1.00  0.00     0.037 C
HETATM    3  C8  UNL     1      47.173  12.208   2.177  1.00  0.00     0.019 C
HETATM    4  C9  UNL     1      47.542  10.921   0.158  1.00  0.00    -0.019 C
HETATM    5  C10 UNL     1      48.588  11.140  -0.600  1.00  0.00     0.001 C
HETATM    6  C11 UNL     1      49.599  10.410  -1.394  1.00  0.00     0.141 C
HETATM    7  C12 UNL     1      49.119   9.610  -2.592  1.00  0.00     0.047 C
HETATM    8  C13 UNL     1      48.437  10.414  -3.660  1.00  0.00     0.057 C
HETATM    9  C14 UNL     1      49.447  10.556  -4.835  1.00  0.00     0.018 C
HETATM   10  C15 UNL     1      47.246   9.798  -4.298  1.00  0.00     0.168 C
HETATM   11  O2  UNL     1      47.371   9.092  -5.282  1.00  0.00    -0.294 OA
HETATM   12  C16 UNL     1      45.807   9.975  -3.809  1.00  0.00     0.151 A
HETATM   13  O3  UNL     1      45.862   9.406  -2.591  1.00  0.00    -0.357 OA
HETATM   14  C23 UNL     1      45.705  10.762  -2.758  1.00  0.00     0.204 A
HETATM   15  C24 UNL     1      44.734  11.273  -1.747  1.00  0.00     0.115 C
HETATM   16  C25 UNL     1      44.120  10.194  -0.983  1.00  0.00     0.054 C
HETATM   17  C26 UNL     1      45.249  12.523  -1.023  1.00  0.00     0.037 C
ENDROOT
BRANCH  17  18
HETATM   18  C27 UNL     1      45.028  13.768  -1.853  1.00  0.00     0.165 C
BRANCH  18  19
HETATM   19  N1  UNL     1      45.443  13.841  -3.187  1.00  0.00    -0.282 N
HETATM   20  C28 UNL     1      46.799  13.834  -3.568  1.00  0.00     0.366 C
HETATM   21  O5  UNL     1      47.789  13.771  -2.801  1.00  0.00    -0.238 OA
ATOM     22  H1  UNL     1      44.732  13.903  -3.916  1.00  0.00     0.173 HD
BRANCH  20  23
HETATM   23  O6  UNL     1      47.102  13.901  -4.933  1.00  0.00    -0.309 OA
HETATM   24  C29 UNL     1      46.459  13.072  -5.885  1.00  0.00     0.215 C
ENDBRANCH  20  23
ENDBRANCH  18  19
BRANCH  18  25
HETATM   25  O7  UNL     1      43.719  14.330  -1.666  1.00  0.00    -0.261 OA
BRANCH  25  26
HETATM   26  C30 UNL     1      43.370  15.633  -1.674  1.00  0.00     0.261 C
HETATM   27  C31 UNL     1      44.384  16.703  -1.530  1.00  0.00     0.126 C
HETATM   28  O8  UNL     1      42.154  15.847  -1.810  1.00  0.00    -0.265 OA
ENDBRANCH  25  26
ENDBRANCH  18  25
ENDBRANCH  17  18
BRANCH   1  29
HETATM   29  C5  UNL     1      44.685  13.145   1.425  1.00  0.00     0.009 C
HETATM   30  C4  UNL     1      44.272  14.454   1.822  1.00  0.00     0.006 C
BRANCH  30  31
HETATM   31  C2  UNL     1      45.074  15.492   2.461  1.00  0.00    -0.071 C
HETATM   32  C1  UNL     1      46.102  15.375   3.269  1.00  0.00     0.018 C
HETATM   33  C3  UNL     1      44.706  16.914   2.189  1.00  0.00     0.047 C
ENDBRANCH  30  31
ENDBRANCH   1  29
BRANCH  15  34
HETATM   34  O4  UNL     1      43.658  11.668  -2.614  1.00  0.00    -0.382 OA
ATOM     35  H4  UNL     1      42.987  11.059  -2.330  1.00  0.00     0.211 HD
ENDBRANCH  15  34
BRANCH  12  36
HETATM   36  C17 UNL     1      44.800   9.714  -4.881  1.00  0.00     0.053 C
BRANCH  36  37
HETATM   37  C18 UNL     1      44.006   8.483  -4.509  1.00  0.00     0.030 C
BRANCH  37  38
HETATM   38  C19 UNL     1      42.604   8.898  -4.228  1.00  0.00    -0.025 C
HETATM   39  C20 UNL     1      41.941   8.395  -3.199  1.00  0.00    -0.091 C
HETATM   40  C21 UNL     1      40.547   8.847  -2.966  1.00  0.00     0.042 C
HETATM   41  C22 UNL     1      42.603   7.401  -2.310  1.00  0.00     0.042 C
ENDBRANCH  37  38
ENDBRANCH  36  37
ENDBRANCH  12  36
BRANCH   6  42
HETATM   42  O1  UNL     1      50.442  11.405  -2.003  1.00  0.00    -0.392 OA
ATOM     43  H1  UNL     1      50.775  11.023  -2.807  1.00  0.00     0.210 HD
ENDBRANCH   6  42
TORSDOF 12
ENDMDL