MODEL 5
REMARK VINA RESULT: -7.548150411      1.868      4.171
REMARK  16 active torsions:
REMARK  status: ('A' for Active; 'I' for Inactive)
REMARK    1  A    between atoms: C2_2  and  O2_4
REMARK    2  A    between atoms: O2_4  and  C3_5
REMARK    3  A    between atoms: C7_9  and  C8_10
REMARK    4  A    between atoms: C8_10  and  O3_11
REMARK    5  A    between atoms: O3_11  and  C9_12
REMARK    6  A    between atoms: C9_12  and  C10_14
REMARK    7  A    between atoms: C10_14  and  C11_15
REMARK    8  A    between atoms: C11_15  and  C13_17
REMARK    9  A    between atoms: C13_17  and  C14_18
REMARK   10  A    between atoms: C14_18  and  C15_19
REMARK   11  A    between atoms: C16_20  and  C17_21
REMARK   12  A    between atoms: C17_21  and  O5_24
REMARK   13  A    between atoms: C23_29  and  C24_30
REMARK   14  A    between atoms: C25_31  and  C26_32
REMARK   15  A    between atoms: C26_32  and  O6_35
REMARK   16  A    between atoms: C32_41  and  O8_42
ROOT
HETATM    1  C3  UNL     1      48.695   4.709   1.713  1.00  0.00     0.171 C
HETATM    2  C4  UNL     1      48.229   6.045   2.129  1.00  0.00     0.053 C
HETATM    3  C5  UNL     1      49.203   6.993   2.704  1.00  0.00     0.018 C
HETATM    4  C6  UNL     1      48.895   7.204   4.185  1.00  0.00     0.023 C
HETATM    5  C7  UNL     1      48.972   8.290   2.033  1.00  0.00    -0.048 C
HETATM    6  C20 UNL     1      49.847   8.429   1.045  1.00  0.00    -0.013 C
HETATM    7  C21 UNL     1      50.723   7.235   0.979  1.00  0.00     0.050 C
HETATM    8  C22 UNL     1      50.116   6.127   0.156  1.00  0.00     0.056 C
HETATM    9  C23 UNL     1      49.949   4.825   0.880  1.00  0.00     0.107 C
HETATM   10  O7  UNL     1      50.968   4.493   1.734  1.00  0.00    -0.360 OA
HETATM   11  C29 UNL     1      51.352   5.544   2.565  1.00  0.00     0.088 C
HETATM   12  C30 UNL     1      52.775   5.844   2.002  1.00  0.00     0.049 C
HETATM   13  C31 UNL     1      51.609   5.000   3.945  1.00  0.00     0.049 C
HETATM   14  C32 UNL     1      50.634   6.789   2.442  1.00  0.00     0.106 C
ENDROOT
BRANCH   5  15
HETATM   15  C8  UNL     1      47.936   9.302   2.334  1.00  0.00     0.213 C
BRANCH  15  16
HETATM   16  O3  UNL     1      47.293   9.696   1.155  1.00  0.00    -0.314 OA
BRANCH  16  17
HETATM   17  C9  UNL     1      46.976  11.020   0.818  1.00  0.00     0.283 C
HETATM   18  O4  UNL     1      47.710  11.520  -0.066  1.00  0.00    -0.260 OA
BRANCH  17  19
HETATM   19  C10 UNL     1      45.892  11.684   1.481  1.00  0.00     0.089 C
BRANCH  19  20
HETATM   20  C11 UNL     1      45.820  12.841   2.023  1.00  0.00    -0.049 C
HETATM   21  C12 UNL     1      44.660  13.704   1.520  1.00  0.00     0.049 C
BRANCH  20  22
HETATM   22  C13 UNL     1      46.645  13.372   3.054  1.00  0.00     0.062 C
BRANCH  22  23
HETATM   23  C14 UNL     1      46.388  14.083   4.062  1.00  0.00    -0.128 C
BRANCH  23  24
HETATM   24  C15 UNL     1      46.090  14.874   5.168  1.00  0.00     0.054 C
HETATM   25  C16 UNL     1      46.429  16.148   5.288  1.00  0.00     0.018 C
BRANCH  25  26
HETATM   26  C17 UNL     1      47.166  16.885   4.260  1.00  0.00     0.069 C
HETATM   27  C18 UNL     1      48.533  16.282   4.038  1.00  0.00     0.050 C
HETATM   28  C19 UNL     1      46.366  16.962   2.989  1.00  0.00     0.050 C
BRANCH  26  29
HETATM   29  O5  UNL     1      47.408  18.219   4.711  1.00  0.00    -0.387 OA
ATOM     30  H5  UNL     1      47.950  18.197   5.491  1.00  0.00     0.211 HD
ENDBRANCH  26  29
ENDBRANCH  25  26
ENDBRANCH  23  24
ENDBRANCH  22  23
ENDBRANCH  20  22
ENDBRANCH  19  20
ENDBRANCH  17  19
ENDBRANCH  16  17
ENDBRANCH  15  16
ENDBRANCH   5  15
BRANCH  14  31
HETATM   31  O8  UNL     1      51.332   7.794   3.154  1.00  0.00    -0.385 OA
ATOM     32  H8  UNL     1      52.257   7.587   3.091  1.00  0.00     0.210 HD
ENDBRANCH  14  31
BRANCH   1  33
HETATM   33  O2  UNL     1      48.905   3.931   2.893  1.00  0.00    -0.313 OA
BRANCH  33  34
HETATM   34  C2  UNL     1      48.268   2.757   3.158  1.00  0.00     0.255 C
HETATM   35  C1  UNL     1      47.169   2.336   2.233  1.00  0.00     0.126 C
HETATM   36  O1  UNL     1      48.631   2.098   4.156  1.00  0.00    -0.266 OA
ENDBRANCH  33  34
ENDBRANCH   1  33
BRANCH   9  37
HETATM   37  C24 UNL     1      49.818   3.804  -0.208  1.00  0.00     0.012 C
HETATM   38  C25 UNL     1      48.709   3.631  -0.914  1.00  0.00     0.009 C
BRANCH  38  39
HETATM   39  C26 UNL     1      48.521   2.647  -1.989  1.00  0.00     0.068 C
HETATM   40  C27 UNL     1      49.398   2.939  -3.195  1.00  0.00     0.050 C
HETATM   41  C28 UNL     1      48.702   1.215  -1.575  1.00  0.00     0.050 C
BRANCH  39  42
HETATM   42  O6  UNL     1      47.193   2.770  -2.453  1.00  0.00    -0.387 OA
ATOM     43  H6  UNL     1      46.641   2.953  -1.702  1.00  0.00     0.211 HD
ENDBRANCH  39  42
ENDBRANCH  38  39
ENDBRANCH   9  37
TORSDOF 16
ENDMDL