MODEL 5
REMARK VINA RESULT: -7.132164545      2.548      9.145
REMARK  13 active torsions:
REMARK  status: ('A' for Active; 'I' for Inactive)
REMARK    1  A    between atoms: C2_2  and  O2_4
REMARK    2  A    between atoms: O2_4  and  C3_5
REMARK    3  A    between atoms: C3_5  and  C4_6
REMARK    4  A    between atoms: C3_5  and  C20_24
REMARK    5  A    between atoms: C4_6  and  C6_8
REMARK    6  A    between atoms: C6_8  and  C7_9
REMARK    7  A    between atoms: C7_9  and  C9_11
REMARK    8  A    between atoms: C13_16  and  C14_17
REMARK    9  A    between atoms: C20_24  and  C22_26
REMARK   10  A    between atoms: C22_26  and  C23_27
REMARK   11  A    between atoms: C30_35  and  O6_36
REMARK   12  A    between atoms: C31_38  and  O7_39
REMARK   13  A    between atoms: C32_41  and  O8_42
ROOT
HETATM    1  C3  UNL     1      45.052  11.692  -1.707  1.00  0.00     0.143 C
ENDROOT
BRANCH   1   2
HETATM    2  O2  UNL     1      44.862  13.027  -2.308  1.00  0.00    -0.315 OA
BRANCH   2   3
HETATM    3  C2  UNL     1      43.670  13.383  -2.901  1.00  0.00     0.255 C
HETATM    4  C1  UNL     1      42.899  12.343  -3.645  1.00  0.00     0.126 C
HETATM    5  O1  UNL     1      43.278  14.561  -2.793  1.00  0.00    -0.266 OA
ENDBRANCH   2   3
ENDBRANCH   1   2
BRANCH   1   6
HETATM    6  C4  UNL     1      46.359  11.204  -2.064  1.00  0.00     0.012 C
HETATM    7  C5  UNL     1      46.563  10.648  -3.446  1.00  0.00     0.012 C
BRANCH   6   8
HETATM    8  C6  UNL     1      47.611  11.813  -1.581  1.00  0.00     0.014 C
BRANCH   8   9
HETATM    9  C7  UNL     1      48.883  11.051  -1.568  1.00  0.00     0.018 C
HETATM   10  C8  UNL     1      50.094  11.701  -2.149  1.00  0.00     0.013 C
BRANCH   9  11
HETATM   11  C9  UNL     1      49.235  10.490  -0.207  1.00  0.00     0.195 C
HETATM   12  O3  UNL     1      48.214   9.795   0.377  1.00  0.00    -0.367 OA
HETATM   13  C10 UNL     1      48.235   8.453   0.448  1.00  0.00     0.062 C
HETATM   14  C11 UNL     1      47.273   8.011   1.560  1.00  0.00     0.046 C
HETATM   15  C12 UNL     1      47.457   7.972  -0.823  1.00  0.00     0.046 C
HETATM   16  C13 UNL     1      49.484   7.737   0.455  1.00  0.00     0.049 C
HETATM   17  C18 UNL     1      50.398   8.280  -0.674  1.00  0.00     0.092 C
HETATM   18  C19 UNL     1      50.501   9.731  -0.337  1.00  0.00     0.156 C
HETATM   19  O4  UNL     1      51.622  10.204  -0.186  1.00  0.00    -0.295 OA
BRANCH  16  20
HETATM   20  C14 UNL     1      50.360   7.532   1.576  1.00  0.00    -0.017 C
HETATM   21  C15 UNL     1      50.648   6.670   2.463  1.00  0.00    -0.091 C
HETATM   22  C16 UNL     1      51.749   7.016   3.470  1.00  0.00     0.042 C
HETATM   23  C17 UNL     1      50.045   5.360   2.690  1.00  0.00     0.042 C
ENDBRANCH  16  20
ENDBRANCH   9  11
ENDBRANCH   8   9
ENDBRANCH   6   8
ENDBRANCH   1   6
BRANCH   1  24
HETATM   24  C20 UNL     1      44.691  11.899  -0.227  1.00  0.00     0.034 C
HETATM   25  C21 UNL     1      44.761  10.515   0.360  1.00  0.00     0.017 C
BRANCH  24  26
HETATM   26  C22 UNL     1      45.455  12.965   0.354  1.00  0.00    -0.014 C
BRANCH  26  27
HETATM   27  C23 UNL     1      45.069  13.792   1.509  1.00  0.00    -0.041 C
HETATM   28  C24 UNL     1      45.751  13.619   2.816  1.00  0.00     0.083 C
HETATM   29  C25 UNL     1      46.752  12.502   2.901  1.00  0.00     0.023 C
HETATM   30  C26 UNL     1      46.348  14.853   3.377  1.00  0.00     0.145 C
HETATM   31  O5  UNL     1      47.513  14.689   3.682  1.00  0.00    -0.296 OA
HETATM   32  C27 UNL     1      45.916  16.227   3.666  1.00  0.00     0.042 C
HETATM   33  C28 UNL     1      45.859  16.415   5.195  1.00  0.00     0.026 C
HETATM   34  C29 UNL     1      47.070  17.144   3.232  1.00  0.00     0.026 C
HETATM   35  C30 UNL     1      44.617  16.678   3.148  1.00  0.00     0.165 C
HETATM   36  C31 UNL     1      43.817  15.734   2.322  1.00  0.00     0.180 C
HETATM   37  C32 UNL     1      44.696  15.231   1.199  1.00  0.00     0.179 C
BRANCH  35  38
HETATM   38  O6  UNL     1      44.856  17.814   2.331  1.00  0.00    -0.392 OA
ATOM     39  H6  UNL     1      44.069  18.346   2.348  1.00  0.00     0.210 HD
ENDBRANCH  35  38
BRANCH  36  40
HETATM   40  O7  UNL     1      43.138  14.761   3.004  1.00  0.00    -0.390 OA
ATOM     41  H7  UNL     1      42.342  15.035   3.444  1.00  0.00     0.210 HD
ENDBRANCH  36  40
BRANCH  37  42
HETATM   42  O8  UNL     1      43.932  15.184   0.027  1.00  0.00    -0.389 OA
ATOM     43  H8  UNL     1      43.121  14.749   0.263  1.00  0.00     0.210 HD
ENDBRANCH  37  42
ENDBRANCH  26  27
ENDBRANCH  24  26
ENDBRANCH   1  24
TORSDOF 13
ENDMDL