MODEL 5
REMARK VINA RESULT: -7.699878942      1.075      1.610
REMARK  14 active torsions:
REMARK  status: ('A' for Active; 'I' for Inactive)
REMARK    1  A    between atoms: O1_2  and  C2_3
REMARK    2  A    between atoms: C2_3  and  C3_5
REMARK    3  A    between atoms: C3_5  and  C5_7
REMARK    4  A    between atoms: C7_9  and  C8_10
REMARK    5  A    between atoms: C9_11  and  C11_13
REMARK    6  A    between atoms: C11_13  and  C12_14
REMARK    7  A    between atoms: C11_13  and  C16_19
REMARK    8  A    between atoms: C18_21  and  O4_22
REMARK    9  A    between atoms: O4_22  and  C19_23
REMARK   10  A    between atoms: C19_23  and  C20_24
REMARK   11  A    between atoms: C22_26  and  C23_27
REMARK   12  A    between atoms: C29_34  and  O5_35
REMARK   13  A    between atoms: C31_38  and  O6_39
REMARK   14  A    between atoms: C32_41  and  O7_43
ROOT
HETATM    1  C23 UNL     1      45.111  14.586   2.952  1.00  0.00     0.055 A
HETATM    2  C24 UNL     1      46.382  13.822   3.071  1.00  0.00    -0.013 A
HETATM    3  C25 UNL     1      47.270  14.558   3.674  1.00  0.00     0.019 A
HETATM    4  C26 UNL     1      46.671  15.840   3.996  1.00  0.00     0.041 A
HETATM    5  C27 UNL     1      47.375  16.906   4.673  1.00  0.00     0.099 C
HETATM    6  N1  UNL     1      47.926  17.763   5.210  1.00  0.00    -0.191 NA
HETATM    7  C28 UNL     1      45.431  15.883   3.593  1.00  0.00     0.008 A
ENDROOT
BRANCH   1   8
HETATM    8  C22 UNL     1      44.751  14.809   1.535  1.00  0.00    -0.010 C
HETATM    9  C20 UNL     1      44.544  13.931   0.601  1.00  0.00    -0.063 C
HETATM   10  C21 UNL     1      44.188  14.474  -0.765  1.00  0.00     0.045 C
BRANCH   9  11
HETATM   11  C19 UNL     1      44.642  12.484   0.830  1.00  0.00     0.202 C
BRANCH  11  12
HETATM   12  O4  UNL     1      44.976  11.790  -0.338  1.00  0.00    -0.379 OA
BRANCH  12  13
HETATM   13  C18 UNL     1      44.870  10.430  -0.193  1.00  0.00     0.151 C
HETATM   14  C17 UNL     1      46.142   9.676  -0.208  1.00  0.00     0.043 C
HETATM   15  C16 UNL     1      47.209  10.142  -1.161  1.00  0.00     0.037 C
HETATM   16  C32 UNL     1      46.862  10.089  -2.586  1.00  0.00     0.085 C
HETATM   17  C31 UNL     1      45.530   9.445  -2.932  1.00  0.00     0.155 C
HETATM   18  C33 UNL     1      46.885  11.461  -3.268  1.00  0.00     0.049 C
HETATM   19  C30 UNL     1      44.331  10.218  -2.530  1.00  0.00     0.069 C
HETATM   20  C29 UNL     1      43.834   9.831  -1.155  1.00  0.00     0.149 C
BRANCH  15  21
HETATM   21  C11 UNL     1      48.434   9.343  -0.781  1.00  0.00     0.056 C
BRANCH  21  22
HETATM   22  C9  UNL     1      48.198   8.594   0.505  1.00  0.00    -0.075 C
HETATM   23  C8  UNL     1      48.159   7.279   0.538  1.00  0.00     0.003 C
HETATM   24  C10 UNL     1      48.029   9.347   1.762  1.00  0.00     0.044 C
BRANCH  23  25
HETATM   25  C7  UNL     1      47.950   6.595   1.809  1.00  0.00     0.004 C
HETATM   26  C5  UNL     1      48.909   5.844   2.315  1.00  0.00    -0.071 C
HETATM   27  C6  UNL     1      50.202   5.692   1.588  1.00  0.00     0.044 C
BRANCH  26  28
HETATM   28  C3  UNL     1      48.759   5.129   3.597  1.00  0.00     0.110 C
HETATM   29  C4  UNL     1      49.314   5.997   4.730  1.00  0.00     0.025 C
BRANCH  28  30
HETATM   30  C2  UNL     1      49.355   3.781   3.618  1.00  0.00     0.266 C
HETATM   31  O2  UNL     1      50.358   3.534   4.328  1.00  0.00    -0.265 OA
BRANCH  30  32
HETATM   32  O1  UNL     1      48.825   2.757   2.858  1.00  0.00    -0.326 OA
HETATM   33  C1  UNL     1      47.448   2.433   2.822  1.00  0.00     0.213 C
ENDBRANCH  30  32
ENDBRANCH  28  30
ENDBRANCH  26  28
ENDBRANCH  23  25
ENDBRANCH  21  22
BRANCH  21  34
HETATM   34  C12 UNL     1      49.674  10.124  -0.651  1.00  0.00    -0.025 A
HETATM   35  C13 UNL     1      49.886  11.471  -0.726  1.00  0.00     0.034 A
HETATM   36  C14 UNL     1      51.235  11.653  -0.499  1.00  0.00     0.142 A
HETATM   37  O3  UNL     1      51.820  10.498  -0.297  1.00  0.00    -0.334 OA
HETATM   38  C15 UNL     1      50.921   9.575  -0.382  1.00  0.00     0.149 A
ENDBRANCH  21  34
ENDBRANCH  15  21
BRANCH  16  39
HETATM   39  O7  UNL     1      47.770   9.303  -3.288  1.00  0.00    -0.387 OA
ATOM     40  H7  UNL     1      48.126   9.778  -4.030  1.00  0.00     0.210 HD
ENDBRANCH  16  39
BRANCH  17  41
HETATM   41  O6  UNL     1      45.503   8.117  -2.577  1.00  0.00    -0.392 OA
ATOM     42  H6  UNL     1      46.308   7.642  -2.752  1.00  0.00     0.210 HD
ENDBRANCH  17  41
BRANCH  20  43
HETATM   43  O5  UNL     1      43.805   8.476  -0.947  1.00  0.00    -0.393 OA
ATOM     44  H5  UNL     1      43.750   8.054  -1.797  1.00  0.00     0.210 HD
ENDBRANCH  20  43
ENDBRANCH  12  13
ENDBRANCH  11  12
ENDBRANCH   9  11
ENDBRANCH   1   8
TORSDOF 14
ENDMDL