MODEL 3
REMARK VINA RESULT: -6.870856570      2.507      4.326
REMARK  14 active torsions:
REMARK  status: ('A' for Active; 'I' for Inactive)
REMARK    1  A    between atoms: O1_2  and  C2_3
REMARK    2  A    between atoms: C2_3  and  C3_5
REMARK    3  A    between atoms: C3_5  and  C4_6
REMARK    4  A    between atoms: C5_7  and  O3_8
REMARK    5  A    between atoms: C14_18  and  C15_19
REMARK    6  A    between atoms: C15_19  and  C17_21
REMARK    7  A    between atoms: C17_21  and  C18_22
REMARK    8  A    between atoms: C18_22  and  C19_23
REMARK    9  A    between atoms: C18_22  and  O6_31
REMARK   10  A    between atoms: C20_24  and  C21_25
REMARK   11  A    between atoms: C21_25  and  C22_26
REMARK   12  A    between atoms: C21_25  and  O5_29
REMARK   13  A    between atoms: C22_26  and  O4_27
REMARK   14  A    between atoms: O6_31  and  C24_32
ROOT
HETATM    1  C4  UNL     1      50.136  10.273  -3.227  1.00  0.00     0.037 C
HETATM    2  C5  UNL     1      51.156   9.159  -2.913  1.00  0.00     0.127 C
HETATM    3  C6  UNL     1      50.418   7.899  -2.721  1.00  0.00     0.067 C
HETATM    4  C7  UNL     1      49.045   8.342  -2.354  1.00  0.00    -0.072 C
HETATM    5  C8  UNL     1      48.047   7.786  -1.709  1.00  0.00    -0.023 C
HETATM    6  C9  UNL     1      46.735   8.368  -1.426  1.00  0.00     0.033 C
HETATM    7  C10 UNL     1      46.712   9.868  -1.527  1.00  0.00    -0.001 C
HETATM    8  C11 UNL     1      46.120  10.521  -0.357  1.00  0.00    -0.001 C
HETATM    9  C12 UNL     1      44.828  10.003   0.146  1.00  0.00     0.006 C
HETATM   10  C13 UNL     1      44.551  11.143   1.147  1.00  0.00     0.006 C
HETATM   11  C14 UNL     1      45.934  11.374   1.794  1.00  0.00    -0.002 C
HETATM   12  C25 UNL     1      46.924  10.687   0.885  1.00  0.00    -0.036 C
HETATM   13  C26 UNL     1      47.337   9.433   1.594  1.00  0.00     0.016 C
HETATM   14  C27 UNL     1      48.134  11.433   0.503  1.00  0.00     0.010 C
HETATM   15  C28 UNL     1      48.895  10.637  -0.575  1.00  0.00     0.007 C
HETATM   16  C29 UNL     1      48.065  10.471  -1.817  1.00  0.00     0.003 C
HETATM   17  C30 UNL     1      48.812   9.739  -2.885  1.00  0.00    -0.010 C
HETATM   18  C31 UNL     1      47.950   9.523  -4.126  1.00  0.00     0.021 C
ENDROOT
BRANCH  11  19
HETATM   19  C15 UNL     1      46.082  12.817   1.991  1.00  0.00    -0.011 C
HETATM   20  C16 UNL     1      46.687  13.216   3.322  1.00  0.00     0.010 C
BRANCH  19  21
HETATM   21  C17 UNL     1      44.864  13.598   1.761  1.00  0.00     0.041 C
BRANCH  21  22
HETATM   22  C18 UNL     1      44.804  15.057   1.914  1.00  0.00     0.155 C
BRANCH  22  23
HETATM   23  C19 UNL     1      44.155  15.557   0.621  1.00  0.00     0.004 C
HETATM   24  C20 UNL     1      44.194  14.769  -0.439  1.00  0.00     0.005 C
BRANCH  24  25
HETATM   25  C21 UNL     1      43.584  15.179  -1.750  1.00  0.00     0.167 C
BRANCH  25  26
HETATM   26  C22 UNL     1      44.563  15.959  -2.603  1.00  0.00     0.200 C
BRANCH  26  27
HETATM   27  O4  UNL     1      45.599  15.156  -3.041  1.00  0.00    -0.398 OA
ATOM     28  H4  UNL     1      46.134  14.856  -2.316  1.00  0.00     0.209 HD
ENDBRANCH  26  27
ENDBRANCH  25  26
BRANCH  25  29
HETATM   29  O5  UNL     1      42.408  15.857  -1.537  1.00  0.00    -0.385 OA
HETATM   30  C23 UNL     1      41.618  15.858  -2.680  1.00  0.00     0.202 C
ENDBRANCH  25  29
ENDBRANCH  24  25
ENDBRANCH  22  23
BRANCH  22  31
HETATM   31  O6  UNL     1      44.197  15.644   2.992  1.00  0.00    -0.303 OA
BRANCH  31  32
HETATM   32  C24 UNL     1      44.833  16.495   3.856  1.00  0.00     0.334 C
HETATM   33  O7  UNL     1      44.242  16.863   4.878  1.00  0.00    -0.251 OA
HETATM   34  S1  UNL     1      46.472  17.063   3.518  1.00  0.00     0.022 SA
ENDBRANCH  31  32
ENDBRANCH  22  31
ENDBRANCH  21  22
ENDBRANCH  19  21
ENDBRANCH  11  19
BRANCH   1  35
HETATM   35  C3  UNL     1      50.434  10.647  -4.651  1.00  0.00     0.119 C
BRANCH  35  36
HETATM   36  C2  UNL     1      50.479  12.064  -4.988  1.00  0.00     0.258 C
HETATM   37  O2  UNL     1      51.527  12.713  -5.048  1.00  0.00    -0.265 OA
BRANCH  36  38
HETATM   38  O1  UNL     1      49.291  12.730  -5.258  1.00  0.00    -0.326 OA
HETATM   39  C1  UNL     1      48.605  13.464  -4.233  1.00  0.00     0.213 C
ENDBRANCH  36  38
ENDBRANCH  35  36
ENDBRANCH   1  35
BRANCH   2  40
HETATM   40  O3  UNL     1      51.940   9.515  -1.793  1.00  0.00    -0.395 OA
ATOM     41  H3  UNL     1      52.679   8.924  -1.707  1.00  0.00     0.210 HD
ENDBRANCH   2  40
TORSDOF 14
ENDMDL