MODEL 4
REMARK VINA RESULT: -8.177065645      2.044      3.155
REMARK  13 active torsions:
REMARK  status: ('A' for Active; 'I' for Inactive)
REMARK    1  A    between atoms: C5_5  and  C6_6
REMARK    2  A    between atoms: C6_6  and  O1_7
REMARK    3  A    between atoms: O1_7  and  C7_8
REMARK    4  A    between atoms: C7_8  and  C8_9
REMARK    5  A    between atoms: C8_9  and  C10_12
REMARK    6  A    between atoms: C15_17  and  C16_18
REMARK    7  A    between atoms: C19_21  and  C20_22
REMARK    8  A    between atoms: C23_25  and  C24_26
REMARK    9  A    between atoms: C24_26  and  C26_28
REMARK   10  A    between atoms: C26_28  and  O2_29
REMARK   11  A    between atoms: C26_28  and  C27_31
REMARK   12  A    between atoms: C27_31  and  O3_33
REMARK   13  A    between atoms: C29_37  and  O6_38
ROOT
HETATM    1  C8  UNL     1      44.972   9.754  -0.491  1.00  0.00     0.121 C
HETATM    2  C9  UNL     1      43.863   8.798  -0.852  1.00  0.00     0.066 C
HETATM    3  N1  UNL     1      42.976   8.081  -1.149  1.00  0.00    -0.197 NA
ENDROOT
BRANCH   1   4
HETATM    4  C7  UNL     1      44.673  10.996  -1.326  1.00  0.00     0.187 C
BRANCH   4   5
HETATM    5  O1  UNL     1      44.863  12.101  -0.546  1.00  0.00    -0.383 OA
BRANCH   5   6
HETATM    6  C6  UNL     1      44.528  11.988   0.776  1.00  0.00     0.232 C
BRANCH   6   7
HETATM    7  C5  UNL     1      45.000  13.139   1.599  1.00  0.00     0.076 A
HETATM    8  C4  UNL     1      44.449  14.395   1.543  1.00  0.00     0.037 A
HETATM    9  C3  UNL     1      45.161  15.155   2.445  1.00  0.00     0.035 A
HETATM   10  C2  UNL     1      46.119  14.347   3.020  1.00  0.00     0.049 A
HETATM   11  C1  UNL     1      47.130  14.738   4.061  1.00  0.00     0.076 C
HETATM   12  O7  UNL     1      45.969  13.168   2.476  1.00  0.00    -0.318 OA
ENDBRANCH   6   7
ENDBRANCH   5   6
ENDBRANCH   4   5
ENDBRANCH   1   4
BRANCH   1  13
HETATM   13  C10 UNL     1      46.241   9.080  -0.854  1.00  0.00     0.018 C
HETATM   14  C11 UNL     1      47.008   9.796  -1.951  1.00  0.00     0.011 C
HETATM   15  C12 UNL     1      48.386   9.128  -1.863  1.00  0.00     0.035 C
HETATM   16  C13 UNL     1      48.441   8.518  -0.516  1.00  0.00    -0.074 C
HETATM   17  C14 UNL     1      49.208   7.626   0.071  1.00  0.00    -0.013 C
HETATM   18  C31 UNL     1      47.317   9.144   0.238  1.00  0.00    -0.014 C
HETATM   19  C15 UNL     1      49.093   7.150   1.452  1.00  0.00     0.066 C
HETATM   20  C29 UNL     1      48.257   8.111   2.256  1.00  0.00     0.129 C
HETATM   21  C30 UNL     1      46.983   8.393   1.472  1.00  0.00     0.046 C
HETATM   22  C32 UNL     1      47.757  10.568   0.515  1.00  0.00     0.020 C
BRANCH  19  23
HETATM   23  C16 UNL     1      48.539   5.771   1.606  1.00  0.00     0.132 C
HETATM   24  C17 UNL     1      49.101   4.805   0.581  1.00  0.00     0.035 C
HETATM   25  C18 UNL     1      50.323   4.219   1.210  1.00  0.00     0.037 C
HETATM   26  C19 UNL     1      50.295   4.790   2.601  1.00  0.00     0.151 C
HETATM   27  O5  UNL     1      49.019   5.253   2.829  1.00  0.00    -0.377 OA
BRANCH  26  28
HETATM   28  C20 UNL     1      50.661   3.756   3.646  1.00  0.00     0.151 C
HETATM   29  C21 UNL     1      50.700   2.416   2.926  1.00  0.00     0.037 C
HETATM   30  C22 UNL     1      50.599   1.481   4.145  1.00  0.00     0.035 C
HETATM   31  C23 UNL     1      49.782   2.314   5.092  1.00  0.00     0.128 C
HETATM   32  O4  UNL     1      49.664   3.580   4.574  1.00  0.00    -0.378 OA
BRANCH  31  33
HETATM   33  C24 UNL     1      50.407   2.404   6.484  1.00  0.00     0.042 C
HETATM   34  C25 UNL     1      49.707   1.355   7.308  1.00  0.00     0.015 C
BRANCH  33  35
HETATM   35  C26 UNL     1      51.886   2.229   6.424  1.00  0.00     0.152 C
BRANCH  35  36
HETATM   36  O2  UNL     1      52.387   1.164   7.153  1.00  0.00    -0.393 OA
ATOM     37  H2  UNL     1      51.749   0.695   7.678  1.00  0.00     0.210 HD
ENDBRANCH  35  36
BRANCH  35  38
HETATM   38  C27 UNL     1      52.608   3.482   6.777  1.00  0.00     0.143 C
HETATM   39  C28 UNL     1      53.563   3.980   5.701  1.00  0.00     0.042 C
BRANCH  38  40
HETATM   40  O3  UNL     1      51.668   4.539   6.945  1.00  0.00    -0.393 OA
ATOM     41  H3  UNL     1      52.001   5.325   6.528  1.00  0.00     0.210 HD
ENDBRANCH  38  40
ENDBRANCH  35  38
ENDBRANCH  33  35
ENDBRANCH  31  33
ENDBRANCH  26  28
ENDBRANCH  19  23
BRANCH  20  42
HETATM   42  O6  UNL     1      47.873   7.600   3.490  1.00  0.00    -0.395 OA
ATOM     43  H6  UNL     1      48.602   7.476   4.086  1.00  0.00     0.210 HD
ENDBRANCH  20  42
ENDBRANCH   1  13
TORSDOF 13
ENDMDL