MODEL 5
REMARK VINA RESULT: -6.394824027      4.413      9.009
REMARK  12 active torsions:
REMARK  status: ('A' for Active; 'I' for Inactive)
REMARK    1  A    between atoms: C3_5  and  C4_6
REMARK    2  A    between atoms: C9_11  and  O1_12
REMARK    3  A    between atoms: C12_16  and  C13_17
REMARK    4  A    between atoms: C13_17  and  O2_19
REMARK    5  A    between atoms: C13_17  and  C15_21
REMARK    6  A    between atoms: C16_23  and  C17_24
REMARK    7  A    between atoms: C17_24  and  O4_25
REMARK    8  A    between atoms: C18_27  and  C19_28
REMARK    9  A    between atoms: C19_28  and  C21_30
REMARK   10  A    between atoms: C21_30  and  C22_31
REMARK   11  A    between atoms: C22_31  and  C23_32
REMARK   12  A    between atoms: C23_32  and  C24_33
ROOT
HETATM    1  C1  UNL     1      44.049   1.911   3.338  1.00  0.00     0.071 C
HETATM    2  C2  UNL     1      45.417   1.521   2.897  1.00  0.00     0.043 A
HETATM    3  N1  UNL     1      46.381   2.399   2.914  1.00  0.00    -0.355 N
ATOM      4  H1  UNL     1      46.139   3.335   3.240  1.00  0.00     0.166 HD
HETATM    5  C3  UNL     1      47.703   2.195   2.537  1.00  0.00     0.064 A
HETATM    6  C31 UNL     1      47.948   0.945   2.129  1.00  0.00     0.034 A
HETATM    7  C32 UNL     1      49.264   0.419   1.801  1.00  0.00     0.070 C
HETATM    8  N2  UNL     1      46.949  -0.024   2.093  1.00  0.00    -0.348 N
ATOM      9  H2  UNL     1      47.175  -0.966   1.772  1.00  0.00     0.166 HD
HETATM   10  C33 UNL     1      45.722   0.255   2.464  1.00  0.00     0.136 A
HETATM   11  C34 UNL     1      44.652  -0.730   2.437  1.00  0.00     0.119 C
HETATM   12  N3  UNL     1      43.807  -1.517   2.397  1.00  0.00    -0.190 NA
ENDROOT
BRANCH   5  13
HETATM   13  C4  UNL     1      48.579   3.375   2.705  1.00  0.00     0.001 C
HETATM   14  C5  UNL     1      49.199   3.378   3.910  1.00  0.00    -0.014 C
HETATM   15  C6  UNL     1      50.079   4.521   4.175  1.00  0.00     0.028 C
HETATM   16  C7  UNL     1      49.075   5.743   3.944  1.00  0.00     0.012 C
HETATM   17  C8  UNL     1      49.021   5.891   2.459  1.00  0.00     0.034 C
HETATM   18  C9  UNL     1      48.749   4.552   1.837  1.00  0.00     0.091 C
HETATM   19  C29 UNL     1      48.514   7.126   1.851  1.00  0.00    -0.027 C
HETATM   20  C10 UNL     1      49.858   4.414   0.857  1.00  0.00     0.044 C
HETATM   21  C11 UNL     1      50.631   5.619   0.474  1.00  0.00     0.012 C
HETATM   22  C12 UNL     1      49.920   6.738  -0.273  1.00  0.00     0.038 C
HETATM   23  C16 UNL     1      49.261   7.699   0.617  1.00  0.00    -0.001 C
HETATM   24  C18 UNL     1      48.297   8.717   0.238  1.00  0.00     0.001 C
HETATM   25  C27 UNL     1      46.987   7.923   0.159  1.00  0.00     0.007 C
HETATM   26  C28 UNL     1      47.055   7.277   1.559  1.00  0.00     0.011 C
HETATM   27  C30 UNL     1      48.626   8.008   3.107  1.00  0.00     0.016 C
BRANCH  18  28
HETATM   28  O1  UNL     1      47.482   4.559   1.216  1.00  0.00    -0.384 OA
ATOM     29  H1  UNL     1      47.703   5.040   0.426  1.00  0.00     0.211 HD
ENDBRANCH  18  28
BRANCH  22  30
HETATM   30  C13 UNL     1      49.549   6.186  -1.574  1.00  0.00     0.111 C
HETATM   31  C14 UNL     1      50.793   5.427  -2.144  1.00  0.00     0.054 C
BRANCH  30  32
HETATM   32  O2  UNL     1      48.558   5.315  -1.786  1.00  0.00    -0.383 OA
ATOM     33  H2  UNL     1      48.287   4.991  -2.637  1.00  0.00     0.211 HD
ENDBRANCH  30  32
BRANCH  30  34
HETATM   34  C15 UNL     1      49.448   7.119  -2.754  1.00  0.00     0.269 C
HETATM   35  O3  UNL     1      48.373   7.469  -3.211  1.00  0.00    -0.304 OA
ENDBRANCH  30  34
ENDBRANCH  22  30
BRANCH  23  36
HETATM   36  C17 UNL     1      50.436   8.486   1.219  1.00  0.00     0.175 C
BRANCH  36  37
HETATM   37  O4  UNL     1      51.387   8.956   0.408  1.00  0.00    -0.400 OA
ATOM     38  H4  UNL     1      51.447   9.893   0.260  1.00  0.00     0.209 HD
ENDBRANCH  36  37
ENDBRANCH  23  36
BRANCH  24  39
HETATM   39  C19 UNL     1      48.247   9.864  -0.590  1.00  0.00    -0.014 C
HETATM   40  C20 UNL     1      48.647  11.236  -0.112  1.00  0.00     0.010 C
BRANCH  39  41
HETATM   41  C21 UNL     1      46.802  10.156  -1.097  1.00  0.00     0.005 C
BRANCH  41  42
HETATM   42  C22 UNL     1      46.195  11.390  -0.581  1.00  0.00     0.001 C
BRANCH  42  43
HETATM   43  C23 UNL     1      44.919  10.930   0.147  1.00  0.00     0.004 C
BRANCH  43  44
HETATM   44  C24 UNL     1      44.743  11.701   1.433  1.00  0.00    -0.023 C
HETATM   45  C25 UNL     1      45.961  11.460   2.301  1.00  0.00     0.009 C
HETATM   46  C26 UNL     1      44.655  13.191   1.181  1.00  0.00     0.009 C
ENDBRANCH  43  44
ENDBRANCH  42  43
ENDBRANCH  41  42
ENDBRANCH  39  41
ENDBRANCH  24  39
ENDBRANCH   5  13
TORSDOF 12
ENDMDL