MODEL 5
REMARK VINA RESULT: -7.287027398      3.923      7.482
REMARK  13 active torsions:
REMARK  status: ('A' for Active; 'I' for Inactive)
REMARK    1  A    between atoms: C2_2  and  C3_3
REMARK    2  A    between atoms: C3_3  and  C4_4
REMARK    3  A    between atoms: C3_3  and  C30_40
REMARK    4  A    between atoms: C4_4  and  O1_5
REMARK    5  A    between atoms: C4_4  and  C5_7
REMARK    6  A    between atoms: C5_7  and  C6_8
REMARK    7  A    between atoms: C6_8  and  C8_10
REMARK    8  A    between atoms: C17_19  and  O2_20
REMARK    9  A    between atoms: O2_20  and  C18_21
REMARK   10  A    between atoms: C21_25  and  N1_26
REMARK   11  A    between atoms: C22_28  and  O4_29
REMARK   12  A    between atoms: C22_28  and  C23_31
REMARK   13  A    between atoms: C30_40  and  O7_43
ROOT
HETATM    1  C8  UNL     1      49.938  11.493  -1.587  1.00  0.00     0.129 C
HETATM    2  C9  UNL     1      50.683  10.172  -1.349  1.00  0.00     0.038 C
HETATM    3  C10 UNL     1      49.611   9.128  -1.352  1.00  0.00     0.005 C
HETATM    4  C11 UNL     1      50.082   7.729  -1.400  1.00  0.00    -0.014 C
HETATM    5  C12 UNL     1      51.455   7.670  -0.707  1.00  0.00     0.010 C
HETATM    6  C13 UNL     1      49.203   6.698  -0.824  1.00  0.00     0.005 C
HETATM    7  C14 UNL     1      47.821   7.052  -0.482  1.00  0.00     0.006 C
HETATM    8  C15 UNL     1      47.457   8.499  -0.565  1.00  0.00     0.001 C
HETATM    9  C16 UNL     1      46.219   8.839   0.193  1.00  0.00     0.038 C
HETATM   10  C17 UNL     1      45.168   9.444  -0.662  1.00  0.00     0.141 C
HETATM   11  C20 UNL     1      44.846  10.864  -0.400  1.00  0.00     0.071 A
HETATM   12  C21 UNL     1      45.441  11.710   0.613  1.00  0.00     0.122 A
HETATM   13  C26 UNL     1      46.097  11.736  -0.685  1.00  0.00     0.156 A
HETATM   14  O5  UNL     1      47.116  10.930  -1.090  1.00  0.00    -0.353 OA
HETATM   15  C27 UNL     1      48.191  10.838  -0.244  1.00  0.00     0.269 C
HETATM   16  O6  UNL     1      49.197  11.738  -0.458  1.00  0.00    -0.355 OA
HETATM   17  C28 UNL     1      48.638   9.396  -0.213  1.00  0.00     0.014 C
HETATM   18  C29 UNL     1      49.207   9.111   1.133  1.00  0.00     0.021 C
ENDROOT
BRANCH   1  19
HETATM   19  C6  UNL     1      50.877  12.600  -1.947  1.00  0.00     0.013 C
HETATM   20  C7  UNL     1      50.914  12.803  -3.428  1.00  0.00     0.012 C
BRANCH  19  21
HETATM   21  C5  UNL     1      52.292  12.339  -1.411  1.00  0.00     0.039 C
BRANCH  21  22
HETATM   22  C4  UNL     1      52.471  13.290  -0.258  1.00  0.00     0.125 C
BRANCH  22  23
HETATM   23  C3  UNL     1      53.756  14.027  -0.223  1.00  0.00     0.048 C
BRANCH  23  24
HETATM   24  C2  UNL     1      53.810  14.979  -1.394  1.00  0.00     0.006 C
HETATM   25  C1  UNL     1      52.745  16.018  -1.413  1.00  0.00     0.006 C
ENDBRANCH  23  24
BRANCH  23  26
HETATM   26  C30 UNL     1      54.993  13.169  -0.261  1.00  0.00     0.057 C
HETATM   27  C31 UNL     1      55.378  12.739  -1.646  1.00  0.00     0.045 C
HETATM   28  C32 UNL     1      56.140  14.071   0.225  1.00  0.00     0.045 C
BRANCH  26  29
HETATM   29  O7  UNL     1      54.952  12.127   0.663  1.00  0.00    -0.390 OA
ATOM     30  H7  UNL     1      55.816  11.794   0.879  1.00  0.00     0.210 HD
ENDBRANCH  26  29
ENDBRANCH  23  26
ENDBRANCH  22  23
BRANCH  22  31
HETATM   31  O1  UNL     1      52.346  12.533   0.903  1.00  0.00    -0.395 OA
ATOM     32  H1  UNL     1      51.631  12.878   1.426  1.00  0.00     0.210 HD
ENDBRANCH  22  31
ENDBRANCH  21  22
ENDBRANCH  19  21
ENDBRANCH   1  19
BRANCH  12  33
HETATM   33  N1  UNL     1      44.689  12.930   0.955  1.00  0.00    -0.366 N
HETATM   34  C22 UNL     1      45.050  13.721   1.877  1.00  0.00     0.115 C
ATOM     35  H1  UNL     1      43.842  13.147   0.428  1.00  0.00     0.161 HD
BRANCH  34  36
HETATM   36  O4  UNL     1      46.185  13.481   2.622  1.00  0.00    -0.349 OA
ATOM     37  H4  UNL     1      46.134  13.093   3.488  1.00  0.00     0.219 HD
ENDBRANCH  34  36
BRANCH  34  38
HETATM   38  C23 UNL     1      44.218  14.922   2.139  1.00  0.00     0.052 C
HETATM   39  C24 UNL     1      44.160  15.841   0.956  1.00  0.00     0.018 C
HETATM   40  C25 UNL     1      44.803  15.694   3.298  1.00  0.00     0.018 C
ENDBRANCH  34  38
ENDBRANCH  12  33
BRANCH  10  41
HETATM   41  O2  UNL     1      43.950   8.698  -0.645  1.00  0.00    -0.316 OA
BRANCH  41  42
HETATM   42  C18 UNL     1      43.356   8.165  -1.753  1.00  0.00     0.255 C
HETATM   43  C19 UNL     1      44.029   8.263  -3.082  1.00  0.00     0.126 C
HETATM   44  O3  UNL     1      42.259   7.600  -1.650  1.00  0.00    -0.266 OA
ENDBRANCH  41  42
ENDBRANCH  10  41
TORSDOF 13
ENDMDL