MODEL 4
REMARK VINA RESULT: -5.644467361      8.365     10.672
REMARK  3 active torsions:
REMARK  status: ('A' for Active; 'I' for Inactive)
REMARK    1  A    between atoms: N1_1  and  N2_4
REMARK       I    between atoms: N2_4  and  C1_5
REMARK    2  A    between atoms: C1_5  and  C2_7
REMARK    3  A    between atoms: N3_11  and  N4_12
ROOT
HETATM    1  C2  UNL     1       7.514 104.263  12.990  1.00  0.00     0.126 A
HETATM    2  C3  UNL     1       8.770 104.156  13.504  1.00  0.00     0.113 A
HETATM    3  C4  UNL     1       9.363 105.219  14.147  1.00  0.00     0.272 A
HETATM    4  O2  UNL     1      10.529 105.128  14.628  1.00  0.00    -0.266 OA
HETATM    5  N3  UNL     1       8.708 106.400  14.283  1.00  0.00    -0.175 N
HETATM    6  C5  UNL     1       7.465 106.468  13.760  1.00  0.00     0.348 A
HETATM    7  O3  UNL     1       6.818 107.541  13.860  1.00  0.00    -0.245 OA
HETATM    8  N5  UNL     1       6.869 105.421  13.122  1.00  0.00    -0.301 N
ATOM      9  H5  UNL     1       5.927 105.524  12.745  1.00  0.00     0.171 HD
ENDROOT
BRANCH   1  10
HETATM   10  C1  UNL     1       6.809 103.158  12.298  1.00  0.00     0.361 C
HETATM   11  N2  UNL     1       6.858 103.026  10.937  1.00  0.00    -0.287 NA
HETATM   12  O1  UNL     1       6.201 102.414  13.109  1.00  0.00    -0.247 OA
BRANCH  11  13
HETATM   13  N1  UNL     1       6.905 102.900   9.637  1.00  0.00    -0.276 N
ATOM     14  H12 UNL     1       6.866 103.052  10.644  1.00  0.00     0.191 HD
ATOM     15  H11 UNL     1       6.942 102.801   8.622  1.00  0.00     0.191 HD
ENDBRANCH  11  13
ENDBRANCH   1  10
BRANCH   5  16
HETATM   16  N4  UNL     1       9.283 107.497  14.930  1.00  0.00    -0.332 N
ATOM     17  H42 UNL     1       9.854 107.378  15.768  1.00  0.00     0.177 HD
ATOM     18  H41 UNL     1       9.156 108.451  14.593  1.00  0.00     0.177 HD
ENDBRANCH   5  16
TORSDOF 3
ENDMDL