MODEL 1
REMARK VINA RESULT: -6.213817445      0.000      0.000
REMARK  2 active torsions:
REMARK  status: ('A' for Active; 'I' for Inactive)
REMARK    1  A    between atoms: C3_9  and  C4_10
REMARK       I    between atoms: C4_10  and  N4_12
REMARK    2  A    between atoms: N4_12  and  N5_13
ROOT
HETATM    1  N1  UNL     1       4.918 104.156   6.222  1.00  0.00    -0.234 N
ATOM      2  H11 UNL     1       5.706 104.323   6.849  1.00  0.00     0.174 HD
ATOM      3  H12 UNL     1       4.538 104.971   5.741  1.00  0.00     0.174 HD
HETATM    4  C1  UNL     1       4.500 102.987   6.255  1.00  0.00     0.680 A
HETATM    5  N2  UNL     1       3.432 102.760   5.405  1.00  0.00    -0.178 N
ATOM      6  H2  UNL     1       2.996 103.526   4.889  1.00  0.00     0.185 HD
HETATM    7  C2  UNL     1       2.984 101.489   5.280  1.00  0.00     0.154 A
HETATM    8  N3  UNL     1       1.881 101.254   4.376  1.00  0.00    -0.081 NA
HETATM    9  C3  UNL     1       3.537 100.437   5.950  1.00  0.00     0.158 A
HETATM   10  C5  UNL     1       4.578 100.656   6.782  1.00  0.00     0.280 A
HETATM   11  O2  UNL     1       5.180  99.748   7.471  1.00  0.00    -0.266 OA
HETATM   12  N6  UNL     1       5.004 101.908   6.891  1.00  0.00    -0.155 N
ATOM     13  H6  UNL     1       5.790 102.072   7.519  1.00  0.00     0.187 HD
ENDROOT
BRANCH   9  14
HETATM   14  C4  UNL     1       2.907  99.074   5.758  1.00  0.00     0.354 C
HETATM   15  O1  UNL     1       3.522  98.188   5.268  1.00  0.00    -0.249 OA
HETATM   16  N4  UNL     1       1.487  99.015   6.248  1.00  0.00    -0.288 NA
BRANCH  16  17
HETATM   17  N5  UNL     1       0.402  98.970   6.621  1.00  0.00    -0.276 N
ATOM     18  H52 UNL     1       1.371  99.017   6.305  1.00  0.00     0.191 HD
ATOM     19  H51 UNL     1      -0.562  98.930   6.952  1.00  0.00     0.191 HD
ENDBRANCH  16  17
ENDBRANCH   9  14
TORSDOF 2
ENDMDL