MODEL 3
REMARK VINA RESULT: -5.710395010      3.241      4.144
REMARK  2 active torsions:
REMARK  status: ('A' for Active; 'I' for Inactive)
REMARK    1  A    between atoms: C2_7  and  N3_8
REMARK    2  A    between atoms: N3_8  and  C3_10
ROOT
HETATM    1  N3  UNL     1       2.585 100.904   4.710  1.00  0.00    -0.019 N
ATOM      2  H3  UNL     1       2.777 100.726   3.725  1.00  0.00     0.203 HD
ENDROOT
BRANCH   1   3
HETATM    3  C2  UNL     1       1.352 100.473   5.270  1.00  0.00     0.715 A
HETATM    4  N2  UNL     1       0.224 101.162   5.475  1.00  0.00    -0.127 N
HETATM    5  N1  UNL     1      -0.704 100.366   6.031  1.00  0.00    -0.237 N
ATOM      6  H2  UNL     1       0.089 102.146   5.244  1.00  0.00     0.205 HD
HETATM    7  C1  UNL     1      -0.168  99.146   6.186  1.00  0.00     0.353 A
ATOM      8  H1  UNL     1      -1.651 100.641   6.289  1.00  0.00     0.192 HD
HETATM    9  O1  UNL     1      -0.706  98.106   6.673  1.00  0.00    -0.245 OA
HETATM   10  N8  UNL     1       1.097  99.230   5.713  1.00  0.00    -0.138 N
ATOM     11  H8  UNL     1       1.764  98.458   5.696  1.00  0.00     0.189 HD
ENDBRANCH   1   3
BRANCH   1  12
HETATM   12  C3  UNL     1       3.569 101.591   5.512  1.00  0.00     0.709 A
HETATM   13  N4  UNL     1       4.116 101.020   6.529  1.00  0.00    -0.117 N
HETATM   14  N5  UNL     1       5.062 101.705   7.283  1.00  0.00    -0.231 N
ATOM     15  H4  UNL     1       3.854 100.067   6.781  1.00  0.00     0.207 HD
HETATM   16  N6  UNL     1       5.463 102.886   7.067  1.00  0.00    -0.303 N
ATOM     17  H5  UNL     1       5.469 101.213   8.078  1.00  0.00     0.208 HD
HETATM   18  C4  UNL     1       4.948 103.663   5.966  1.00  0.00     0.280 A
ATOM     19  H6  UNL     1       6.164 103.296   7.684  1.00  0.00     0.183 HD
HETATM   20  N7  UNL     1       3.968 102.920   5.204  1.00  0.00    -0.207 N
ATOM     21  H7  UNL     1       3.537 103.376   4.400  1.00  0.00     0.179 HD
ENDBRANCH   1  12
TORSDOF 2
ENDMDL