MODEL 3
REMARK VINA RESULT: -5.918227950      1.574      2.435
REMARK  4 active torsions:
REMARK  status: ('A' for Active; 'I' for Inactive)
REMARK    1  A    between atoms: N1_1  and  N2_4
REMARK       I    between atoms: N2_4  and  C1_6
REMARK       I    between atoms: C1_6  and  N3_8
REMARK    2  A    between atoms: N3_8  and  C2_9
REMARK    3  A    between atoms: C3_16  and  N7_17
REMARK    4  A    between atoms: N7_17  and  O2_19
ROOT
HETATM    1  C2  UNL     1       4.027 102.279   5.848  1.00  0.00     0.247 A
HETATM    2  N4  UNL     1       4.521 103.338   5.193  1.00  0.00    -0.256 N
ATOM      3  H4  UNL     1       4.130 103.703   4.324  1.00  0.00     0.191 HD
HETATM    4  N5  UNL     1       5.573 103.855   5.799  1.00  0.00    -0.239 N
ATOM      5  H5  UNL     1       6.116 104.662   5.491  1.00  0.00     0.208 HD
HETATM    6  N6  UNL     1       5.785 103.137   6.869  1.00  0.00    -0.265 N
ATOM      7  H6  UNL     1       6.541 103.305   7.534  1.00  0.00     0.190 HD
HETATM    8  C3  UNL     1       4.899 102.164   6.981  1.00  0.00     0.202 A
ENDROOT
BRANCH   1   9
HETATM    9  N3  UNL     1       2.990 101.453   5.636  1.00  0.00    -0.327 NA
HETATM   10  C1  UNL     1       1.943 100.618   5.421  1.00  0.00     0.413 C
HETATM   11  N2  UNL     1       1.956  99.315   6.091  1.00  0.00    -0.246 N
HETATM   12  O1  UNL     1       0.935 100.797   4.719  1.00  0.00    -0.228 OA
ATOM     13  H2  UNL     1       2.731  99.054   6.701  1.00  0.00     0.192 HD
BRANCH  11  14
HETATM   14  N1  UNL     1       0.903  98.444   5.884  1.00  0.00    -0.340 N
ATOM     15  H12 UNL     1      -0.016  98.815   5.639  1.00  0.00     0.177 HD
ATOM     16  H11 UNL     1       1.064  97.442   5.979  1.00  0.00     0.177 HD
ENDBRANCH  11  14
ENDBRANCH   1   9
BRANCH   8  17
HETATM   17  N7  UNL     1       4.745 101.253   7.872  1.00  0.00    -0.248 N
ATOM     18  H7  UNL     1       4.519 101.467   8.843  1.00  0.00     0.196 HD
BRANCH  17  19
HETATM   19  O2  UNL     1       4.910  99.956   7.413  1.00  0.00    -0.288 OA
ATOM     20  H2  UNL     1       4.253  99.665   6.792  1.00  0.00     0.244 HD
ENDBRANCH  17  19
ENDBRANCH   8  17
TORSDOF 4
ENDMDL