MODEL 3
REMARK VINA RESULT: -5.204965691      2.157      3.228
REMARK  6 active torsions:
REMARK  status: ('A' for Active; 'I' for Inactive)
REMARK    1  A    between atoms: C2_3  and  N2_4
REMARK    2  A    between atoms: C3_11  and  N5_12
REMARK    3  A    between atoms: N5_12  and  C4_14
REMARK    4  A    between atoms: C4_14  and  O1_15
REMARK    5  A    between atoms: C4_14  and  N6_17
REMARK    6  A    between atoms: N6_17  and  N7_19
ROOT
HETATM    1  C1  UNL     1       4.706  96.758   5.326  1.00  0.00     0.179 C
HETATM    2  N1  UNL     1       3.968  98.024   5.425  1.00  0.00    -0.148 N
HETATM    3  C2  UNL     1       2.691  98.112   5.037  1.00  0.00     0.695 A
HETATM    4  N3  UNL     1       2.071  99.318   5.158  1.00  0.00    -0.130 N
ATOM      5  H3  UNL     1       1.097  99.411   4.870  1.00  0.00     0.205 HD
HETATM    6  N4  UNL     1       2.703 100.360   5.638  1.00  0.00    -0.267 N
ATOM      7  H4  UNL     1       2.200 101.244   5.711  1.00  0.00     0.189 HD
HETATM    8  C3  UNL     1       3.982 100.317   6.037  1.00  0.00     0.193 A
HETATM    9  C5  UNL     1       4.639  99.074   5.918  1.00  0.00     0.307 A
HETATM   10  O2  UNL     1       5.840  98.994   6.284  1.00  0.00    -0.263 OA
ENDROOT
BRANCH   8  11
HETATM   11  N5  UNL     1       4.731 101.375   6.559  1.00  0.00    -0.301 N
ATOM     12  H5  UNL     1       5.550 101.119   7.110  1.00  0.00     0.171 HD
BRANCH  11  13
HETATM   13  C4  UNL     1       4.485 102.752   6.413  1.00  0.00     0.237 C
BRANCH  13  14
HETATM   14  O1  UNL     1       3.279 103.158   6.143  1.00  0.00    -0.331 OA
ATOM     15  H1  UNL     1       2.971 103.977   6.513  1.00  0.00     0.221 HD
ENDBRANCH  13  14
BRANCH  13  16
HETATM   16  N6  UNL     1       5.481 103.732   6.540  1.00  0.00    -0.272 N
ATOM     17  H6  UNL     1       5.360 104.668   6.152  1.00  0.00     0.190 HD
BRANCH  16  18
HETATM   18  N7  UNL     1       6.676 103.363   7.240  1.00  0.00    -0.342 N
ATOM     19  H72 UNL     1       7.497 103.040   6.727  1.00  0.00     0.176 HD
ATOM     20  H71 UNL     1       6.661 103.439   8.257  1.00  0.00     0.176 HD
ENDBRANCH  16  18
ENDBRANCH  13  16
ENDBRANCH  11  13
ENDBRANCH   8  11
BRANCH   3  21
HETATM   21  N2  UNL     1       2.105  97.063   4.571  1.00  0.00    -0.233 N
ATOM     22  H22 UNL     1       2.070  96.176   5.073  1.00  0.00     0.174 HD
ATOM     23  H21 UNL     1       1.652  97.114   3.658  1.00  0.00     0.174 HD
ENDBRANCH   3  21
TORSDOF 6
ENDMDL