MODEL 1
REMARK VINA RESULT: -5.351230173      0.000      0.000
REMARK  4 active torsions:
REMARK  status: ('A' for Active; 'I' for Inactive)
REMARK    1  A    between atoms: N1_1  and  S1_4
REMARK    2  A    between atoms: S1_4  and  N2_5
REMARK    3  A    between atoms: S1_4  and  C1_9
REMARK    4  A    between atoms: N5_16  and  N6_17
ROOT
HETATM    1  C1  UNL     1       7.839 105.389  13.544  1.00  0.00     0.241 A
HETATM    2  N3  UNL     1       6.724 105.890  12.992  1.00  0.00    -0.270 N
ATOM      3  H3  UNL     1       6.503 106.883  12.920  1.00  0.00     0.189 HD
HETATM    4  N4  UNL     1       5.954 104.907  12.556  1.00  0.00    -0.248 N
ATOM      5  H4  UNL     1       5.048 104.994  12.095  1.00  0.00     0.192 HD
HETATM    6  C2  UNL     1       6.608 103.776  12.843  1.00  0.00     0.362 A
HETATM    7  O2  UNL     1       6.182 102.619  12.575  1.00  0.00    -0.243 OA
HETATM    8  N5  UNL     1       7.754 104.050  13.443  1.00  0.00    -0.182 N
ENDROOT
BRANCH   1   9
HETATM    9  S1  UNL     1       9.109 106.341  14.236  1.00  0.00     0.167 S
HETATM   10  O1  UNL     1      10.115 105.473  14.968  1.00  0.00    -0.221 OA
BRANCH   9  11
HETATM   11  N1  UNL     1       9.915 106.987  13.058  1.00  0.00    -0.339 N
ATOM     12  H12 UNL     1       9.889 106.632  12.102  1.00  0.00     0.167 HD
ATOM     13  H11 UNL     1      10.458 107.793  13.367  1.00  0.00     0.167 HD
ENDBRANCH   9  11
BRANCH   9  14
HETATM   14  N2  UNL     1       8.496 107.525  15.313  1.00  0.00    -0.339 N
ATOM     15  H22 UNL     1       7.505 107.756  15.385  1.00  0.00     0.167 HD
ATOM     16  H21 UNL     1       9.238 107.960  15.861  1.00  0.00     0.167 HD
ENDBRANCH   9  14
ENDBRANCH   1   9
BRANCH   8  17
HETATM   17  N6  UNL     1       8.703 103.117  13.891  1.00  0.00    -0.332 N
ATOM     18  H62 UNL     1       9.448 103.290  14.566  1.00  0.00     0.177 HD
ATOM     19  H61 UNL     1       8.776 102.142  13.604  1.00  0.00     0.177 HD
ENDBRANCH   8  17
TORSDOF 4
ENDMDL