MODEL 2
REMARK VINA RESULT: -4.804625441      0.193      1.057
REMARK  3 active torsions:
REMARK  status: ('A' for Active; 'I' for Inactive)
REMARK    1  A    between atoms: C3_5  and  N2_6
REMARK    2  A    between atoms: N2_6  and  N3_8
REMARK    3  A    between atoms: N3_8  and  C4_10
ROOT
HETATM    1  N3  UNL     1       4.521 100.187   7.896  1.00  0.00    -0.117 N
ATOM      2  H3  UNL     1       4.620 100.282   8.907  1.00  0.00     0.206 HD
ENDROOT
BRANCH   1   3
HETATM    3  N2  UNL     1       4.234  98.949   7.345  1.00  0.00    -0.118 N
ATOM      4  H2  UNL     1       3.358  98.470   7.556  1.00  0.00     0.206 HD
BRANCH   3   5
HETATM    5  C3  UNL     1       5.202  98.361   6.471  1.00  0.00     0.689 C
HETATM    6  N1  UNL     1       6.125  97.374   6.937  1.00  0.00    -0.224 N
HETATM    7  C2  UNL     1       6.577  96.693   5.745  1.00  0.00     0.158 C
ATOM      8  H1  UNL     1       6.403  97.190   7.902  1.00  0.00     0.177 HD
HETATM    9  C1  UNL     1       6.482  97.787   4.710  1.00  0.00     0.158 C
HETATM   10  N7  UNL     1       5.398  98.596   5.223  1.00  0.00    -0.224 N
ATOM     11  H7  UNL     1       4.861  99.263   4.670  1.00  0.00     0.177 HD
ENDBRANCH   3   5
ENDBRANCH   1   3
BRANCH   1  12
HETATM   12  C4  UNL     1       4.678 101.335   7.054  1.00  0.00     0.704 C
HETATM   13  N4  UNL     1       3.819 101.577   6.146  1.00  0.00    -0.223 N
HETATM   14  C5  UNL     1       3.903 102.698   5.269  1.00  0.00     0.156 C
ATOM     15  H4  UNL     1       3.031 100.938   6.041  1.00  0.00     0.177 HD
HETATM   16  C6  UNL     1       4.920 103.726   5.629  1.00  0.00     0.155 C
HETATM   17  N5  UNL     1       6.094 103.113   6.217  1.00  0.00    -0.125 NA
HETATM   18  N6  UNL     1       5.776 102.206   7.217  1.00  0.00    -0.135 N
ATOM     19  H6  UNL     1       6.335 102.168   8.069  1.00  0.00     0.201 HD
ENDBRANCH   1  12
TORSDOF 3
ENDMDL