MODEL 2
REMARK VINA RESULT: -5.333839244      1.527      4.806
REMARK  5 active torsions:
REMARK  status: ('A' for Active; 'I' for Inactive)
REMARK    1  A    between atoms: N1_1  and  C1_4
REMARK    2  A    between atoms: C3_10  and  O1_11
REMARK    3  A    between atoms: C3_10  and  N4_13
REMARK    4  A    between atoms: N4_13  and  N5_15
REMARK    5  A    between atoms: N6_20  and  O3_21
ROOT
HETATM    1  C1  UNL     1       5.587 102.598   6.962  1.00  0.00     0.720 A
HETATM    2  N2  UNL     1       5.171 101.475   7.558  1.00  0.00    -0.130 N
ATOM      3  H2  UNL     1       5.667 101.125   8.377  1.00  0.00     0.205 HD
HETATM    4  N3  UNL     1       4.128 100.816   7.098  1.00  0.00    -0.278 N
ATOM      5  H3  UNL     1       3.834  99.964   7.575  1.00  0.00     0.188 HD
HETATM    6  C2  UNL     1       3.419 101.243   5.993  1.00  0.00     0.172 A
HETATM    7  C3  UNL     1       2.282 100.480   5.532  1.00  0.00     0.189 C
HETATM    8  C4  UNL     1       3.831 102.383   5.377  1.00  0.00     0.320 A
HETATM    9  O2  UNL     1       3.252 102.839   4.376  1.00  0.00    -0.262 OA
HETATM   10  N6  UNL     1       4.924 103.039   5.890  1.00  0.00    -0.010 N
ENDROOT
BRANCH   7  11
HETATM   11  O1  UNL     1       2.029  99.417   6.240  1.00  0.00    -0.343 OA
ATOM     12  H1  UNL     1       1.370  99.544   6.912  1.00  0.00     0.219 HD
ENDBRANCH   7  11
BRANCH   7  13
HETATM   13  N4  UNL     1       1.426 100.693   4.473  1.00  0.00    -0.285 N
ATOM     14  H4  UNL     1       1.556 100.153   3.617  1.00  0.00     0.188 HD
BRANCH  13  15
HETATM   15  N5  UNL     1       0.365 101.643   4.533  1.00  0.00    -0.343 N
ATOM     16  H52 UNL     1       0.612 102.633   4.557  1.00  0.00     0.176 HD
ATOM     17  H51 UNL     1      -0.616 101.363   4.553  1.00  0.00     0.176 HD
ENDBRANCH  13  15
ENDBRANCH   7  13
BRANCH  10  18
HETATM   18  O3  UNL     1       5.317 104.197   5.237  1.00  0.00    -0.266 OA
ATOM     19  H3  UNL     1       4.714 104.923   5.128  1.00  0.00     0.246 HD
ENDBRANCH  10  18
BRANCH   1  20
HETATM   20  N1  UNL     1       6.620 103.235   7.429  1.00  0.00    -0.231 N
ATOM     21  H12 UNL     1       7.120 102.904   8.253  1.00  0.00     0.174 HD
ATOM     22  H11 UNL     1       6.943 104.085   6.968  1.00  0.00     0.174 HD
ENDBRANCH   1  20
TORSDOF 5
ENDMDL