MODEL 5
REMARK VINA RESULT: -4.675887961      8.321      9.842
REMARK  3 active torsions:
REMARK  status: ('A' for Active; 'I' for Inactive)
REMARK    1  A    between atoms: N1_1  and  C1_4
REMARK    2  A    between atoms: C2_5  and  C3_6
REMARK    3  A    between atoms: N4_14  and  N5_15
ROOT
HETATM    1  C1  UNL     1       3.996 100.888   6.480  1.00  0.00     0.142 A
HETATM    2  C2  UNL     1       3.007 100.671   5.513  1.00  0.00     0.090 A
HETATM    3  C4  UNL     1       2.717 101.676   4.636  1.00  0.00     0.113 A
HETATM    4  N3  UNL     1       3.380 102.828   4.723  1.00  0.00    -0.316 N
ATOM      5  H3  UNL     1       3.162 103.578   4.066  1.00  0.00     0.170 HD
HETATM    6  C5  UNL     1       4.321 103.028   5.649  1.00  0.00     0.346 A
HETATM    7  O2  UNL     1       4.967 104.113   5.758  1.00  0.00    -0.245 OA
HETATM    8  N4  UNL     1       4.636 102.060   6.533  1.00  0.00    -0.195 N
ENDROOT
BRANCH   1   9
HETATM    9  N1  UNL     1       4.263  99.918   7.314  1.00  0.00    -0.383 N
ATOM     10  H12 UNL     1       5.158  99.430   7.303  1.00  0.00     0.157 HD
ATOM     11  H11 UNL     1       3.545  99.655   7.989  1.00  0.00     0.157 HD
ENDBRANCH   1   9
BRANCH   2  12
HETATM   12  C3  UNL     1       2.318  99.393   5.465  1.00  0.00     0.270 C
HETATM   13  N2  UNL     1       2.848  98.258   4.813  1.00  0.00    -0.057 NA
HETATM   14  O1  UNL     1       1.205  99.290   6.025  1.00  0.00    -0.271 OA
ENDBRANCH   2  12
BRANCH   8  15
HETATM   15  N5  UNL     1       5.621 102.247   7.515  1.00  0.00    -0.333 N
ATOM     16  H52 UNL     1       6.613 102.143   7.306  1.00  0.00     0.177 HD
ATOM     17  H51 UNL     1       5.330 102.495   8.460  1.00  0.00     0.177 HD
ENDBRANCH   8  15
TORSDOF 3
ENDMDL