MODEL 2
REMARK VINA RESULT: -5.856929210      1.529      2.528
REMARK  1 active torsions:
REMARK  status: ('A' for Active; 'I' for Inactive)
REMARK    1  A    between atoms: N1_1  and  C1_4
REMARK       I    between atoms: N4_13  and  C4_14
REMARK       I    between atoms: C4_14  and  N5_15
REMARK       I    between atoms: C4_14  and  N6_19
ROOT
HETATM    1  C1  UNL     1       8.837 104.299  13.624  1.00  0.00     0.689 A
HETATM    2  N2  UNL     1       8.212 103.221  13.126  1.00  0.00    -0.141 N
ATOM      3  H2  UNL     1       8.714 102.333  13.110  1.00  0.00     0.189 HD
HETATM    4  C2  UNL     1       6.954 103.255  12.648  1.00  0.00     0.342 A
HETATM    5  O1  UNL     1       6.385 102.215  12.182  1.00  0.00    -0.246 OA
HETATM    6  N3  UNL     1       6.304 104.433  12.676  1.00  0.00    -0.259 N
ATOM      7  H3  UNL     1       5.349 104.498  12.322  1.00  0.00     0.175 HD
HETATM    8  C3  UNL     1       6.912 105.522  13.171  1.00  0.00     0.348 A
HETATM    9  O2  UNL     1       6.259 106.620  13.178  1.00  0.00    -0.246 OA
HETATM   10  N4  UNL     1       8.167 105.466  13.642  1.00  0.00    -0.077 N
HETATM   11  C4  UNL     1       8.760 106.690  14.161  1.00  0.00     0.505 C
HETATM   12  N5  UNL     1       7.690 107.651  14.315  1.00  0.00    -0.032 N
ATOM     13  H51 UNL     1       8.106 108.508  14.679  1.00  0.00     0.279 HD
ATOM     14  H52 UNL     1       6.921 107.304  14.889  1.00  0.00     0.279 HD
ATOM     15  H53 UNL     1       7.157 107.797  13.457  1.00  0.00     0.279 HD
HETATM   16  N6  UNL     1       9.754 107.197  13.231  1.00  0.00    -0.032 N
ATOM     17  H61 UNL     1      10.170 108.054  13.595  1.00  0.00     0.279 HD
ATOM     18  H62 UNL     1       9.369 107.327  12.296  1.00  0.00     0.279 HD
ATOM     19  H63 UNL     1      10.459 106.495  13.008  1.00  0.00     0.279 HD
ENDROOT
BRANCH   1  20
HETATM   20  N1  UNL     1      10.030 104.238  14.069  1.00  0.00    -0.234 N
ATOM     21  H12 UNL     1      10.301 104.784  14.887  1.00  0.00     0.174 HD
ATOM     22  H11 UNL     1      10.740 103.653  13.627  1.00  0.00     0.174 HD
ENDBRANCH   1  20
TORSDOF 1
ENDMDL