MODEL 4
REMARK VINA RESULT: -5.403328343      1.690      2.991
REMARK  2 active torsions:
REMARK  status: ('A' for Active; 'I' for Inactive)
REMARK    1  A    between atoms: N1_1  and  C1_5
REMARK    2  A    between atoms: C1_5  and  C2_6
ROOT
HETATM    1  C2  UNL     1       9.565   9.853  15.706  1.00  0.00     0.013 C
HETATM    2  C3  UNL     1      10.999   9.632  15.365  1.00  0.00     0.043 C
HETATM    3  C4  UNL     1      11.670   9.848  16.728  1.00  0.00     0.273 C
HETATM    4  N2  UNL     1      10.597  10.058  17.680  1.00  0.00     0.089 N
HETATM    5  C5  UNL     1       9.954  11.364  17.462  1.00  0.00     0.273 C
HETATM    6  C6  UNL     1       9.336  11.283  16.063  1.00  0.00     0.043 C
HETATM    7  C7  UNL     1       9.542   9.202  17.099  1.00  0.00     0.283 C
ENDROOT
BRANCH   1   8
HETATM    8  C1  UNL     1       8.578   9.227  14.824  1.00  0.00     0.240 C
BRANCH   8   9
HETATM    9  N1  UNL     1       7.961   8.067  15.376  1.00  0.00    -0.079 N
ATOM     10  H13 UNL     1       7.067   7.885  14.918  1.00  0.00     0.274 HD
ATOM     11  H12 UNL     1       8.469   7.226  15.101  1.00  0.00     0.274 HD
ATOM     12  H11 UNL     1       7.844   8.099  16.389  1.00  0.00     0.274 HD
ENDBRANCH   8   9
ENDBRANCH   1   8
TORSDOF 2
ENDMDL