MODEL 1
REMARK VINA RESULT: -4.958710459      0.000      0.000
REMARK  2 active torsions:
REMARK  status: ('A' for Active; 'I' for Inactive)
REMARK    1  A    between atoms: N1_1  and  N2_4
REMARK    2  A    between atoms: N2_4  and  N3_6
ROOT
HETATM    1  N3  UNL     1       8.497   9.438  15.675  1.00  0.00    -0.275 N
ATOM      2  H3  UNL     1       7.732   9.795  16.247  1.00  0.00     0.190 HD
HETATM    3  C1  UNL     1       9.675   9.943  15.757  1.00  0.00     0.103 C
HETATM    4  N4  UNL     1      10.936   9.710  15.139  1.00  0.00    -0.377 N
ATOM      5  H4  UNL     1      11.233   9.180  14.319  1.00  0.00     0.160 HD
HETATM    6  C2  UNL     1      11.642  10.520  16.124  1.00  0.00     0.138 C
HETATM    7  C3  UNL     1      10.321  11.014  16.526  1.00  0.00     0.035 A
HETATM    8  C4  UNL     1       9.909  11.487  17.818  1.00  0.00     0.020 A
HETATM    9  C5  UNL     1       9.877  12.384  16.571  1.00  0.00     0.020 A
ENDROOT
BRANCH   1  10
HETATM   10  N2  UNL     1       8.292   8.385  14.781  1.00  0.00    -0.248 N
ATOM     11  H2  UNL     1       8.232   8.542  13.775  1.00  0.00     0.207 HD
BRANCH  10  12
HETATM   12  N1  UNL     1       8.182   7.206  15.287  1.00  0.00    -0.331 N
ATOM     13  H12 UNL     1       8.451   7.028  16.254  1.00  0.00     0.178 HD
ATOM     14  H11 UNL     1       7.818   6.476  14.676  1.00  0.00     0.178 HD
ENDBRANCH  10  12
ENDBRANCH   1  10
TORSDOF 2
ENDMDL