MODEL 4
REMARK VINA RESULT: -3.820792386      1.325      1.616
REMARK  2 active torsions:
REMARK  status: ('A' for Active; 'I' for Inactive)
REMARK    1  A    between atoms: C3_5  and  N2_6
REMARK    2  A    between atoms: N2_6  and  C4_8
ROOT
HETATM    1  C1  UNL     1       9.824  12.497  16.859  1.00  0.00     0.037 C
HETATM    2  C2  UNL     1      10.747  11.859  16.403  1.00  0.00    -0.000 C
HETATM    3  N1  UNL     1      11.838  11.129  15.886  1.00  0.00    -0.312 N
ATOM      4  H1  UNL     1      12.603  11.612  15.415  1.00  0.00     0.177 HD
HETATM    5  C3  UNL     1      11.860   9.847  16.013  1.00  0.00     0.184 C
ENDROOT
BRANCH   5   6
HETATM    6  N2  UNL     1      10.836   9.111  16.654  1.00  0.00    -0.381 N
ATOM      7  H2  UNL     1      10.848   9.070  17.673  1.00  0.00     0.160 HD
BRANCH   6   8
HETATM    8  C4  UNL     1       9.788   8.421  15.974  1.00  0.00     0.082 C
HETATM    9  C5  UNL     1       8.376   8.898  16.338  1.00  0.00     0.025 C
HETATM   10  C6  UNL     1       8.389   9.742  15.110  1.00  0.00     0.004 C
HETATM   11  C7  UNL     1       9.511   8.886  14.561  1.00  0.00     0.025 C
ENDBRANCH   6   8
ENDBRANCH   5   6
TORSDOF 2
ENDMDL