MODEL 1
REMARK VINA RESULT: -4.210607145      0.000      0.000
REMARK  2 active torsions:
REMARK  status: ('A' for Active; 'I' for Inactive)
REMARK    1  A    between atoms: N2_4  and  N3_6
REMARK    2  A    between atoms: C1_8  and  C2_9
ROOT
HETATM    1  N3  UNL     1      11.422  11.720  16.180  1.00  0.00    -0.295 N
ATOM      2  H3  UNL     1      12.318  12.205  16.226  1.00  0.00     0.187 HD
HETATM    3  C1  UNL     1      11.406  10.504  15.781  1.00  0.00     0.145 C
ENDROOT
BRANCH   1   4
HETATM    4  N2  UNL     1      10.270  12.414  16.555  1.00  0.00    -0.250 N
HETATM    5  N1  UNL     1       9.761  12.270  17.694  1.00  0.00    -0.331 N
ATOM      6  H12 UNL     1      10.211  11.629  18.348  1.00  0.00     0.178 HD
ATOM      7  H11 UNL     1       8.920  12.776  17.968  1.00  0.00     0.178 HD
ATOM      8  H2  UNL     1       9.832  13.050  15.889  1.00  0.00     0.207 HD
ENDBRANCH   1   4
BRANCH   3   9
HETATM    9  C2  UNL     1      10.132   9.764  15.699  1.00  0.00     0.091 A
HETATM   10  C3  UNL     1       9.637   9.200  14.531  1.00  0.00     0.040 A
HETATM   11  C4  UNL     1       8.429   8.588  14.821  1.00  0.00     0.027 A
HETATM   12  C5  UNL     1       8.251   8.814  16.172  1.00  0.00     0.142 A
HETATM   13  O1  UNL     1       9.282   9.510  16.642  1.00  0.00    -0.321 OA
ENDBRANCH   3   9
TORSDOF 2
ENDMDL