MODEL 1
REMARK VINA RESULT: -3.964804604      0.000      0.000
REMARK  2 active torsions:
REMARK  status: ('A' for Active; 'I' for Inactive)
REMARK    1  A    between atoms: N1_1  and  N2_4
REMARK    2  A    between atoms: N2_4  and  N3_6
ROOT
HETATM    1  N3  UNL     1       8.401   9.348  15.434  1.00  0.00    -0.275 N
ATOM      2  H3  UNL     1       7.512   9.678  15.808  1.00  0.00     0.189 HD
HETATM    3  C1  UNL     1       9.449  10.087  15.568  1.00  0.00     0.093 C
HETATM    4  C2  UNL     1       9.444  11.409  16.244  1.00  0.00     0.079 C
HETATM    5  C3  UNL     1      10.890  11.733  16.516  1.00  0.00     0.027 C
HETATM    6  C4  UNL     1      11.712  10.603  15.954  1.00  0.00     0.121 C
HETATM    7  N4  UNL     1      10.788   9.858  15.141  1.00  0.00    -0.379 N
ATOM      8  H4  UNL     1      11.054   9.250  14.366  1.00  0.00     0.160 HD
ENDROOT
BRANCH   1   9
HETATM    9  N2  UNL     1       8.447   8.105  14.788  1.00  0.00    -0.248 N
ATOM     10  H2  UNL     1       8.739   8.034  13.814  1.00  0.00     0.207 HD
BRANCH   9  11
HETATM   11  N1  UNL     1       8.112   7.054  15.455  1.00  0.00    -0.331 N
ATOM     12  H12 UNL     1       7.126   6.836  15.596  1.00  0.00     0.178 HD
ATOM     13  H11 UNL     1       8.852   6.459  15.829  1.00  0.00     0.178 HD
ENDBRANCH   9  11
ENDBRANCH   1   9
TORSDOF 2
ENDMDL