MODEL 1
REMARK VINA RESULT: -4.668903864      0.000      0.000
REMARK  2 active torsions:
REMARK  status: ('A' for Active; 'I' for Inactive)
REMARK    1  A    between atoms: C3_3  and  C4_4
REMARK    2  A    between atoms: C4_4  and  N1_5
ROOT
HETATM    1  C1  UNL     1       9.933  12.491  16.809  1.00  0.00     0.012 C
HETATM    2  C2  UNL     1       9.896  11.495  17.511  1.00  0.00    -0.116 C
HETATM    3  C3  UNL     1       9.827  10.298  18.351  1.00  0.00     0.114 C
ENDROOT
BRANCH   3   4
HETATM    4  C4  UNL     1      10.570   9.190  17.602  1.00  0.00     0.158 C
BRANCH   4   5
HETATM    5  N1  UNL     1       9.950   9.096  16.296  1.00  0.00    -0.285 N
HETATM    6  C5  UNL     1       8.697   8.704  16.076  1.00  0.00     0.126 A
HETATM    7  C6  UNL     1       8.442   8.733  14.711  1.00  0.00     0.123 A
HETATM    8  N2  UNL     1       9.585   9.152  14.153  1.00  0.00    -0.294 N
HETATM    9  N3  UNL     1      10.483   9.367  15.101  1.00  0.00    -0.021 NA
ATOM     10  H2  UNL     1       9.740   9.284  13.154  1.00  0.00     0.183 HD
ENDBRANCH   4   5
ENDBRANCH   3   4
TORSDOF 2
ENDMDL