MODEL 3
REMARK VINA RESULT: -2.522403882      1.159      1.496
REMARK  2 active torsions:
REMARK  status: ('A' for Active; 'I' for Inactive)
REMARK    1  A    between atoms: N1_2  and  C2_4
REMARK    2  A    between atoms: C2_4  and  C3_5
ROOT
HETATM    1  C3  UNL     1      10.060   9.161  16.559  1.00  0.00     0.274 A
HETATM    2  C4  UNL     1       9.352  10.419  16.572  1.00  0.00     0.258 A
HETATM    3  C5  UNL     1       9.791  11.550  17.475  1.00  0.00     0.040 C
HETATM    4  C6  UNL     1      10.704  12.306  16.503  1.00  0.00     0.032 C
HETATM    5  C7  UNL     1      11.480  11.112  15.935  1.00  0.00     0.273 C
HETATM    6  N2  UNL     1      10.426  10.191  15.633  1.00  0.00     0.103 N
ENDROOT
BRANCH   1   7
HETATM    7  C2  UNL     1       9.323   7.953  16.005  1.00  0.00     0.156 C
BRANCH   7   8
HETATM    8  N1  UNL     1       8.090   8.414  15.467  1.00  0.00    -0.406 N
HETATM    9  C1  UNL     1       8.019   8.768  14.240  1.00  0.00     0.112 C
ATOM     10  H1  UNL     1       7.261   8.462  16.060  1.00  0.00     0.158 HD
ENDBRANCH   7   8
ENDBRANCH   1   7
TORSDOF 2
ENDMDL