MODEL 5
REMARK VINA RESULT: -4.398199179      1.215      1.384
REMARK  2 active torsions:
REMARK  status: ('A' for Active; 'I' for Inactive)
REMARK    1  A    between atoms: C3_3  and  C4_4
REMARK    2  A    between atoms: C4_4  and  N1_5
ROOT
HETATM    1  C1  UNL     1       9.938  12.486  16.804  1.00  0.00     0.012 C
HETATM    2  C2  UNL     1       9.888  11.485  17.483  1.00  0.00    -0.116 C
HETATM    3  C3  UNL     1       9.851  10.270  18.310  1.00  0.00     0.115 C
ENDROOT
BRANCH   3   4
HETATM    4  C4  UNL     1      10.570   9.188  17.529  1.00  0.00     0.162 C
BRANCH   4   5
HETATM    5  N1  UNL     1       9.905   9.086  16.250  1.00  0.00    -0.286 N
HETATM    6  C5  UNL     1       8.635   8.667  16.105  1.00  0.00     0.201 A
HETATM    7  N2  UNL     1       8.303   8.681  14.813  1.00  0.00    -0.346 N
HETATM    8  C6  UNL     1       9.380   9.114  14.141  1.00  0.00     0.198 A
ATOM      9  H2  UNL     1       7.404   8.414  14.414  1.00  0.00     0.167 HD
HETATM   10  N3  UNL     1      10.359   9.360  15.038  1.00  0.00    -0.293 N
ATOM     11  H3  UNL     1      11.294   9.701  14.817  1.00  0.00     0.188 HD
ENDBRANCH   4   5
ENDBRANCH   3   4
TORSDOF 2
ENDMDL