MODEL 5
REMARK VINA RESULT: -4.443442658      1.739      3.311
REMARK  2 active torsions:
REMARK  status: ('A' for Active; 'I' for Inactive)
REMARK    1  A    between atoms: C3_3  and  C4_4
REMARK    2  A    between atoms: C4_4  and  N1_5
ROOT
HETATM    1  C1  UNL     1      11.220   8.267  18.222  1.00  0.00     0.012 C
HETATM    2  C2  UNL     1      10.389   9.146  18.259  1.00  0.00    -0.116 C
HETATM    3  C3  UNL     1       9.382  10.218  18.323  1.00  0.00     0.123 C
ENDROOT
BRANCH   3   4
HETATM    4  C4  UNL     1       9.922  11.394  17.596  1.00  0.00     0.287 C
BRANCH   4   5
HETATM    5  N1  UNL     1      10.120  11.270  16.206  1.00  0.00     0.114 N
HETATM    6  C5  UNL     1       9.062  10.494  15.628  1.00  0.00     0.301 C
HETATM    7  C6  UNL     1       9.804   9.405  14.902  1.00  0.00     0.200 C
HETATM    8  O1  UNL     1      11.135   9.657  14.960  1.00  0.00    -0.361 OA
HETATM    9  C7  UNL     1      11.331  10.836  15.695  1.00  0.00     0.440 C
ENDBRANCH   4   5
ENDBRANCH   3   4
TORSDOF 2
ENDMDL