MODEL 5
REMARK VINA RESULT: -3.060012775      1.476      1.781
REMARK  3 active torsions:
REMARK  status: ('A' for Active; 'I' for Inactive)
REMARK    1  A    between atoms: N1_1  and  C1_5
REMARK    2  A    between atoms: C1_5  and  C2_6
REMARK    3  A    between atoms: C2_6  and  N2_7
ROOT
HETATM    1  N2  UNL     1       9.880   9.937  16.041  1.00  0.00    -0.365 N
HETATM    2  C3  UNL     1       9.844  11.284  15.954  1.00  0.00     0.090 A
HETATM    3  C4  UNL     1       9.798  12.065  17.088  1.00  0.00     0.017 A
HETATM    4  C5  UNL     1       9.787  11.453  18.329  1.00  0.00     0.003 A
HETATM    5  C6  UNL     1       9.824  10.061  18.391  1.00  0.00     0.017 A
HETATM    6  C7  UNL     1       9.871   9.316  17.232  1.00  0.00     0.090 A
ENDROOT
BRANCH   1   7
HETATM    7  C2  UNL     1       9.928   9.180  14.822  1.00  0.00     0.155 C
BRANCH   7   8
HETATM    8  C1  UNL     1       8.549   8.844  14.298  1.00  0.00     0.249 C
BRANCH   8   9
HETATM    9  N1  UNL     1       7.841   8.158  15.361  1.00  0.00    -0.078 N
ATOM     10  H13 UNL     1       6.952   8.598  15.599  1.00  0.00     0.274 HD
ATOM     11  H12 UNL     1       7.466   7.255  15.073  1.00  0.00     0.274 HD
ATOM     12  H11 UNL     1       8.479   8.091  16.154  1.00  0.00     0.274 HD
ENDBRANCH   8   9
ENDBRANCH   7   8
ENDBRANCH   1   7
TORSDOF 3
ENDMDL