MODEL 5
REMARK VINA RESULT: -6.654564786      3.617      6.639
REMARK  16 active torsions:
REMARK  status: ('A' for Active; 'I' for Inactive)
REMARK    1  A    between atoms: C2_2  and  N1_3
REMARK    2  A    between atoms: C8_12  and  N2_13
REMARK    3  A    between atoms: C9_15  and  N3_16
REMARK    4  A    between atoms: C9_15  and  C21_44
REMARK       I    between atoms: C10_18  and  N4_19
REMARK       I    between atoms: C10_18  and  N8_27
REMARK    5  A    between atoms: N4_19  and  C11_21
REMARK    6  A    between atoms: C11_21  and  N5_22
REMARK    7  A    between atoms: N8_27  and  C13_29
REMARK    8  A    between atoms: C13_29  and  N9_31
REMARK    9  A    between atoms: N9_31  and  C14_33
REMARK   10  A    between atoms: C14_33  and  C15_34
REMARK   11  A    between atoms: C15_34  and  C16_35
REMARK   12  A    between atoms: C16_35  and  C17_36
REMARK   13  A    between atoms: C17_36  and  C18_37
REMARK   14  A    between atoms: C18_37  and  C19_38
REMARK   15  A    between atoms: C19_38  and  C20_39
REMARK   16  A    between atoms: C20_39  and  N10_40
ROOT
HETATM    1  N3  UNL     1     -12.884   9.240  14.019  1.00  0.00    -0.170 N
ATOM      2  H3  UNL     1     -12.298   8.727  14.677  1.00  0.00     0.186 HD
HETATM    3  C10 UNL     1     -12.537   9.227  12.773  1.00  0.00     0.683 C
HETATM    4  N4  UNL     1     -11.357   8.492  12.439  1.00  0.00    -0.210 N
ATOM      5  H4  UNL     1     -10.676   8.903  11.799  1.00  0.00     0.179 HD
HETATM    6  N8  UNL     1     -13.241   9.881  11.743  1.00  0.00    -0.166 N
ATOM      7  H8  UNL     1     -13.570  10.829  11.929  1.00  0.00     0.186 HD
ENDROOT
BRANCH   1   8
HETATM    8  C9  UNL     1     -14.013   9.911  14.536  1.00  0.00     0.195 C
HETATM    9  N2  UNL     1     -15.013   9.355  15.090  1.00  0.00    -0.358 N
ATOM     10  H2  UNL     1     -15.725  10.019  15.395  1.00  0.00     0.162 HD
BRANCH   9  11
HETATM   11  C8  UNL     1     -15.339   8.039  15.366  1.00  0.00     0.072 C
HETATM   12  C2  UNL     1     -15.847   7.212  14.215  1.00  0.00     0.146 C
HETATM   13  C1  UNL     1     -16.556   7.974  13.154  1.00  0.00     0.049 C
HETATM   14  C3  UNL     1     -16.726   6.168  14.887  1.00  0.00     0.050 C
HETATM   15  C4  UNL     1     -16.533   6.387  16.364  1.00  0.00    -0.032 C
HETATM   16  C5  UNL     1     -17.546   5.781  17.232  1.00  0.00     0.016 C
HETATM   17  C6  UNL     1     -15.101   6.042  16.689  1.00  0.00     0.012 C
HETATM   18  C22 UNL     1     -16.478   7.901  16.405  1.00  0.00    -0.013 C
HETATM   19  C7  UNL     1     -14.297   7.196  16.072  1.00  0.00     0.035 C
HETATM   20  C23 UNL     1     -17.721   8.574  15.974  1.00  0.00     0.018 C
HETATM   21  C24 UNL     1     -16.039   8.457  17.721  1.00  0.00     0.018 C
BRANCH  12  22
HETATM   22  N1  UNL     1     -14.722   6.524  13.597  1.00  0.00    -0.068 N
ATOM     23  H13 UNL     1     -14.423   6.960  12.725  1.00  0.00     0.275 HD
ATOM     24  H12 UNL     1     -13.851   6.646  14.115  1.00  0.00     0.275 HD
ATOM     25  H11 UNL     1     -14.977   5.543  13.481  1.00  0.00     0.275 HD
ENDBRANCH  12  22
ENDBRANCH   9  11
BRANCH   8  26
HETATM   26  C21 UNL     1     -13.980  11.386  14.411  1.00  0.00     0.245 C
HETATM   27  O1  UNL     1     -13.212  12.008  15.164  1.00  0.00    -0.642 OA
HETATM   28  O2  UNL     1     -14.762  12.066  13.498  1.00  0.00    -0.642 OA
ENDBRANCH   8  26
ENDBRANCH   1   8
BRANCH   4  29
HETATM   29  C11 UNL     1     -11.113   7.195  12.982  1.00  0.00     0.264 C
BRANCH  29  30
HETATM   30  N5  UNL     1      -9.752   7.030  13.328  1.00  0.00    -0.350 N
HETATM   31  C12 UNL     1      -8.887   6.236  12.845  1.00  0.00     0.198 C
HETATM   32  N6  UNL     1      -7.547   6.264  13.381  1.00  0.00    -0.067 NA
HETATM   33  N7  UNL     1      -9.112   5.291  11.798  1.00  0.00    -0.067 NA
ATOM     34  H5  UNL     1      -9.416   7.637  14.076  1.00  0.00     0.163 HD
ENDBRANCH  29  30
ENDBRANCH   4  29
BRANCH   6  35
HETATM   35  C13 UNL     1     -13.529   9.329  10.467  1.00  0.00     0.186 C
HETATM   36  S1  UNL     1     -13.224  10.121   9.080  1.00  0.00    -0.040 SA
BRANCH  35  37
HETATM   37  N9  UNL     1     -14.101   8.034  10.401  1.00  0.00    -0.367 N
ATOM     38  H9  UNL     1     -13.680   7.259  10.913  1.00  0.00     0.161 HD
BRANCH  37  39
HETATM   39  C14 UNL     1     -15.272   7.824   9.611  1.00  0.00     0.122 C
BRANCH  39  40
HETATM   40  C15 UNL     1     -15.463   6.377   9.194  1.00  0.00     0.020 C
BRANCH  40  41
HETATM   41  C16 UNL     1     -15.949   5.528  10.316  1.00  0.00     0.002 C
BRANCH  41  42
HETATM   42  C17 UNL     1     -15.022   4.373  10.542  1.00  0.00     0.000 C
BRANCH  42  43
HETATM   43  C18 UNL     1     -13.935   4.356   9.523  1.00  0.00     0.002 C
BRANCH  43  44
HETATM   44  C19 UNL     1     -12.578   4.234  10.203  1.00  0.00     0.027 C
BRANCH  44  45
HETATM   45  C20 UNL     1     -12.753   4.034  11.689  1.00  0.00     0.229 C
BRANCH  45  46
HETATM   46  N10 UNL     1     -11.478   3.594  12.241  1.00  0.00    -0.079 N
ATOM     47 3H10 UNL     1     -10.744   3.534  11.536  1.00  0.00     0.274 HD
ATOM     48 2H10 UNL     1     -11.042   4.300  12.835  1.00  0.00     0.274 HD
ATOM     49 1H10 UNL     1     -11.629   2.710  12.728  1.00  0.00     0.274 HD
ENDBRANCH  45  46
ENDBRANCH  44  45
ENDBRANCH  43  44
ENDBRANCH  42  43
ENDBRANCH  41  42
ENDBRANCH  40  41
ENDBRANCH  39  40
ENDBRANCH  37  39
ENDBRANCH  35  37
ENDBRANCH   6  35
TORSDOF 16
ENDMDL