MODEL 5
REMARK VINA RESULT: -7.705214436      3.171      6.459
REMARK  11 active torsions:
REMARK  status: ('A' for Active; 'I' for Inactive)
REMARK    1  A    between atoms: C2_2  and  O1_3
REMARK    2  A    between atoms: C2_2  and  C3_5
REMARK    3  A    between atoms: C4_8  and  O2_9
REMARK    4  A    between atoms: C5_11  and  N2_12
REMARK    5  A    between atoms: N2_12  and  C6_14
REMARK    6  A    between atoms: C6_14  and  C7_18
REMARK    7  A    between atoms: C7_18  and  C8_19
REMARK    8  A    between atoms: C8_19  and  C9_20
REMARK    9  A    between atoms: C9_20  and  C10_21
REMARK   10  A    between atoms: C10_21  and  C11_22
REMARK   11  A    between atoms: C11_22  and  N4_23
ROOT
HETATM    1  C3  UNL     1     -14.329   4.074  11.820  1.00  0.00     0.204 C
HETATM    2  N1  UNL     1     -15.312   5.085  11.858  1.00  0.00    -0.354 N
ATOM      3  H1  UNL     1     -14.916   5.957  11.508  1.00  0.00     0.162 HD
HETATM    4  C4  UNL     1     -16.631   5.288  12.213  1.00  0.00     0.159 C
HETATM    5  C5  UNL     1     -17.350   5.460  13.502  1.00  0.00     0.061 C
HETATM    6  C13 UNL     1     -16.536   5.909  14.661  1.00  0.00     0.061 C
HETATM    7  C14 UNL     1     -16.204   7.397  14.464  1.00  0.00     0.006 C
HETATM    8  C15 UNL     1     -15.868   8.055  15.765  1.00  0.00     0.000 C
HETATM    9  C16 UNL     1     -14.803   9.083  15.562  1.00  0.00     0.000 C
HETATM   10  C17 UNL     1     -15.127   9.996  14.419  1.00  0.00     0.004 C
HETATM   11  C18 UNL     1     -13.865  10.249  13.584  1.00  0.00     0.027 C
HETATM   12  C19 UNL     1     -14.266  10.276  12.167  1.00  0.00    -0.031 C
HETATM   13  C20 UNL     1     -13.546   9.793  11.199  1.00  0.00    -0.030 C
HETATM   14  C21 UNL     1     -12.229   9.148  11.355  1.00  0.00     0.030 C
HETATM   15  C22 UNL     1     -12.105   7.959  10.444  1.00  0.00     0.054 C
HETATM   16  C23 UNL     1     -11.947   6.633  11.177  1.00  0.00     0.121 C
HETATM   17  C24 UNL     1     -10.429   6.369  11.143  1.00  0.00     0.068 C
HETATM   18  C25 UNL     1      -9.965   6.723  12.512  1.00  0.00     0.134 C
HETATM   19  N7  UNL     1     -11.152   6.684  13.342  1.00  0.00    -0.146 NA
HETATM   20  N8  UNL     1     -12.219   6.836  12.523  1.00  0.00    -0.116 NA
HETATM   21  N9  UNL     1     -12.656   5.583  10.481  1.00  0.00    -0.335 N
ATOM     22  H9  UNL     1     -12.783   5.774   9.487  1.00  0.00     0.164 HD
HETATM   23  C26 UNL     1     -13.196   4.383  10.873  1.00  0.00     0.244 C
HETATM   24  O3  UNL     1     -12.666   3.319  10.358  1.00  0.00    -0.271 OA
ENDROOT
BRANCH   5  25
HETATM   25  N2  UNL     1     -18.355   4.481  13.761  1.00  0.00    -0.346 N
ATOM     26  H2  UNL     1     -19.307   4.832  13.857  1.00  0.00     0.167 HD
BRANCH  25  27
HETATM   27  C6  UNL     1     -18.188   3.065  13.902  1.00  0.00     0.074 C
HETATM   28  N3  UNL     1     -17.812   2.536  14.999  1.00  0.00    -0.389 N
ATOM     29  H32 UNL     1     -17.638   3.129  15.810  1.00  0.00     0.157 HD
ATOM     30  H31 UNL     1     -17.693   1.528  15.100  1.00  0.00     0.157 HD
BRANCH  27  31
HETATM   31  C7  UNL     1     -18.441   2.205  12.725  1.00  0.00     0.076 C
BRANCH  31  32
HETATM   32  C8  UNL     1     -19.572   2.562  11.855  1.00  0.00     0.007 C
BRANCH  32  33
HETATM   33  C9  UNL     1     -19.401   2.489  10.396  1.00  0.00     0.002 C
BRANCH  33  34
HETATM   34  C10 UNL     1     -18.286   1.699   9.835  1.00  0.00     0.020 C
BRANCH  34  35
HETATM   35  C11 UNL     1     -17.490   2.328   8.736  1.00  0.00     0.122 C
BRANCH  35  36
HETATM   36  N4  UNL     1     -16.699   3.451   9.093  1.00  0.00    -0.367 N
HETATM   37  C12 UNL     1     -16.406   4.401   8.272  1.00  0.00     0.196 C
HETATM   38  N5  UNL     1     -16.883   4.368   6.912  1.00  0.00    -0.067 NA
HETATM   39  N6  UNL     1     -15.608   5.498   8.695  1.00  0.00    -0.067 NA
ATOM     40  H4  UNL     1     -16.343   3.510  10.047  1.00  0.00     0.161 HD
ENDBRANCH  35  36
ENDBRANCH  34  35
ENDBRANCH  33  34
ENDBRANCH  32  33
ENDBRANCH  31  32
ENDBRANCH  27  31
ENDBRANCH  25  27
ENDBRANCH   5  25
BRANCH   4  41
HETATM   41  O2  UNL     1     -17.525   5.363  11.229  1.00  0.00    -0.345 OA
ATOM     42  H2  UNL     1     -17.786   6.230  10.941  1.00  0.00     0.219 HD
ENDBRANCH   4  41
BRANCH   1  43
HETATM   43  C2  UNL     1     -13.700   3.574  13.081  1.00  0.00     0.146 C
HETATM   44  C1  UNL     1     -14.664   2.708  13.868  1.00  0.00     0.042 C
BRANCH  43  45
HETATM   45  O1  UNL     1     -13.406   4.627  13.980  1.00  0.00    -0.393 OA
ATOM     46  H1  UNL     1     -13.460   5.401  13.432  1.00  0.00     0.210 HD
ENDBRANCH  43  45
ENDBRANCH   1  43
TORSDOF 11
ENDMDL