MODEL 1
REMARK VINA RESULT: -9.665187958      0.000      0.000
REMARK  10 active torsions:
REMARK  status: ('A' for Active; 'I' for Inactive)
REMARK    1  A    between atoms: C3_5  and  N2_6
REMARK    2  A    between atoms: C4_11  and  N4_12
REMARK    3  A    between atoms: C5_15  and  C6_16
REMARK       I    between atoms: C6_16  and  N5_18
REMARK    4  A    between atoms: N5_18  and  C7_20
REMARK    5  A    between atoms: C12_25  and  C13_26
REMARK    6  A    between atoms: C14_27  and  C15_28
REMARK       I    between atoms: C15_28  and  N6_30
REMARK    7  A    between atoms: N6_30  and  C16_32
REMARK    8  A    between atoms: C18_34  and  C19_35
REMARK    9  A    between atoms: C19_35  and  C20_36
REMARK   10  A    between atoms: C20_36  and  N7_37
REMARK       I    between atoms: N7_37  and  C21_39
ROOT
HETATM    1  C7  UNL     1     -14.039   3.942  12.805  1.00  0.00     0.092 C
HETATM    2  C8  UNL     1     -14.591   4.572  11.590  1.00  0.00     0.026 C
HETATM    3  C9  UNL     1     -14.962   6.028  11.838  1.00  0.00     0.002 C
HETATM    4  C10 UNL     1     -15.379   6.250  13.250  1.00  0.00     0.001 C
HETATM    5  C11 UNL     1     -16.024   4.985  13.813  1.00  0.00     0.010 C
HETATM    6  C12 UNL     1     -15.034   3.893  13.996  1.00  0.00     0.031 C
ENDROOT
BRANCH   6   7
HETATM    7  C13 UNL     1     -15.629   2.527  14.033  1.00  0.00    -0.015 C
HETATM    8  C14 UNL     1     -16.993   2.149  13.875  1.00  0.00     0.070 C
BRANCH   8   9
HETATM    9  C15 UNL     1     -17.861   2.328  12.747  1.00  0.00     0.241 C
HETATM   10  O2  UNL     1     -19.084   2.238  12.730  1.00  0.00    -0.269 OA
HETATM   11  N6  UNL     1     -17.290   2.657  11.446  1.00  0.00    -0.351 N
ATOM     12  H6  UNL     1     -16.279   2.766  11.358  1.00  0.00     0.163 HD
BRANCH  11  13
HETATM   13  C16 UNL     1     -18.113   2.829  10.294  1.00  0.00     0.118 C
HETATM   14  C17 UNL     1     -17.394   2.626   9.005  1.00  0.00     0.032 C
HETATM   15  C18 UNL     1     -18.328   2.900   7.859  1.00  0.00    -0.005 C
HETATM   16  C22 UNL     1     -19.064   4.205   8.005  1.00  0.00     0.020 C
HETATM   17  C23 UNL     1     -19.960   4.011   9.248  1.00  0.00     0.044 C
HETATM   18  C26 UNL     1     -18.264   5.373   8.441  1.00  0.00     0.277 C
HETATM   19  C24 UNL     1     -18.869   4.159  10.327  1.00  0.00     0.245 C
HETATM   20  N10 UNL     1     -18.160   5.276   9.873  1.00  0.00     0.091 N
HETATM   21  C25 UNL     1     -18.382   6.514  10.556  1.00  0.00     0.310 C
BRANCH  15  22
HETATM   22  C19 UNL     1     -17.782   2.624   6.517  1.00  0.00     0.025 C
BRANCH  22  23
HETATM   23  C20 UNL     1     -17.146   1.326   6.237  1.00  0.00     0.122 C
BRANCH  23  24
HETATM   24  N7  UNL     1     -17.926   0.580   5.256  1.00  0.00    -0.365 N
HETATM   25  C21 UNL     1     -18.706  -0.559   5.591  1.00  0.00     0.181 C
HETATM   26  N8  UNL     1     -18.892  -1.454   4.649  1.00  0.00    -0.374 N
HETATM   27  N9  UNL     1     -19.295  -0.827   6.832  1.00  0.00    -0.064 NA
ATOM     28  H82 UNL     1     -18.463  -1.259   3.745  1.00  0.00     0.158 HD
ATOM     29  H81 UNL     1     -19.452  -2.271   4.889  1.00  0.00     0.158 HD
ATOM     30  H7  UNL     1     -17.911   0.890   4.284  1.00  0.00     0.162 HD
ENDBRANCH  23  24
ENDBRANCH  22  23
ENDBRANCH  15  22
ENDBRANCH  11  13
ENDBRANCH   8   9
ENDBRANCH   6   7
BRANCH   1  31
HETATM   31  N5  UNL     1     -12.775   4.527  13.186  1.00  0.00    -0.351 N
HETATM   32  C6  UNL     1     -11.648   4.442  12.311  1.00  0.00     0.257 C
HETATM   33  O1  UNL     1     -11.780   3.819  11.201  1.00  0.00    -0.267 OA
ATOM     34  H5  UNL     1     -12.686   5.002  14.084  1.00  0.00     0.163 HD
BRANCH  32  35
HETATM   35  C5  UNL     1     -10.336   4.997  12.563  1.00  0.00     0.098 A
HETATM   36  C2  UNL     1     -10.277   6.356  12.860  1.00  0.00     0.042 A
HETATM   37  C1  UNL     1     -11.503   7.189  12.811  1.00  0.00     0.070 C
HETATM   38  N1  UNL     1      -9.107   6.906  13.156  1.00  0.00    -0.195 N
HETATM   39  C3  UNL     1      -7.977   6.185  13.177  1.00  0.00     0.677 A
ATOM     40  H1  UNL     1      -9.066   7.902  13.374  1.00  0.00     0.184 HD
HETATM   41  N3  UNL     1      -8.031   4.898  12.897  1.00  0.00    -0.176 N
HETATM   42  C4  UNL     1      -9.186   4.220  12.576  1.00  0.00     0.132 A
ATOM     43  H3  UNL     1      -7.159   4.369  12.920  1.00  0.00     0.186 HD
BRANCH  39  44
HETATM   44  N2  UNL     1      -6.885   6.787  13.476  1.00  0.00    -0.234 N
ATOM     45  H22 UNL     1      -6.526   7.581  12.944  1.00  0.00     0.174 HD
ATOM     46  H21 UNL     1      -6.358   6.449  14.282  1.00  0.00     0.174 HD
ENDBRANCH  39  44
BRANCH  42  47
HETATM   47  N4  UNL     1      -9.147   2.973  12.353  1.00  0.00    -0.384 N
ATOM     48  H42 UNL     1      -9.909   2.321  12.538  1.00  0.00     0.157 HD
ATOM     49  H41 UNL     1      -8.296   2.547  11.987  1.00  0.00     0.157 HD
ENDBRANCH  42  47
ENDBRANCH  32  35
ENDBRANCH   1  31
TORSDOF 10
ENDMDL