MODEL 4
REMARK VINA RESULT: -8.478567521      1.263      2.125
REMARK  12 active torsions:
REMARK  status: ('A' for Active; 'I' for Inactive)
REMARK    1  A    between atoms: C2_2  and  C3_3
REMARK    2  A    between atoms: C3_3  and  C4_4
REMARK    3  A    between atoms: C4_4  and  N1_5
REMARK       I    between atoms: N1_5  and  C5_7
REMARK       I    between atoms: C5_7  and  N3_11
REMARK    4  A    between atoms: N3_11  and  C6_13
REMARK    5  A    between atoms: C6_13  and  C7_14
REMARK    6  A    between atoms: C7_14  and  C8_15
REMARK    7  A    between atoms: N4_17  and  C10_18
REMARK    8  A    between atoms: C10_18  and  C11_19
REMARK    9  A    between atoms: C21_31  and  N6_32
REMARK   10  A    between atoms: C22_37  and  N8_38
REMARK   11  A    between atoms: C23_41  and  C24_42
REMARK   12  A    between atoms: C24_42  and  O1_43
ROOT
HETATM    1  C8  UNL     1     -15.763   4.688  12.257  1.00  0.00     0.117 C
HETATM    2  C9  UNL     1     -15.287   5.572  11.087  1.00  0.00     0.090 C
HETATM    3  N4  UNL     1     -14.121   5.127  10.444  1.00  0.00    -0.345 N
HETATM    4  C17 UNL     1     -13.056   4.712  11.243  1.00  0.00     0.198 C
HETATM    5  C18 UNL     1     -11.700   4.639  10.636  1.00  0.00     0.092 C
HETATM    6  C19 UNL     1     -10.634   5.109  11.548  1.00  0.00     0.015 A
HETATM    7  C20 UNL     1     -10.797   6.280  12.307  1.00  0.00     0.061 A
HETATM    8  N5  UNL     1      -9.872   6.762  13.095  1.00  0.00    -0.193 N
ATOM      9  H5  UNL     1     -10.034   7.617  13.628  1.00  0.00     0.184 HD
HETATM   10  C21 UNL     1      -8.703   6.107  13.186  1.00  0.00     0.677 A
HETATM   11  N7  UNL     1      -8.493   4.987  12.485  1.00  0.00    -0.177 N
ATOM     12  H7  UNL     1      -7.590   4.522  12.583  1.00  0.00     0.185 HD
HETATM   13  C22 UNL     1      -9.412   4.430  11.646  1.00  0.00     0.123 A
HETATM   14  C23 UNL     1     -12.159   6.847  12.128  1.00  0.00     0.164 C
HETATM   15  N9  UNL     1     -12.958   5.660  12.362  1.00  0.00    -0.316 N
HETATM   16  C25 UNL     1     -13.395   5.713  13.688  1.00  0.00     0.244 C
HETATM   17  O2  UNL     1     -12.544   6.231  14.479  1.00  0.00    -0.271 OA
HETATM   18  C26 UNL     1     -14.654   5.275  14.325  1.00  0.00     0.166 C
HETATM   19  C27 UNL     1     -14.842   5.823  15.712  1.00  0.00     0.042 C
HETATM   20  N10 UNL     1     -15.776   5.460  13.478  1.00  0.00    -0.401 N
ATOM     21  H10 UNL     1     -16.540   6.093  13.715  1.00  0.00     0.154 HD
ENDROOT
BRANCH   1  22
HETATM   22  C7  UNL     1     -17.220   4.313  11.970  1.00  0.00     0.050 C
BRANCH  22  23
HETATM   23  C6  UNL     1     -17.500   2.858  12.052  1.00  0.00     0.140 C
BRANCH  23  24
HETATM   24  N3  UNL     1     -18.883   2.636  11.600  1.00  0.00    -0.227 N
HETATM   25  C5  UNL     1     -19.169   2.299  10.245  1.00  0.00     0.667 C
HETATM   26  N1  UNL     1     -19.496   3.400   9.393  1.00  0.00    -0.227 N
HETATM   27  N2  UNL     1     -19.145   1.098   9.777  1.00  0.00    -0.235 N
ATOM     28  H1  UNL     1     -18.940   3.563   8.553  1.00  0.00     0.177 HD
ATOM     29  H22 UNL     1     -19.349   0.857   8.808  1.00  0.00     0.174 HD
ATOM     30  H21 UNL     1     -18.911   0.313  10.385  1.00  0.00     0.174 HD
ATOM     31  H3  UNL     1     -19.649   2.725  12.267  1.00  0.00     0.177 HD
BRANCH  26  32
HETATM   32  C4  UNL     1     -20.587   4.283   9.689  1.00  0.00     0.138 C
BRANCH  32  33
HETATM   33  C3  UNL     1     -21.917   3.732   9.241  1.00  0.00     0.020 C
BRANCH  33  34
HETATM   34  C2  UNL     1     -22.707   3.272  10.445  1.00  0.00    -0.003 C
HETATM   35  C1  UNL     1     -22.812   1.763  10.451  1.00  0.00     0.005 C
ENDBRANCH  33  34
ENDBRANCH  32  33
ENDBRANCH  26  32
ENDBRANCH  23  24
ENDBRANCH  22  23
ENDBRANCH   1  22
BRANCH   3  36
HETATM   36  C10 UNL     1     -14.113   4.889   9.074  1.00  0.00     0.103 C
BRANCH  36  37
HETATM   37  C11 UNL     1     -14.507   3.501   8.643  1.00  0.00    -0.021 A
HETATM   38  C12 UNL     1     -15.811   3.088   8.656  1.00  0.00     0.013 A
HETATM   39  C13 UNL     1     -16.121   1.817   8.260  1.00  0.00     0.001 A
HETATM   40  C14 UNL     1     -15.152   0.933   7.845  1.00  0.00     0.000 A
HETATM   41  C15 UNL     1     -13.828   1.324   7.821  1.00  0.00     0.001 A
HETATM   42  C16 UNL     1     -13.552   2.604   8.224  1.00  0.00     0.013 A
ENDBRANCH  36  37
ENDBRANCH   3  36
BRANCH  14  43
HETATM   43  C24 UNL     1     -12.512   8.130  12.652  1.00  0.00     0.196 C
BRANCH  43  44
HETATM   44  O1  UNL     1     -11.355   8.704  13.281  1.00  0.00    -0.398 OA
ATOM     45  H1  UNL     1     -11.166   9.539  12.867  1.00  0.00     0.209 HD
ENDBRANCH  43  44
ENDBRANCH  14  43
BRANCH  13  46
HETATM   46  N8  UNL     1      -9.165   3.376  11.000  1.00  0.00    -0.385 N
ATOM     47  H82 UNL     1      -9.911   2.802  10.607  1.00  0.00     0.157 HD
ATOM     48  H81 UNL     1      -8.216   3.037  10.842  1.00  0.00     0.157 HD
ENDBRANCH  13  46
BRANCH  10  49
HETATM   49  N6  UNL     1      -7.757   6.566  13.968  1.00  0.00    -0.234 N
ATOM     50  H62 UNL     1      -7.489   7.548  13.908  1.00  0.00     0.174 HD
ATOM     51  H61 UNL     1      -7.297   5.940  14.630  1.00  0.00     0.174 HD
ENDBRANCH  10  49
TORSDOF 12
ENDMDL