MODEL 1
REMARK VINA RESULT: -7.649958064      0.000      0.000
REMARK  12 active torsions:
REMARK  status: ('A' for Active; 'I' for Inactive)
REMARK    1  A    between atoms: N1_2  and  C2_5
REMARK    2  A    between atoms: C13_19  and  C14_20
REMARK    3  A    between atoms: C14_20  and  C15_21
REMARK    4  A    between atoms: C15_21  and  C16_22
REMARK    5  A    between atoms: C16_22  and  N3_23
REMARK       I    between atoms: N3_23  and  C17_25
REMARK    6  A    between atoms: C20_34  and  O1_35
REMARK    7  A    between atoms: C21_37  and  C22_38
REMARK    8  A    between atoms: C22_38  and  C23_39
REMARK    9  A    between atoms: C23_39  and  C24_40
REMARK   10  A    between atoms: C24_40  and  C25_41
REMARK   11  A    between atoms: C25_41  and  N7_42
REMARK   12  A    between atoms: C26_48  and  O2_49
ROOT
HETATM    1  C2  UNL     1     -15.922   9.747  17.308  1.00  0.00     0.263 C
HETATM    2  C3  UNL     1     -17.122   8.848  17.379  1.00  0.00     0.080 C
HETATM    3  C4  UNL     1     -17.029   7.658  16.422  1.00  0.00    -0.056 A
HETATM    4  C5  UNL     1     -17.712   7.616  15.229  1.00  0.00     0.009 A
HETATM    5  C6  UNL     1     -17.544   6.624  14.211  1.00  0.00     0.029 A
HETATM    6  C7  UNL     1     -16.633   5.625  14.419  1.00  0.00     0.028 A
HETATM    7  C8  UNL     1     -15.963   5.666  15.624  1.00  0.00     0.029 A
HETATM    8  C9  UNL     1     -16.127   6.650  16.641  1.00  0.00     0.009 A
HETATM    9  N2  UNL     1     -16.260   4.715  13.330  1.00  0.00    -0.389 N
ATOM     10  H2  UNL     1     -16.678   3.792  13.212  1.00  0.00     0.159 HD
HETATM   11  C10 UNL     1     -15.201   5.261  12.397  1.00  0.00     0.127 C
HETATM   12  C11 UNL     1     -13.838   4.890  12.803  1.00  0.00     0.035 C
HETATM   13  C12 UNL     1     -13.236   4.095  11.638  1.00  0.00     0.082 C
HETATM   14  S1  UNL     1     -12.174   5.163  10.620  1.00  0.00    -0.164 SA
HETATM   15  C13 UNL     1     -11.001   5.906  11.831  1.00  0.00     0.049 C
HETATM   16  C18 UNL     1     -11.541   5.688  13.220  1.00  0.00     0.040 C
HETATM   17  C19 UNL     1     -13.033   6.024  13.294  1.00  0.00     0.090 C
HETATM   18  N6  UNL     1     -13.313   7.310  12.719  1.00  0.00    -0.368 N
ATOM     19  H6  UNL     1     -13.632   7.251  11.752  1.00  0.00     0.161 HD
HETATM   20  C20 UNL     1     -13.247   8.606  13.185  1.00  0.00     0.135 C
HETATM   21  C21 UNL     1     -14.142   9.411  14.090  1.00  0.00     0.157 C
HETATM   22  N8  UNL     1     -14.227   8.933  15.424  1.00  0.00    -0.361 N
ATOM     23  H8  UNL     1     -13.781   8.019  15.504  1.00  0.00     0.162 HD
HETATM   24  C26 UNL     1     -14.732   9.335  16.651  1.00  0.00     0.143 C
ENDROOT
BRANCH  15  25
HETATM   25  C14 UNL     1      -9.668   5.317  11.566  1.00  0.00     0.017 C
BRANCH  25  26
HETATM   26  C15 UNL     1      -9.518   3.901  12.069  1.00  0.00     0.021 C
BRANCH  26  27
HETATM   27  C16 UNL     1      -8.435   3.788  13.114  1.00  0.00     0.122 C
BRANCH  27  28
HETATM   28  N3  UNL     1      -7.349   4.690  12.902  1.00  0.00    -0.365 N
HETATM   29  C17 UNL     1      -6.929   5.651  13.862  1.00  0.00     0.181 C
HETATM   30  N4  UNL     1      -7.217   6.922  13.715  1.00  0.00    -0.374 N
HETATM   31  N5  UNL     1      -6.193   5.321  15.013  1.00  0.00    -0.064 NA
ATOM     32  H42 UNL     1      -7.751   7.162  12.880  1.00  0.00     0.158 HD
ATOM     33  H41 UNL     1      -6.916   7.611  14.403  1.00  0.00     0.158 HD
ATOM     34  H3  UNL     1      -6.847   4.642  12.015  1.00  0.00     0.162 HD
ENDBRANCH  27  28
ENDBRANCH  26  27
ENDBRANCH  25  26
ENDBRANCH  15  25
BRANCH  20  35
HETATM   35  O1  UNL     1     -12.216   9.305  12.782  1.00  0.00    -0.348 OA
ATOM     36  H1  UNL     1     -12.266  10.242  12.934  1.00  0.00     0.219 HD
ENDBRANCH  20  35
BRANCH  21  37
HETATM   37  C22 UNL     1     -15.401   9.790  13.375  1.00  0.00     0.033 C
BRANCH  37  38
HETATM   38  C23 UNL     1     -15.456  11.216  12.924  1.00  0.00     0.004 C
BRANCH  38  39
HETATM   39  C24 UNL     1     -14.575  12.169  13.639  1.00  0.00     0.027 C
BRANCH  39  40
HETATM   40  C25 UNL     1     -13.804  12.943  12.556  1.00  0.00     0.229 C
BRANCH  40  41
HETATM   41  N7  UNL     1     -12.828  12.074  11.917  1.00  0.00    -0.079 N
ATOM     42  H73 UNL     1     -12.341  11.486  12.593  1.00  0.00     0.274 HD
ATOM     43  H72 UNL     1     -13.273  11.337  11.371  1.00  0.00     0.274 HD
ATOM     44  H71 UNL     1     -12.179  12.626  11.355  1.00  0.00     0.274 HD
ENDBRANCH  40  41
ENDBRANCH  39  40
ENDBRANCH  38  39
ENDBRANCH  37  38
ENDBRANCH  21  37
BRANCH  24  45
HETATM   45  O2  UNL     1     -13.743   9.340  17.572  1.00  0.00    -0.348 OA
ATOM     46  H2  UNL     1     -12.935   9.129  17.119  1.00  0.00     0.219 HD
ENDBRANCH  24  45
BRANCH   1  47
HETATM   47  N1  UNL     1     -16.357  11.069  16.897  1.00  0.00    -0.067 N
HETATM   48  C1  UNL     1     -17.501  10.978  15.989  1.00  0.00     0.267 C
ATOM     49  H12 UNL     1     -15.593  11.608  16.489  1.00  0.00     0.277 HD
ATOM     50  H11 UNL     1     -16.556  11.667  17.699  1.00  0.00     0.277 HD
ENDBRANCH   1  47
TORSDOF 12
ENDMDL