MODEL 2
REMARK VINA RESULT: -9.570733899      1.678      2.309
REMARK  11 active torsions:
REMARK  status: ('A' for Active; 'I' for Inactive)
REMARK    1  A    between atoms: C3_5  and  N2_6
REMARK    2  A    between atoms: C5_15  and  C6_16
REMARK    3  A    between atoms: C6_16  and  C7_17
REMARK    4  A    between atoms: N6_21  and  C9_23
REMARK    5  A    between atoms: C9_23  and  C10_24
REMARK    6  A    between atoms: C10_24  and  C11_25
REMARK    7  A    between atoms: C11_25  and  N7_26
REMARK    8  A    between atoms: N7_26  and  C12_28
REMARK    9  A    between atoms: C12_28  and  C13_29
REMARK   10  A    between atoms: C18_34  and  O1_35
REMARK   11  A    between atoms: N9_44  and  C24_46
ROOT
HETATM    1  C7  UNL     1     -10.212   6.902  12.474  1.00  0.00     0.137 A
HETATM    2  N5  UNL     1     -11.108   6.343  13.422  1.00  0.00    -0.176 N
ATOM      3  H5  UNL     1     -10.813   5.520  13.947  1.00  0.00     0.186 HD
HETATM    4  C8  UNL     1     -12.418   6.889  13.674  1.00  0.00     0.694 A
HETATM    5  N6  UNL     1     -13.148   6.302  14.557  1.00  0.00    -0.225 N
ATOM      6  H6  UNL     1     -12.764   5.484  15.031  1.00  0.00     0.177 HD
HETATM    7  N8  UNL     1     -12.837   8.030  12.952  1.00  0.00    -0.022 N
ATOM      8  H8  UNL     1     -13.762   8.424  13.122  1.00  0.00     0.203 HD
HETATM    9  C23 UNL     1     -11.962   8.648  11.968  1.00  0.00     0.694 A
HETATM   10  N9  UNL     1     -12.394   9.685  11.334  1.00  0.00    -0.221 N
ATOM     11  H9  UNL     1     -13.328  10.039  11.538  1.00  0.00     0.178 HD
HETATM   12  N10 UNL     1     -10.692   8.058  11.774  1.00  0.00    -0.176 N
ATOM     13  H10 UNL     1     -10.072   8.486  11.086  1.00  0.00     0.186 HD
ENDROOT
BRANCH   5  14
HETATM   14  C9  UNL     1     -14.456   6.727  14.909  1.00  0.00     0.139 C
BRANCH  14  15
HETATM   15  C10 UNL     1     -15.466   5.690  14.457  1.00  0.00     0.039 C
BRANCH  15  16
HETATM   16  C11 UNL     1     -16.493   6.319  13.532  1.00  0.00     0.115 C
BRANCH  16  17
HETATM   17  N7  UNL     1     -16.532   5.734  12.237  1.00  0.00    -0.421 N
ATOM     18  H7  UNL     1     -17.404   5.397  11.829  1.00  0.00     0.153 HD
BRANCH  17  19
HETATM   19  C12 UNL     1     -15.299   5.641  11.536  1.00  0.00     0.118 C
BRANCH  19  20
HETATM   20  C13 UNL     1     -14.991   4.183  11.173  1.00  0.00     0.007 C
HETATM   21  C14 UNL     1     -13.534   3.954  11.449  1.00  0.00     0.011 C
HETATM   22  C15 UNL     1     -12.707   4.400  10.255  1.00  0.00     0.039 C
HETATM   23  C16 UNL     1     -13.078   3.495   9.155  1.00  0.00    -0.049 A
HETATM   24  C17 UNL     1     -12.107   2.903   8.391  1.00  0.00     0.044 A
HETATM   25  C21 UNL     1     -14.408   3.260   8.916  1.00  0.00    -0.051 A
HETATM   26  C18 UNL     1     -12.516   2.046   7.356  1.00  0.00     0.066 A
HETATM   27  C19 UNL     1     -13.844   1.792   7.095  1.00  0.00     0.037 A
HETATM   28  C20 UNL     1     -14.807   2.400   7.879  1.00  0.00     0.010 A
HETATM   29  C22 UNL     1     -15.414   3.936   9.770  1.00  0.00     0.045 C
BRANCH  26  30
HETATM   30  O1  UNL     1     -11.575   1.420   6.553  1.00  0.00    -0.361 OA
ATOM     31  H1  UNL     1     -10.750   1.127   6.921  1.00  0.00     0.217 HD
ENDBRANCH  26  30
ENDBRANCH  19  20
ENDBRANCH  17  19
ENDBRANCH  16  17
ENDBRANCH  15  16
ENDBRANCH  14  15
ENDBRANCH   5  14
BRANCH   1  32
HETATM   32  C6  UNL     1      -9.018   6.405  12.210  1.00  0.00     0.067 C
BRANCH  32  33
HETATM   33  C5  UNL     1      -8.245   5.521  13.039  1.00  0.00     0.034 A
HETATM   34  C2  UNL     1      -8.513   4.161  12.919  1.00  0.00     0.036 A
HETATM   35  C1  UNL     1      -9.528   3.673  11.948  1.00  0.00     0.070 C
HETATM   36  N1  UNL     1      -7.843   3.294  13.692  1.00  0.00    -0.195 N
HETATM   37  C3  UNL     1      -6.928   3.739  14.570  1.00  0.00     0.677 A
ATOM     38  H1  UNL     1      -8.029   2.294  13.614  1.00  0.00     0.184 HD
HETATM   39  N3  UNL     1      -6.655   5.043  14.703  1.00  0.00    -0.176 N
HETATM   40  C4  UNL     1      -7.310   5.975  13.940  1.00  0.00     0.127 A
ATOM     41  H3  UNL     1      -5.953   5.345  15.378  1.00  0.00     0.186 HD
HETATM   42  N4  UNL     1      -7.043   7.197  14.134  1.00  0.00    -0.384 N
ATOM     43  H42 UNL     1      -6.350   7.534  14.802  1.00  0.00     0.157 HD
ATOM     44  H41 UNL     1      -7.531   7.891  13.566  1.00  0.00     0.157 HD
BRANCH  37  45
HETATM   45  N2  UNL     1      -6.273   2.916  15.323  1.00  0.00    -0.234 N
ATOM     46  H22 UNL     1      -6.715   2.022  15.536  1.00  0.00     0.174 HD
ATOM     47  H21 UNL     1      -5.351   3.157  15.687  1.00  0.00     0.174 HD
ENDBRANCH  37  45
ENDBRANCH  32  33
ENDBRANCH   1  32
BRANCH  10  48
HETATM   48  C24 UNL     1     -11.593  10.352  10.351  1.00  0.00     0.099 C
HETATM   49  C25 UNL     1     -12.323  11.534   9.742  1.00  0.00     0.026 C
HETATM   50  C26 UNL     1     -12.404  11.318   8.265  1.00  0.00     0.002 C
HETATM   51  C27 UNL     1     -12.141   9.858   8.073  1.00  0.00     0.002 C
HETATM   52  C28 UNL     1     -11.239   9.428   9.193  1.00  0.00     0.026 C
ENDBRANCH  10  48
TORSDOF 11
ENDMDL