MODEL 1
REMARK VINA RESULT: -8.087505084      0.000      0.000
REMARK  9 active torsions:
REMARK  status: ('A' for Active; 'I' for Inactive)
REMARK    1  A    between atoms: C13_23  and  C14_24
REMARK    2  A    between atoms: C14_24  and  N5_25
REMARK       I    between atoms: N5_25  and  C15_27
REMARK       I    between atoms: C15_27  and  N7_31
REMARK    3  A    between atoms: N7_31  and  C16_33
REMARK    4  A    between atoms: C16_33  and  C17_34
REMARK    5  A    between atoms: C17_34  and  S1_35
REMARK    6  A    between atoms: S1_35  and  S2_36
REMARK    7  A    between atoms: S2_36  and  C18_37
REMARK    8  A    between atoms: C18_37  and  C19_38
REMARK    9  A    between atoms: C19_38  and  N8_39
ROOT
HETATM    1  C1  UNL     1     -11.656   1.358   6.873  1.00  0.00     0.068 C
HETATM    2  C2  UNL     1     -12.631   2.216   7.659  1.00  0.00     0.012 A
HETATM    3  N1  UNL     1     -12.418   2.729   8.862  1.00  0.00    -0.359 N
ATOM      4  H1  UNL     1     -11.562   2.611   9.405  1.00  0.00     0.166 HD
HETATM    5  C3  UNL     1     -13.532   3.450   9.272  1.00  0.00     0.032 A
HETATM    6  C4  UNL     1     -14.475   3.377   8.273  1.00  0.00     0.038 A
HETATM    7  C5  UNL     1     -13.921   2.612   7.270  1.00  0.00    -0.034 A
HETATM    8  C6  UNL     1     -14.507   2.212   5.930  1.00  0.00     0.042 C
HETATM    9  C7  UNL     1     -15.375   0.980   6.072  1.00  0.00     0.024 C
HETATM   10  C8  UNL     1     -16.699   1.218   6.720  1.00  0.00     0.125 C
HETATM   11  N2  UNL     1     -17.338  -0.065   6.931  1.00  0.00    -0.343 N
ATOM     12  H2  UNL     1     -16.745  -0.895   6.945  1.00  0.00     0.164 HD
HETATM   13  C9  UNL     1     -18.733  -0.246   7.120  1.00  0.00     0.316 C
HETATM   14  O1  UNL     1     -19.348  -1.241   6.589  1.00  0.00    -0.247 OA
HETATM   15  N3  UNL     1     -19.452   0.692   7.910  1.00  0.00    -0.343 N
ATOM     16  H3  UNL     1     -20.360   1.000   7.561  1.00  0.00     0.164 HD
HETATM   17  C10 UNL     1     -19.002   1.241   9.160  1.00  0.00     0.126 C
HETATM   18  C11 UNL     1     -19.271   2.728   9.284  1.00  0.00     0.047 C
HETATM   19  C12 UNL     1     -18.717   3.229  10.610  1.00  0.00     0.234 C
HETATM   20  N4  UNL     1     -17.679   4.176  10.330  1.00  0.00    -0.069 N
ATOM     21  H41 UNL     1     -18.057   5.020   9.900  1.00  0.00     0.277 HD
ATOM     22  H42 UNL     1     -17.086   3.857   9.564  1.00  0.00     0.277 HD
HETATM   23  C13 UNL     1     -16.879   4.499  11.522  1.00  0.00     0.207 C
HETATM   24  C21 UNL     1     -15.708   3.528  11.600  1.00  0.00     0.062 C
HETATM   25  C22 UNL     1     -14.385   4.180  11.545  1.00  0.00    -0.022 C
HETATM   26  C23 UNL     1     -13.510   4.129  10.569  1.00  0.00     0.025 C
ENDROOT
BRANCH  23  27
HETATM   27  C14 UNL     1     -17.733   4.438  12.751  1.00  0.00     0.171 C
BRANCH  27  28
HETATM   28  N5  UNL     1     -17.694   5.619  13.564  1.00  0.00    -0.225 N
HETATM   29  C15 UNL     1     -16.929   5.715  14.757  1.00  0.00     0.667 C
HETATM   30  N6  UNL     1     -17.435   6.067  15.855  1.00  0.00    -0.235 N
HETATM   31  N7  UNL     1     -15.508   5.432  14.739  1.00  0.00    -0.226 N
ATOM     32  H62 UNL     1     -18.435   6.266  15.868  1.00  0.00     0.174 HD
ATOM     33  H61 UNL     1     -16.886   6.135  16.712  1.00  0.00     0.174 HD
ATOM     34  H7  UNL     1     -15.138   4.642  14.212  1.00  0.00     0.177 HD
ATOM     35  H5  UNL     1     -18.241   6.429  13.271  1.00  0.00     0.177 HD
BRANCH  31  36
HETATM   36  C16 UNL     1     -14.639   6.289  15.478  1.00  0.00     0.149 C
BRANCH  36  37
HETATM   37  C17 UNL     1     -14.468   7.646  14.864  1.00  0.00     0.106 C
BRANCH  37  38
HETATM   38  S1  UNL     1     -13.750   7.487  13.195  1.00  0.00    -0.096 SA
BRANCH  38  39
HETATM   39  S2  UNL     1     -11.943   6.379  13.266  1.00  0.00    -0.096 SA
BRANCH  39  40
HETATM   40  C18 UNL     1     -10.523   7.308  12.636  1.00  0.00     0.105 C
BRANCH  40  41
HETATM   41  C19 UNL     1      -9.414   6.316  12.350  1.00  0.00     0.133 C
BRANCH  41  42
HETATM   42  N8  UNL     1      -8.358   6.374  13.311  1.00  0.00    -0.366 N
HETATM   43  C20 UNL     1      -7.498   5.449  13.487  1.00  0.00     0.196 C
HETATM   44  N9  UNL     1      -7.539   4.274  12.715  1.00  0.00    -0.067 NA
HETATM   45  N10 UNL     1      -6.486   5.594  14.465  1.00  0.00    -0.067 NA
ATOM     46  H8  UNL     1      -8.288   7.208  13.894  1.00  0.00     0.161 HD
ENDBRANCH  41  42
ENDBRANCH  40  41
ENDBRANCH  39  40
ENDBRANCH  38  39
ENDBRANCH  37  38
ENDBRANCH  36  37
ENDBRANCH  31  36
ENDBRANCH  27  28
ENDBRANCH  23  27
TORSDOF 9
ENDMDL