MODEL 2
REMARK VINA RESULT: -7.183483475      1.874      2.493
REMARK  11 active torsions:
REMARK  status: ('A' for Active; 'I' for Inactive)
REMARK    1  A    between atoms: C2_2  and  N1_4
REMARK    2  A    between atoms: C2_2  and  C4_8
REMARK    3  A    between atoms: C4_8  and  C5_9
REMARK       I    between atoms: C5_9  and  N2_11
REMARK    4  A    between atoms: N2_11  and  C6_13
REMARK    5  A    between atoms: C10_17  and  N3_18
REMARK       I    between atoms: N3_18  and  C11_20
REMARK       I    between atoms: C11_20  and  N5_24
REMARK    6  A    between atoms: N5_24  and  C12_26
REMARK    7  A    between atoms: C14_31  and  C15_32
REMARK    8  A    between atoms: C15_32  and  N7_33
REMARK    9  A    between atoms: N7_33  and  S1_35
REMARK   10  A    between atoms: S1_35  and  C16_38
REMARK   11  A    between atoms: C19_41  and  C20_42
ROOT
HETATM    1  C12 UNL     1     -12.943   7.863  13.410  1.00  0.00     0.327 C
HETATM    2  C13 UNL     1     -11.996   8.755  12.636  1.00  0.00     0.289 C
HETATM    3  N6  UNL     1     -10.855   7.890  12.311  1.00  0.00    -0.041 N
ATOM      4  H61 UNL     1     -10.024   8.049  12.881  1.00  0.00     0.279 HD
ATOM      5  H62 UNL     1     -10.408   8.093  11.417  1.00  0.00     0.279 HD
HETATM    6  C14 UNL     1     -11.412   6.562  12.418  1.00  0.00     0.403 C
HETATM    7  N8  UNL     1     -12.126   6.674  13.683  1.00  0.00    -0.021 N
ATOM      8  H81 UNL     1     -12.636   5.843  13.980  1.00  0.00     0.282 HD
ATOM      9  H82 UNL     1     -11.545   6.716  14.519  1.00  0.00     0.282 HD
ENDROOT
BRANCH   1  10
HETATM   10  N5  UNL     1     -14.073   7.457  12.627  1.00  0.00    -0.196 N
HETATM   11  C11 UNL     1     -15.411   7.537  13.163  1.00  0.00     0.669 C
HETATM   12  N3  UNL     1     -15.453   7.704  14.558  1.00  0.00    -0.220 N
HETATM   13  N4  UNL     1     -16.397   7.467  12.370  1.00  0.00    -0.235 N
ATOM     14  H3  UNL     1     -15.454   8.654  14.929  1.00  0.00     0.178 HD
ATOM     15  H42 UNL     1     -17.343   7.524  12.749  1.00  0.00     0.174 HD
ATOM     16  H41 UNL     1     -16.367   7.346  11.358  1.00  0.00     0.174 HD
ATOM     17  H5  UNL     1     -13.930   7.108  11.679  1.00  0.00     0.180 HD
BRANCH  12  18
HETATM   18  C10 UNL     1     -15.496   6.570  15.525  1.00  0.00     0.122 C
HETATM   19  C6  UNL     1     -16.636   6.807  16.429  1.00  0.00     0.107 C
HETATM   20  C7  UNL     1     -16.107   7.940  17.302  1.00  0.00     0.027 C
HETATM   21  C8  UNL     1     -14.641   7.597  17.469  1.00  0.00     0.004 C
HETATM   22  C9  UNL     1     -14.233   6.717  16.345  1.00  0.00     0.028 C
BRANCH  19  23
HETATM   23  N2  UNL     1     -17.204   5.771  17.203  1.00  0.00    -0.354 N
HETATM   24  C5  UNL     1     -18.483   5.244  17.290  1.00  0.00     0.220 C
HETATM   25  O1  UNL     1     -19.434   5.631  16.616  1.00  0.00    -0.274 OA
ATOM     26  H2  UNL     1     -16.536   5.318  17.826  1.00  0.00     0.162 HD
BRANCH  24  27
HETATM   27  C4  UNL     1     -18.779   4.120  18.237  1.00  0.00     0.140 C
BRANCH  27  28
HETATM   28  C2  UNL     1     -19.785   4.573  19.269  1.00  0.00     0.124 C
HETATM   29  C1  UNL     1     -19.874   3.666  20.455  1.00  0.00     0.046 C
HETATM   30  C3  UNL     1     -19.759   5.987  19.685  1.00  0.00     0.046 C
BRANCH  28  31
HETATM   31  N1  UNL     1     -21.140   4.411  18.595  1.00  0.00    -0.071 N
ATOM     32  H13 UNL     1     -21.098   4.029  17.650  1.00  0.00     0.275 HD
ATOM     33  H12 UNL     1     -21.719   3.668  18.986  1.00  0.00     0.275 HD
ATOM     34  H11 UNL     1     -21.549   5.342  18.657  1.00  0.00     0.275 HD
ENDBRANCH  28  31
ENDBRANCH  27  28
ENDBRANCH  24  27
ENDBRANCH  19  23
ENDBRANCH  12  18
ENDBRANCH   1  10
BRANCH   6  35
HETATM   35  C15 UNL     1     -10.421   5.460  12.472  1.00  0.00     0.195 C
BRANCH  35  36
HETATM   36  N7  UNL     1     -10.938   4.155  12.128  1.00  0.00    -0.312 N
ATOM     37  H7  UNL     1     -10.668   3.263  12.542  1.00  0.00     0.172 HD
BRANCH  36  38
HETATM   38  S1  UNL     1     -12.124   4.410  10.856  1.00  0.00     0.258 S
HETATM   39  O2  UNL     1     -12.030   5.829  10.448  1.00  0.00    -0.201 OA
HETATM   40  O3  UNL     1     -11.780   3.483   9.748  1.00  0.00    -0.201 OA
BRANCH  38  41
HETATM   41  C16 UNL     1     -13.693   4.038  11.520  1.00  0.00     0.079 A
HETATM   42  C17 UNL     1     -13.727   3.630  12.849  1.00  0.00     0.026 A
HETATM   43  C18 UNL     1     -14.932   3.338  13.444  1.00  0.00     0.009 A
HETATM   44  C19 UNL     1     -16.140   3.443  12.738  1.00  0.00    -0.051 A
HETATM   45  C24 UNL     1     -16.082   3.842  11.436  1.00  0.00     0.009 A
HETATM   46  C25 UNL     1     -14.871   4.147  10.805  1.00  0.00     0.026 A
BRANCH  44  47
HETATM   47  C20 UNL     1     -17.440   3.147  13.376  1.00  0.00    -0.024 C
HETATM   48  C21 UNL     1     -18.336   2.286  12.520  1.00  0.00     0.019 C
HETATM   49  C22 UNL     1     -17.235   2.482  14.705  1.00  0.00     0.019 C
HETATM   50  C23 UNL     1     -18.195   4.448  13.644  1.00  0.00     0.019 C
ENDBRANCH  44  47
ENDBRANCH  38  41
ENDBRANCH  36  38
ENDBRANCH  35  36
ENDBRANCH   6  35
TORSDOF 11
ENDMDL