MODEL 5
REMARK VINA RESULT: -6.100466072      2.420      4.357
REMARK  11 active torsions:
REMARK  status: ('A' for Active; 'I' for Inactive)
REMARK    1  A    between atoms: N1_2  and  C2_5
REMARK    2  A    between atoms: C2_5  and  C3_6
REMARK    3  A    between atoms: C3_6  and  C4_7
REMARK    4  A    between atoms: C4_7  and  C5_8
REMARK    5  A    between atoms: C5_8  and  C6_9
REMARK    6  A    between atoms: C6_9  and  O1_10
REMARK    7  A    between atoms: C20_37  and  N7_38
REMARK    8  A    between atoms: N7_38  and  C21_40
REMARK    9  A    between atoms: C22_42  and  C23_43
REMARK   10  A    between atoms: C23_43  and  O4_44
REMARK   11  A    between atoms: C24_46  and  C25_47
ROOT
HETATM    1  C3  UNL     1     -15.560   8.193  14.747  1.00  0.00     0.026 C
HETATM    2  C7  UNL     1     -17.043   8.435  14.693  1.00  0.00    -0.015 C
HETATM    3  C8  UNL     1     -17.892   8.073  13.610  1.00  0.00    -0.026 C
HETATM    4  C9  UNL     1     -17.382   7.887  12.218  1.00  0.00     0.054 C
HETATM    5  C10 UNL     1     -16.916   6.522  12.032  1.00  0.00    -0.018 C
HETATM    6  C11 UNL     1     -15.730   5.831  12.394  1.00  0.00    -0.054 C
HETATM    7  C12 UNL     1     -14.788   5.459  11.239  1.00  0.00     0.069 C
HETATM    8  C13 UNL     1     -15.268   5.338   9.900  1.00  0.00     0.212 C
HETATM    9  N2  UNL     1     -15.375   6.520   9.065  1.00  0.00    -0.205 N
ATOM     10  H2  UNL     1     -16.143   6.456   8.396  1.00  0.00     0.179 HD
HETATM   11  C14 UNL     1     -14.648   7.772   8.956  1.00  0.00     0.669 C
HETATM   12  N3  UNL     1     -15.184   8.578   8.107  1.00  0.00    -0.235 N
ATOM     13  H31 UNL     1     -14.674   9.458   8.031  1.00  0.00     0.174 HD
ATOM     14  H32 UNL     1     -16.022   8.219   7.648  1.00  0.00     0.174 HD
HETATM   15  N4  UNL     1     -13.461   8.282   9.607  1.00  0.00    -0.226 N
ATOM     16  H4  UNL     1     -13.499   9.292   9.742  1.00  0.00     0.177 HD
HETATM   17  C15 UNL     1     -12.220   7.704  10.119  1.00  0.00     0.145 C
HETATM   18  C16 UNL     1     -12.600   6.264  10.525  1.00  0.00     0.032 C
HETATM   19  C17 UNL     1     -11.534   5.276  10.532  1.00  0.00     0.131 C
HETATM   20  N5  UNL     1     -12.118   3.962  10.157  1.00  0.00    -0.343 N
ATOM     21  H5  UNL     1     -11.560   3.164  10.458  1.00  0.00     0.164 HD
HETATM   22  C18 UNL     1     -13.320   3.595   9.449  1.00  0.00     0.317 C
HETATM   23  O2  UNL     1     -13.237   2.442   8.922  1.00  0.00    -0.247 OA
HETATM   24  N6  UNL     1     -14.597   4.211   9.189  1.00  0.00    -0.321 N
ATOM     25  H6  UNL     1     -15.118   3.819   8.405  1.00  0.00     0.166 HD
HETATM   26  C19 UNL     1     -13.623   6.387  11.522  1.00  0.00     0.052 C
HETATM   27  C20 UNL     1     -13.443   5.967  12.935  1.00  0.00     0.014 C
HETATM   28  C22 UNL     1     -14.867   5.933  13.578  1.00  0.00     0.068 C
HETATM   29  C24 UNL     1     -15.085   6.774  14.763  1.00  0.00    -0.044 C
ENDROOT
BRANCH   1  30
HETATM   30  C2  UNL     1     -14.930   9.158  13.823  1.00  0.00     0.249 C
BRANCH  30  31
HETATM   31  N1  UNL     1     -13.573   9.573  14.139  1.00  0.00    -0.078 N
HETATM   32  C1  UNL     1     -12.943  10.112  12.887  1.00  0.00     0.267 C
ATOM     33  H12 UNL     1     -13.023   8.827  14.566  1.00  0.00     0.276 HD
ATOM     34  H11 UNL     1     -13.534  10.233  14.916  1.00  0.00     0.276 HD
ENDBRANCH  30  31
ENDBRANCH   1  30
BRANCH   1  35
HETATM   35  C4  UNL     1     -15.262   8.919  16.066  1.00  0.00     0.022 C
BRANCH  35  36
HETATM   36  C5  UNL     1     -16.299   9.729  16.684  1.00  0.00     0.027 C
BRANCH  36  37
HETATM   37  C6  UNL     1     -16.013   9.989  18.183  1.00  0.00     0.164 C
BRANCH  37  38
HETATM   38  O1  UNL     1     -16.226  11.307  18.494  1.00  0.00    -0.401 OA
ATOM     39  H1  UNL     1     -17.038  11.615  18.108  1.00  0.00     0.209 HD
ENDBRANCH  37  38
ENDBRANCH  36  37
ENDBRANCH  35  36
ENDBRANCH   1  35
BRANCH  29  40
HETATM   40  C25 UNL     1     -15.499   6.109  16.056  1.00  0.00    -0.083 C
HETATM   41  C26 UNL     1     -14.794   6.165  17.321  1.00  0.00     0.043 C
HETATM   42  C27 UNL     1     -16.934   5.677  16.259  1.00  0.00     0.043 C
ENDBRANCH  29  40
BRANCH  28  43
HETATM   43  C23 UNL     1     -14.779   4.462  14.109  1.00  0.00     0.189 C
BRANCH  43  44
HETATM   44  O4  UNL     1     -13.626   3.828  13.742  1.00  0.00    -0.399 OA
ATOM     45  H4  UNL     1     -13.514   2.984  14.165  1.00  0.00     0.209 HD
ENDBRANCH  43  44
ENDBRANCH  28  43
BRANCH  27  46
HETATM   46  N7  UNL     1     -12.414   6.425  13.719  1.00  0.00    -0.340 N
ATOM     47  H7  UNL     1     -12.570   6.367  14.725  1.00  0.00     0.167 HD
BRANCH  46  48
HETATM   48  C21 UNL     1     -11.162   6.970  13.327  1.00  0.00     0.353 C
HETATM   49  O3  UNL     1     -10.081   6.353  13.447  1.00  0.00    -0.283 OA
ENDBRANCH  46  48
ENDBRANCH  27  46
TORSDOF 11
ENDMDL