MODEL 5
REMARK VINA RESULT: -7.714675939      0.912      1.094
REMARK  10 active torsions:
REMARK  status: ('A' for Active; 'I' for Inactive)
REMARK    1  A    between atoms: C2_2  and  N1_4
REMARK    2  A    between atoms: C18_22  and  N3_23
REMARK    3  A    between atoms: N3_23  and  C19_25
REMARK    4  A    between atoms: C19_25  and  O2_26
REMARK    5  A    between atoms: C19_25  and  C20_28
REMARK    6  A    between atoms: C20_28  and  C21_29
REMARK    7  A    between atoms: C20_28  and  N7_39
REMARK    8  A    between atoms: C21_29  and  C22_30
REMARK    9  A    between atoms: C22_30  and  C23_31
REMARK   10  A    between atoms: C23_31  and  N4_32
REMARK       I    between atoms: N4_32  and  C24_34
REMARK       I    between atoms: N7_39  and  C25_41
ROOT
HETATM    1  N1  UNL     1     -15.488   8.526  15.712  1.00  0.00    -0.346 N
HETATM    2  C4  UNL     1     -16.512   7.539  15.659  1.00  0.00     0.126 C
HETATM    3  C5  UNL     1     -16.153   6.168  16.134  1.00  0.00     0.023 C
HETATM    4  C6  UNL     1     -17.336   5.263  15.751  1.00  0.00     0.028 C
HETATM    5  C7  UNL     1     -16.874   4.079  14.979  1.00  0.00    -0.030 C
HETATM    6  C8  UNL     1     -17.409   3.651  13.845  1.00  0.00    -0.022 C
HETATM    7  C9  UNL     1     -18.563   4.282  13.152  1.00  0.00     0.129 C
HETATM    8  C10 UNL     1     -18.980   3.414  12.019  1.00  0.00     0.221 C
HETATM    9  O1  UNL     1     -19.260   2.216  12.289  1.00  0.00    -0.273 OA
HETATM   10  N2  UNL     1     -19.064   3.906  10.692  1.00  0.00    -0.361 N
ATOM     11  H2  UNL     1     -18.928   3.251   9.922  1.00  0.00     0.162 HD
HETATM   12  C11 UNL     1     -19.331   5.291  10.378  1.00  0.00     0.122 C
HETATM   13  C12 UNL     1     -18.137   6.081   9.966  1.00  0.00     0.020 C
HETATM   14  C13 UNL     1     -17.077   5.335   9.232  1.00  0.00     0.002 C
HETATM   15  C14 UNL     1     -15.735   5.331   9.944  1.00  0.00     0.000 C
HETATM   16  C15 UNL     1     -15.344   6.713  10.396  1.00  0.00     0.000 C
HETATM   17  C16 UNL     1     -15.171   6.681  11.888  1.00  0.00     0.002 C
HETATM   18  C17 UNL     1     -15.171   8.073  12.489  1.00  0.00     0.034 C
HETATM   19  C18 UNL     1     -14.104   8.072  13.572  1.00  0.00     0.171 C
HETATM   20  C26 UNL     1     -14.504   8.832  14.771  1.00  0.00     0.242 C
HETATM   21  O3  UNL     1     -13.846   9.920  14.952  1.00  0.00    -0.271 OA
ENDROOT
BRANCH  19  22
HETATM   22  N3  UNL     1     -12.941   8.641  12.942  1.00  0.00    -0.383 N
ATOM     23  H3  UNL     1     -12.928   9.614  12.639  1.00  0.00     0.156 HD
BRANCH  22  24
HETATM   24  C19 UNL     1     -11.815   7.802  12.759  1.00  0.00     0.237 C
BRANCH  24  25
HETATM   25  O2  UNL     1     -10.625   8.210  13.277  1.00  0.00    -0.375 OA
ATOM     26  H2  UNL     1      -9.836   8.023  12.782  1.00  0.00     0.212 HD
ENDBRANCH  24  25
BRANCH  24  27
HETATM   27  C20 UNL     1     -11.689   7.636  11.192  1.00  0.00     0.132 C
BRANCH  27  28
HETATM   28  C21 UNL     1     -10.952   6.349  10.971  1.00  0.00     0.031 C
BRANCH  28  29
HETATM   29  C22 UNL     1     -11.473   5.208  11.755  1.00  0.00     0.022 C
BRANCH  29  30
HETATM   30  C23 UNL     1     -10.358   4.277  12.227  1.00  0.00     0.122 C
BRANCH  30  31
HETATM   31  N4  UNL     1      -9.052   4.805  11.971  1.00  0.00    -0.365 N
HETATM   32  C24 UNL     1      -8.150   5.082  13.026  1.00  0.00     0.181 C
HETATM   33  N5  UNL     1      -7.231   4.235  13.386  1.00  0.00    -0.374 N
HETATM   34  N6  UNL     1      -8.279   6.337  13.682  1.00  0.00    -0.064 NA
ATOM     35  H52 UNL     1      -7.138   3.335  12.915  1.00  0.00     0.158 HD
ATOM     36  H51 UNL     1      -6.581   4.435  14.147  1.00  0.00     0.158 HD
ATOM     37  H4  UNL     1      -8.766   4.986  11.009  1.00  0.00     0.162 HD
ENDBRANCH  30  31
ENDBRANCH  29  30
ENDBRANCH  28  29
ENDBRANCH  27  28
BRANCH  27  38
HETATM   38  N7  UNL     1     -10.918   8.742  10.722  1.00  0.00    -0.356 N
HETATM   39  C25 UNL     1     -11.286   9.938  10.112  1.00  0.00     0.182 C
HETATM   40  N8  UNL     1     -10.702  10.275   9.003  1.00  0.00    -0.374 N
HETATM   41  N9  UNL     1     -12.251  10.787  10.709  1.00  0.00    -0.064 NA
ATOM     42  H82 UNL     1     -10.007   9.664   8.574  1.00  0.00     0.158 HD
ATOM     43  H81 UNL     1     -10.971  11.151   8.556  1.00  0.00     0.158 HD
ATOM     44  H7  UNL     1      -9.914   8.637  10.859  1.00  0.00     0.162 HD
ENDBRANCH  27  38
ENDBRANCH  24  27
ENDBRANCH  22  24
ENDBRANCH  19  22
BRANCH   1  45
HETATM   45  C2  UNL     1     -15.473   9.344  16.954  1.00  0.00     0.079 C
HETATM   46  C1  UNL     1     -14.683   8.518  17.978  1.00  0.00     0.032 C
HETATM   47  C3  UNL     1     -16.905   9.419  17.433  1.00  0.00     0.032 C
ENDBRANCH   1  45
TORSDOF 10
ENDMDL