MODEL 4
REMARK VINA RESULT: -6.051762318      2.879      4.771
REMARK  2 active torsions:
REMARK  status: ('A' for Active; 'I' for Inactive)
REMARK    1  A    between atoms: C4_4  and  C5_5
REMARK    2  A    between atoms: C5_5  and  C7_9
ROOT
HETATM    1  C7  UNL     1      22.169  85.910  56.191  1.00  0.00     0.221 C
HETATM    2  C8  UNL     1      23.565  86.474  56.288  1.00  0.00     0.038 C
HETATM    3  C9  UNL     1      23.570  87.482  57.429  1.00  0.00     0.004 C
HETATM    4  C10 UNL     1      23.023  86.880  58.695  1.00  0.00     0.027 C
HETATM    5  C11 UNL     1      21.897  85.928  58.514  1.00  0.00     0.233 C
HETATM    6  N1  UNL     1      21.969  85.076  57.362  1.00  0.00    -0.067 N
ATOM      7  H11 UNL     1      22.681  84.350  57.454  1.00  0.00     0.277 HD
ATOM      8  H12 UNL     1      21.159  84.463  57.275  1.00  0.00     0.277 HD
ENDROOT
BRANCH   1   9
HETATM    9  C5  UNL     1      21.780  85.348  54.923  1.00  0.00     0.006 C
HETATM   10  C6  UNL     1      21.459  86.268  53.965  1.00  0.00     0.111 C
HETATM   11 CL1  UNL     1      21.449  87.970  54.321  1.00  0.00    -0.070 Cl
HETATM   12 CL2  UNL     1      21.060  85.686  52.377  1.00  0.00    -0.070 Cl
BRANCH   9  13
HETATM   13  C4  UNL     1      21.758  83.983  54.526  1.00  0.00     0.014 C
HETATM   14  C2  UNL     1      21.126  82.911  54.796  1.00  0.00    -0.087 C
HETATM   15  C1  UNL     1      21.549  81.653  54.016  1.00  0.00     0.043 C
HETATM   16  C3  UNL     1      20.019  82.693  55.709  1.00  0.00     0.043 C
ENDBRANCH   9  13
ENDBRANCH   1   9
TORSDOF 2
ENDMDL