MODEL 1
REMARK VINA RESULT: -6.799317765      0.000      0.000
REMARK  3 active torsions:
REMARK  status: ('A' for Active; 'I' for Inactive)
REMARK    1  A    between atoms: C2_2  and  N1_3
REMARK    2  A    between atoms: C2_2  and  C3_8
REMARK    3  A    between atoms: C4_9  and  C5_10
ROOT
HETATM    1  C3  UNL     1      21.452  85.682  58.404  1.00  0.00     0.024 C
HETATM    2  C4  UNL     1      21.939  84.717  57.643  1.00  0.00    -0.018 C
ENDROOT
BRANCH   2   3
HETATM    3  C5  UNL     1      21.990  84.812  56.161  1.00  0.00    -0.021 C
HETATM    4  C6  UNL     1      22.893  85.951  55.782  1.00  0.00     0.020 C
HETATM    5  C7  UNL     1      22.563  83.505  55.574  1.00  0.00     0.039 C
HETATM    6  C8  UNL     1      21.370  83.086  54.752  1.00  0.00     0.039 C
HETATM    7 CL2  UNL     1      21.397  81.669  53.834  1.00  0.00    -0.119 Cl
HETATM    8  C9  UNL     1      21.001  84.413  54.072  1.00  0.00     0.031 C
HETATM    9  C11 UNL     1      20.193  83.384  55.667  1.00  0.00     0.031 C
HETATM   10  C10 UNL     1      20.663  84.835  55.507  1.00  0.00     0.001 C
ENDBRANCH   2   3
BRANCH   1  11
HETATM   11  C2  UNL     1      21.409  85.568  59.880  1.00  0.00     0.212 C
HETATM   12  C1  UNL     1      22.715  85.044  60.453  1.00  0.00     0.068 C
HETATM   13 CL1  UNL     1      20.045  84.555  60.390  1.00  0.00    -0.084 Cl
BRANCH  11  14
HETATM   14  N1  UNL     1      21.223  86.924  60.413  1.00  0.00    -0.054 N
ATOM     15  H13 UNL     1      20.840  87.576  59.728  1.00  0.00     0.277 HD
ATOM     16  H12 UNL     1      20.464  86.989  61.091  1.00  0.00     0.277 HD
ATOM     17  H11 UNL     1      22.123  87.221  60.790  1.00  0.00     0.277 HD
ENDBRANCH  11  14
ENDBRANCH   1  11
TORSDOF 3
ENDMDL