MODEL 2
REMARK VINA RESULT: -6.627733739      2.150      3.123
REMARK  3 active torsions:
REMARK  status: ('A' for Active; 'I' for Inactive)
REMARK    1  A    between atoms: C4_5  and  N1_6
REMARK    2  A    between atoms: N1_6  and  C5_8
REMARK    3  A    between atoms: C5_8  and  C6_10
ROOT
HETATM    1  C5  UNL     1      20.521  83.996  56.260  1.00  0.00     0.183 C
HETATM    2 CL1  UNL     1      20.595  82.543  55.153  1.00  0.00    -0.102 Cl
ENDROOT
BRANCH   1   3
HETATM    3  N1  UNL     1      20.979  83.625  57.484  1.00  0.00    -0.398 N
ATOM      4  H1  UNL     1      21.782  82.999  57.425  1.00  0.00     0.155 HD
BRANCH   3   5
HETATM    5  C4  UNL     1      20.625  83.887  58.760  1.00  0.00     0.112 C
HETATM    6  C1  UNL     1      21.115  85.227  59.376  1.00  0.00     0.192 C
HETATM    7  F1  UNL     1      20.447  86.323  58.944  1.00  0.00    -0.247 F
HETATM    8  C2  UNL     1      20.569  84.588  60.679  1.00  0.00     0.041 C
HETATM    9  C3  UNL     1      21.135  83.285  60.019  1.00  0.00     0.030 C
ENDBRANCH   3   5
ENDBRANCH   1   3
BRANCH   1  10
HETATM   10  C6  UNL     1      21.213  85.070  55.556  1.00  0.00    -0.006 C
HETATM   11  C7  UNL     1      21.265  84.843  54.037  1.00  0.00     0.013 C
HETATM   12  C8  UNL     1      21.251  86.215  53.415  1.00  0.00     0.005 C
HETATM   13  C9  UNL     1      21.176  87.131  54.584  1.00  0.00    -0.014 C
HETATM   14  C10 UNL     1      22.456  87.075  55.344  1.00  0.00     0.005 C
HETATM   15  C12 UNL     1      20.286  86.343  55.517  1.00  0.00     0.017 C
HETATM   16  C11 UNL     1      22.472  85.660  55.970  1.00  0.00     0.013 C
ENDBRANCH   1  10
TORSDOF 3
ENDMDL