MODEL 2
REMARK VINA RESULT: -6.169280360      2.150      3.027
REMARK  3 active torsions:
REMARK  status: ('A' for Active; 'I' for Inactive)
REMARK    1  A    between atoms: C2_2  and  N1_4
REMARK    2  A    between atoms: N1_4  and  C3_6
REMARK    3  A    between atoms: C7_10  and  C8_11
ROOT
HETATM    1  C3  UNL     1      21.093  84.121  56.766  1.00  0.00     0.032 A
HETATM    2  C4  UNL     1      22.327  83.301  56.345  1.00  0.00     0.035 C
HETATM    3  C5  UNL     1      23.127  83.950  55.288  1.00  0.00    -0.011 C
HETATM    4  C6  UNL     1      23.039  85.469  55.395  1.00  0.00     0.015 C
HETATM    5  C7  UNL     1      21.716  85.295  54.648  1.00  0.00    -0.021 C
HETATM    6  C9  UNL     1      22.270  84.068  54.043  1.00  0.00     0.015 C
HETATM    7  C10 UNL     1      20.683  85.038  55.751  1.00  0.00     0.025 A
HETATM    8  C11 UNL     1      19.904  83.816  55.827  1.00  0.00     0.039 A
ENDROOT
BRANCH   1   9
HETATM    9  N1  UNL     1      20.816  83.955  58.095  1.00  0.00    -0.396 N
ATOM     10  H1  UNL     1      20.002  83.371  58.284  1.00  0.00     0.155 HD
BRANCH   9  11
HETATM   11  C2  UNL     1      21.432  84.430  59.204  1.00  0.00     0.170 C
HETATM   12  C1  UNL     1      20.379  84.612  60.308  1.00  0.00     0.049 C
HETATM   13 CL1  UNL     1      22.301  85.960  59.159  1.00  0.00    -0.103 Cl
ENDBRANCH   9  11
ENDBRANCH   1   9
BRANCH   5  14
HETATM   14  C8  UNL     1      21.375  86.420  53.731  1.00  0.00     0.124 C
HETATM   15 CL2  UNL     1      20.758  87.779  54.677  1.00  0.00    -0.130 Cl
ENDBRANCH   5  14
TORSDOF 3
ENDMDL