MODEL 5
REMARK VINA RESULT: -6.550351176      1.584      2.622
REMARK  2 active torsions:
REMARK  status: ('A' for Active; 'I' for Inactive)
REMARK    1  A    between atoms: C4_6  and  N1_7
REMARK    2  A    between atoms: N1_7  and  C5_10
ROOT
HETATM    1  N1  UNL     1      20.803  83.825  57.608  1.00  0.00    -0.067 N
ATOM      2  H11 UNL     1      20.810  82.828  57.822  1.00  0.00     0.278 HD
ATOM      3  H12 UNL     1      19.813  84.021  57.759  1.00  0.00     0.278 HD
ENDROOT
BRANCH   1   4
HETATM    4  C4  UNL     1      21.172  84.060  56.235  1.00  0.00     0.189 C
HETATM    5  C3  UNL     1      19.898  84.357  55.463  1.00  0.00     0.036 C
HETATM    6  C2  UNL     1      19.982  85.867  55.275  1.00  0.00     0.044 C
HETATM    7  C1  UNL     1      21.450  85.971  54.876  1.00  0.00     0.115 C
HETATM    8 CL1  UNL     1      21.621  85.052  53.376  1.00  0.00    -0.102 Cl
HETATM    9 CL2  UNL     1      21.996  87.628  54.694  1.00  0.00    -0.102 Cl
HETATM   10  C11 UNL     1      22.077  85.258  56.059  1.00  0.00     0.075 C
ENDBRANCH   1   4
BRANCH   1  11
HETATM   11  C5  UNL     1      21.628  84.564  58.551  1.00  0.00     0.186 C
HETATM   12  C6  UNL     1      22.026  83.576  59.634  1.00  0.00     0.033 C
HETATM   13  C7  UNL     1      22.727  84.343  60.742  1.00  0.00     0.002 C
HETATM   14  C8  UNL     1      21.625  85.052  61.509  1.00  0.00     0.000 C
HETATM   15  C9  UNL     1      20.475  85.422  60.618  1.00  0.00     0.002 C
HETATM   16  C10 UNL     1      20.871  85.692  59.194  1.00  0.00     0.033 C
ENDBRANCH   1  11
TORSDOF 2
ENDMDL