MODEL 5
REMARK VINA RESULT: -5.938028998      2.913      4.527
REMARK  2 active torsions:
REMARK  status: ('A' for Active; 'I' for Inactive)
REMARK    1  A    between atoms: C6_11  and  C7_12
REMARK    2  A    between atoms: C7_12  and  C9_14
ROOT
HETATM    1  C1  UNL     1      19.843  86.536  55.692  1.00  0.00     0.065 C
HETATM    2  C2  UNL     1      20.763  85.835  56.617  1.00  0.00     0.010 C
HETATM    3  N1  UNL     1      21.265  86.468  57.639  1.00  0.00    -0.389 N
ATOM      4  H1  UNL     1      21.048  87.445  57.835  1.00  0.00     0.159 HD
HETATM    5  C3  UNL     1      22.146  85.695  58.471  1.00  0.00     0.102 C
HETATM    6  C4  UNL     1      22.565  86.448  59.702  1.00  0.00     0.034 C
HETATM    7  C5  UNL     1      21.533  84.381  58.851  1.00  0.00     0.257 C
HETATM    8  N2  UNL     1      20.835  83.781  57.760  1.00  0.00    -0.064 N
ATOM      9  H21 UNL     1      19.826  83.782  57.913  1.00  0.00     0.278 HD
ATOM     10  H22 UNL     1      20.986  82.773  57.726  1.00  0.00     0.278 HD
HETATM   11  C6  UNL     1      21.188  84.422  56.489  1.00  0.00     0.237 C
ENDROOT
BRANCH  11  12
HETATM   12  C7  UNL     1      20.591  83.709  55.321  1.00  0.00     0.056 C
HETATM   13  C8  UNL     1      19.950  82.404  55.636  1.00  0.00     0.015 C
BRANCH  12  14
HETATM   14  C9  UNL     1      21.676  83.505  54.284  1.00  0.00     0.115 C
HETATM   15  C10 UNL     1      21.615  82.113  53.690  1.00  0.00     0.051 C
HETATM   16 CL1  UNL     1      21.614  84.660  52.959  1.00  0.00    -0.102 Cl
HETATM   17 CL2  UNL     1      23.234  83.759  55.137  1.00  0.00    -0.102 Cl
ENDBRANCH  12  14
ENDBRANCH  11  12
TORSDOF 2
ENDMDL