MODEL 2
REMARK VINA RESULT: -7.258836056      2.534      3.929
REMARK  2 active torsions:
REMARK  status: ('A' for Active; 'I' for Inactive)
REMARK    1  A    between atoms: N1_2  and  C2_5
REMARK    2  A    between atoms: C2_5  and  C3_6
ROOT
HETATM    1  C3  UNL     1      21.526  84.998  54.132  1.00  0.00    -0.013 C
HETATM    2  C4  UNL     1      22.732  85.151  54.980  1.00  0.00     0.017 C
HETATM    3  C5  UNL     1      22.639  84.152  56.119  1.00  0.00     0.008 C
HETATM    4  C6  UNL     1      22.625  82.729  55.610  1.00  0.00     0.049 C
HETATM    5  C7  UNL     1      21.426  82.563  54.708  1.00  0.00     0.105 C
HETATM    6  F1  UNL     1      21.387  81.314  54.138  1.00  0.00    -0.243 F
HETATM    7  C8  UNL     1      20.193  82.785  55.558  1.00  0.00     0.049 C
HETATM    8  C9  UNL     1      20.189  84.182  56.085  1.00  0.00     0.008 C
HETATM    9  C10 UNL     1      20.230  85.137  54.908  1.00  0.00     0.017 C
HETATM   10  C11 UNL     1      21.411  84.453  56.923  1.00  0.00     0.090 C
HETATM   11 CL1  UNL     1      21.361  83.553  58.440  1.00  0.00    -0.124 Cl
HETATM   12  C12 UNL     1      21.542  83.570  53.589  1.00  0.00     0.054 C
ENDROOT
BRANCH   1  13
HETATM   13  C2  UNL     1      21.461  85.913  52.948  1.00  0.00     0.241 C
BRANCH  13  14
HETATM   14  N1  UNL     1      20.744  87.135  53.178  1.00  0.00    -0.078 N
HETATM   15  C1  UNL     1      21.592  88.125  53.780  1.00  0.00     0.267 C
ATOM     16  H12 UNL     1      19.900  86.977  53.729  1.00  0.00     0.276 HD
ATOM     17  H11 UNL     1      20.309  87.482  52.323  1.00  0.00     0.276 HD
ENDBRANCH  13  14
ENDBRANCH   1  13
TORSDOF 2
ENDMDL