MODEL 1
REMARK VINA RESULT: -6.894218259      0.000      0.000
REMARK  3 active torsions:
REMARK  status: ('A' for Active; 'I' for Inactive)
REMARK    1  A    between atoms: C9_9  and  C10_10
REMARK    2  A    between atoms: C10_10  and  N1_11
REMARK    3  A    between atoms: N1_11  and  C11_14
ROOT
HETATM    1  C1  UNL     1      20.852  87.180  54.996  1.00  0.00     0.015 C
HETATM    2  C2  UNL     1      21.046  85.727  55.400  1.00  0.00    -0.043 C
HETATM    3  C3  UNL     1      22.108  85.135  54.506  1.00  0.00     0.014 C
HETATM    4  C4  UNL     1      22.223  83.670  54.823  1.00  0.00    -0.013 C
HETATM    5  C5  UNL     1      20.934  82.928  54.674  1.00  0.00     0.009 C
HETATM    6  C6  UNL     1      19.914  83.572  55.583  1.00  0.00    -0.013 C
HETATM    7  C7  UNL     1      19.759  85.008  55.132  1.00  0.00     0.014 C
HETATM    8  C8  UNL     1      20.307  83.519  57.033  1.00  0.00     0.015 C
HETATM    9  C9  UNL     1      21.658  84.166  57.183  1.00  0.00    -0.015 C
HETATM   10  C12 UNL     1      22.675  83.534  56.261  1.00  0.00     0.015 C
HETATM   11  C13 UNL     1      21.506  85.628  56.828  1.00  0.00     0.020 C
ENDROOT
BRANCH   9  12
HETATM   12  C10 UNL     1      22.137  83.972  58.597  1.00  0.00     0.248 C
BRANCH  12  13
HETATM   13  N1  UNL     1      21.602  84.958  59.511  1.00  0.00    -0.016 N
ATOM     14  H12 UNL     1      22.310  85.587  59.889  1.00  0.00     0.283 HD
ATOM     15  H11 UNL     1      21.035  85.671  59.052  1.00  0.00     0.283 HD
BRANCH  13  16
HETATM   16  C11 UNL     1      20.877  84.208  60.542  1.00  0.00     0.548 C
HETATM   17  F1  UNL     1      21.239  82.872  60.537  1.00  0.00    -0.183 F
HETATM   18  F2  UNL     1      19.521  84.288  60.382  1.00  0.00    -0.183 F
ENDBRANCH  13  16
ENDBRANCH  12  13
ENDBRANCH   9  12
TORSDOF 3
ENDMDL