MODEL 5
REMARK VINA RESULT: -5.275775110      2.584      3.376
REMARK  3 active torsions:
REMARK  status: ('A' for Active; 'I' for Inactive)
REMARK    1  A    between atoms: C1_2  and  N1_3
REMARK    2  A    between atoms: C1_2  and  C8_11
REMARK    3  A    between atoms: N1_3  and  C2_5
ROOT
HETATM    1  N1  UNL     1      21.689  83.931  57.410  1.00  0.00    -0.378 N
ATOM      2  H1  UNL     1      22.135  83.036  57.607  1.00  0.00     0.160 HD
ENDROOT
BRANCH   1   3
HETATM    3  C1  UNL     1      21.654  84.402  56.074  1.00  0.00     0.107 C
HETATM    4  S1  UNL     1      22.990  85.050  55.403  1.00  0.00    -0.063 SA
BRANCH   3   5
HETATM    5  C8  UNL     1      20.413  84.316  55.275  1.00  0.00     0.239 C
HETATM    6 CL1  UNL     1      19.385  83.040  56.012  1.00  0.00    -0.101 Cl
HETATM    7 CL2  UNL     1      19.517  85.846  55.351  1.00  0.00    -0.101 Cl
ENDBRANCH   3   5
ENDBRANCH   1   3
BRANCH   1   8
HETATM    8  C2  UNL     1      21.104  84.690  58.516  1.00  0.00     0.082 C
HETATM    9  C3  UNL     1      20.483  83.686  59.464  1.00  0.00     0.025 C
HETATM   10  C4  UNL     1      21.675  83.100  60.234  1.00  0.00     0.002 C
HETATM   11  C5  UNL     1      22.021  84.124  61.286  1.00  0.00     0.000 C
HETATM   12  C6  UNL     1      22.176  85.457  60.659  1.00  0.00     0.002 C
HETATM   13  C7  UNL     1      22.170  85.515  59.174  1.00  0.00     0.025 C
ENDBRANCH   1   8
TORSDOF 3
ENDMDL