MODEL 3
REMARK VINA RESULT: -11.879267072      1.681      4.898
REMARK  4 active torsions:
REMARK  status: ('A' for Active; 'I' for Inactive)
REMARK    1  A    between atoms: C4_5  and  N1_6
REMARK    2  A    between atoms: N1_6  and  N2_8
REMARK    3  A    between atoms: C7_12  and  C8_13
REMARK    4  A    between atoms: C15_20  and  C16_21
ROOT
HETATM    1  N2  UNL     1      12.815  -1.332  30.380  1.00  0.00    -0.289 N
ATOM      2  H2  UNL     1      12.976  -1.856  31.240  1.00  0.00     0.188 HD
HETATM    3  C5  UNL     1      11.814  -0.555  30.380  1.00  0.00     0.092 C
HETATM    4  C6  UNL     1      10.976  -0.477  31.616  1.00  0.00     0.082 C
HETATM    5  C7  UNL     1      10.383   0.896  31.653  1.00  0.00    -0.002 C
HETATM    6  C14 UNL     1       9.478   1.156  30.499  1.00  0.00     0.031 C
HETATM    7  C15 UNL     1      10.045   0.626  29.189  1.00  0.00     0.087 C
HETATM    8  N3  UNL     1      11.421   0.264  29.279  1.00  0.00    -0.374 N
ATOM      9  H3  UNL     1      12.098   0.578  28.584  1.00  0.00     0.161 HD
ENDROOT
BRANCH   1  10
HETATM   10  N1  UNL     1      13.710  -1.555  29.359  1.00  0.00    -0.298 N
ATOM     11  H1  UNL     1      13.912  -0.833  28.667  1.00  0.00     0.187 HD
BRANCH  10  12
HETATM   12  C4  UNL     1      14.346  -2.825  29.301  1.00  0.00     0.070 A
HETATM   13  C3  UNL     1      13.595  -3.973  29.232  1.00  0.00     0.036 A
HETATM   14  C2  UNL     1      14.210  -5.211  29.175  1.00  0.00     0.044 A
HETATM   15  C1  UNL     1      15.588  -5.259  29.191  1.00  0.00     0.118 A
HETATM   16  F1  UNL     1      16.183  -6.491  29.135  1.00  0.00    -0.206 F
HETATM   17  C23 UNL     1      16.341  -4.120  29.260  1.00  0.00     0.068 A
HETATM   18  C22 UNL     1      15.720  -2.879  29.317  1.00  0.00     0.065 A
HETATM   19 CL1  UNL     1      16.678  -1.422  29.405  1.00  0.00    -0.082 Cl
ENDBRANCH  10  12
ENDBRANCH   1  10
BRANCH   5  20
HETATM   20  C8  UNL     1       9.677   1.219  32.941  1.00  0.00    -0.010 C
HETATM   21  C9  UNL     1       8.214   1.547  32.762  1.00  0.00     0.005 C
HETATM   22  C10 UNL     1       7.791   2.346  34.000  1.00  0.00     0.000 C
HETATM   23  C11 UNL     1       8.476   1.822  35.219  1.00  0.00     0.000 C
HETATM   24  C12 UNL     1       8.902   0.373  35.095  1.00  0.00     0.000 C
HETATM   25  C13 UNL     1       9.918   0.179  33.998  1.00  0.00     0.005 C
ENDBRANCH   5  20
BRANCH   7  26
HETATM   26  C16 UNL     1       9.707   1.606  28.114  1.00  0.00     0.008 C
HETATM   27  C17 UNL     1       8.442   2.368  28.418  1.00  0.00     0.007 C
HETATM   28  C18 UNL     1       8.255   3.542  27.512  1.00  0.00     0.000 C
HETATM   29  C19 UNL     1       9.453   4.457  27.701  1.00  0.00     0.000 C
HETATM   30  C20 UNL     1      10.642   3.713  27.102  1.00  0.00     0.000 C
HETATM   31  C21 UNL     1      10.903   2.516  27.962  1.00  0.00     0.007 C
ENDBRANCH   7  26
TORSDOF 4
ENDMDL