MODEL 4
REMARK VINA RESULT: -9.109468853      3.781      6.400
REMARK  4 active torsions:
REMARK  status: ('A' for Active; 'I' for Inactive)
REMARK    1  A    between atoms: C2_2  and  C4_4
REMARK    2  A    between atoms: C9_9  and  O1_10
REMARK    3  A    between atoms: C17_20  and  C19_22
REMARK    4  A    between atoms: C19_22  and  C20_23
REMARK       I    between atoms: C20_23  and  N1_25
ROOT
HETATM    1  C20 UNL     1      10.086   4.107  27.737  1.00  0.00     0.321 C
HETATM    2  O2  UNL     1       9.353   5.118  27.735  1.00  0.00    -0.254 OA
HETATM    3  N1  UNL     1      10.488   3.448  26.596  1.00  0.00    -0.244 NA
HETATM    4  O3  UNL     1      10.851   2.854  25.567  1.00  0.00    -0.215 OA
ATOM      5  H3  UNL     1      11.128   2.400  24.780  1.00  0.00     0.261 HD
ENDROOT
BRANCH   1   6
HETATM    6  C19 UNL     1      10.569   3.557  29.043  1.00  0.00     0.134 C
BRANCH   6   7
HETATM    7  C17 UNL     1       9.595   2.790  29.872  1.00  0.00     0.001 C
HETATM    8  C16 UNL     1       9.710   1.314  29.769  1.00  0.00     0.002 C
HETATM    9  C12 UNL     1       8.878   0.667  30.861  1.00  0.00     0.005 C
HETATM   10  C15 UNL     1      11.060   0.725  29.939  1.00  0.00     0.006 C
HETATM   11  C11 UNL     1       9.186   1.175  32.213  1.00  0.00     0.068 C
HETATM   12  C13 UNL     1       9.396  -0.764  30.770  1.00  0.00     0.006 C
HETATM   13  C10 UNL     1       9.155   2.640  32.392  1.00  0.00     0.069 C
HETATM   14  S1  UNL     1       7.861   0.658  33.342  1.00  0.00    -0.123 SA
HETATM   15  C7  UNL     1       7.866   3.158  32.754  1.00  0.00    -0.031 A
HETATM   16  C21 UNL     1       9.908   3.270  31.305  1.00  0.00     0.188 C
HETATM   17  C6  UNL     1       7.019   2.241  33.295  1.00  0.00     0.008 A
HETATM   18  C8  UNL     1       7.333   4.438  32.662  1.00  0.00     0.046 A
HETATM   19  C5  UNL     1       5.756   2.491  33.725  1.00  0.00     0.033 A
HETATM   20  C4  UNL     1       5.232   3.777  33.629  1.00  0.00     0.003 A
HETATM   21  C9  UNL     1       6.051   4.727  33.090  1.00  0.00     0.077 A
HETATM   22  F1  UNL     1      10.020   4.620  31.285  1.00  0.00    -0.248 F
HETATM   23  C14 UNL     1      10.876  -0.583  30.705  1.00  0.00     0.001 C
HETATM   24  C18 UNL     1       8.190   3.188  29.495  1.00  0.00     0.019 C
BRANCH  20  25
HETATM   25  C2  UNL     1       3.868   3.970  34.089  1.00  0.00    -0.058 C
HETATM   26  C1  UNL     1       2.832   3.635  33.382  1.00  0.00     0.019 C
HETATM   27  C3  UNL     1       3.638   4.555  35.444  1.00  0.00     0.048 C
ENDBRANCH  20  25
BRANCH  21  28
HETATM   28  O1  UNL     1       5.556   6.030  32.974  1.00  0.00    -0.360 OA
ATOM     29  H1  UNL     1       5.710   6.494  32.159  1.00  0.00     0.217 HD
ENDBRANCH  21  28
ENDBRANCH   6   7
ENDBRANCH   1   6
TORSDOF 4
ENDMDL