MODEL 3
REMARK VINA RESULT: -9.697118774      1.061      1.176
REMARK  4 active torsions:
REMARK  status: ('A' for Active; 'I' for Inactive)
REMARK    1  A    between atoms: C4_5  and  C5_6
REMARK    2  A    between atoms: C8_13  and  C9_14
REMARK    3  A    between atoms: C9_14  and  C10_15
REMARK    4  A    between atoms: C21_26  and  O3_27
ROOT
HETATM    1  C5  UNL     1       8.745   4.037  35.292  1.00  0.00     0.073 A
HETATM    2  C6  UNL     1       8.660   2.821  35.908  1.00  0.00     0.122 A
HETATM    3 CL1  UNL     1       8.817   2.592  37.665  1.00  0.00    -0.063 Cl
HETATM    4  N1  UNL     1       8.356   1.735  35.156  1.00  0.00    -0.313 N
ATOM      5  H1  UNL     1       8.294   0.825  35.613  1.00  0.00     0.170 HD
HETATM    6  C7  UNL     1       8.129   1.811  33.813  1.00  0.00     0.255 A
HETATM    7  O2  UNL     1       7.868   0.704  33.287  1.00  0.00    -0.268 OA
HETATM    8  C8  UNL     1       8.191   2.983  33.139  1.00  0.00     0.045 A
HETATM    9  C21 UNL     1       8.514   4.133  33.920  1.00  0.00     0.093 A
ENDROOT
BRANCH   8  10
HETATM   10  C9  UNL     1       7.957   3.169  31.730  1.00  0.00     0.056 C
BRANCH  10  11
HETATM   11  C10 UNL     1       9.100   3.021  30.754  1.00  0.00    -0.038 C
HETATM   12  C11 UNL     1       9.994   4.237  31.003  1.00  0.00     0.015 C
HETATM   13  C12 UNL     1       8.693   2.949  29.352  1.00  0.00     0.018 C
HETATM   14  C13 UNL     1       9.692   2.360  28.374  1.00  0.00    -0.046 C
HETATM   15  C14 UNL     1      10.748   3.324  27.910  1.00  0.00     0.015 C
HETATM   16  C15 UNL     1       8.843   2.086  27.104  1.00  0.00     0.015 C
HETATM   17  C16 UNL     1      10.267   1.068  28.812  1.00  0.00     0.017 C
HETATM   18  C17 UNL     1      10.073   0.723  30.243  1.00  0.00    -0.046 C
HETATM   19  C18 UNL     1       8.956  -0.297  30.425  1.00  0.00     0.015 C
HETATM   20  C19 UNL     1      11.342  -0.062  30.648  1.00  0.00     0.015 C
HETATM   21  C20 UNL     1       9.972   1.843  31.187  1.00  0.00     0.018 C
ENDBRANCH  10  11
ENDBRANCH   8  10
BRANCH   9  22
HETATM   22  O3  UNL     1       8.601   5.336  33.289  1.00  0.00    -0.359 OA
ATOM     23  H3  UNL     1       7.833   5.724  32.887  1.00  0.00     0.217 HD
ENDBRANCH   9  22
BRANCH   1  24
HETATM   24  C4  UNL     1       9.182   5.225  36.052  1.00  0.00     0.130 A
HETATM   25  O1  UNL     1      10.290   5.923  35.788  1.00  0.00    -0.318 OA
HETATM   26  C3  UNL     1      10.446   6.916  36.612  1.00  0.00     0.152 A
HETATM   27  C2  UNL     1       9.414   6.939  37.511  1.00  0.00     0.002 A
HETATM   28  C1  UNL     1       9.209   7.903  38.614  1.00  0.00     0.053 C
HETATM   29  C22 UNL     1       8.618   5.844  37.131  1.00  0.00     0.159 A
HETATM   30  F1  UNL     1       7.512   5.533  37.867  1.00  0.00    -0.203 F
ENDBRANCH   1  24
TORSDOF 4
ENDMDL