MODEL 2
REMARK VINA RESULT: -10.142588544      0.050      1.513
REMARK  3 active torsions:
REMARK  status: ('A' for Active; 'I' for Inactive)
REMARK    1  A    between atoms: O1_1  and  C1_3
REMARK    2  A    between atoms: C6_10  and  C7_11
REMARK    3  A    between atoms: C15_24  and  C16_25
ROOT
HETATM    1  C1  UNL     1      16.566  -3.860  29.635  1.00  0.00     0.078 A
HETATM    2  C2  UNL     1      15.367  -3.267  29.905  1.00  0.00     0.052 A
HETATM    3  C3  UNL     1      14.891  -2.141  29.277  1.00  0.00     0.012 A
HETATM    4  C4  UNL     1      13.628  -1.519  29.564  1.00  0.00     0.116 A
HETATM    5  N1  UNL     1      12.733  -1.950  30.489  1.00  0.00    -0.349 N
ATOM      6  H1  UNL     1      12.832  -2.763  31.097  1.00  0.00     0.167 HD
HETATM    7  C5  UNL     1      11.684  -1.097  30.450  1.00  0.00     0.120 A
HETATM    8  C6  UNL     1      11.919  -0.128  29.499  1.00  0.00     0.059 A
HETATM    9  N2  UNL     1      13.123  -0.422  28.977  1.00  0.00    -0.340 N
ATOM     10  H2  UNL     1      13.586   0.112  28.242  1.00  0.00     0.167 HD
HETATM   11  C13 UNL     1      15.722  -1.606  28.307  1.00  0.00     0.035 A
HETATM   12  C14 UNL     1      16.967  -2.192  28.002  1.00  0.00     0.019 A
HETATM   13  S1  UNL     1      18.227  -1.837  26.908  1.00  0.00    -0.093 SA
HETATM   14  C15 UNL     1      19.296  -3.114  27.287  1.00  0.00    -0.011 A
HETATM   15  C22 UNL     1      18.628  -3.790  28.269  1.00  0.00     0.030 A
HETATM   16  C23 UNL     1      17.414  -3.310  28.643  1.00  0.00     0.015 A
ENDROOT
BRANCH   1  17
HETATM   17  O1  UNL     1      16.907  -4.991  30.353  1.00  0.00    -0.360 OA
ATOM     18  H1  UNL     1      16.326  -5.269  31.050  1.00  0.00     0.217 HD
ENDBRANCH   1  17
BRANCH   8  19
HETATM   19  C7  UNL     1      11.046   0.985  29.133  1.00  0.00    -0.002 A
HETATM   20  C8  UNL     1       9.930   1.322  29.864  1.00  0.00     0.056 A
HETATM   21  C9  UNL     1       9.106   2.376  29.518  1.00  0.00     0.120 A
HETATM   22  F1  UNL     1       8.013   2.717  30.221  1.00  0.00    -0.206 F
HETATM   23  C10 UNL     1       9.421   3.113  28.395  1.00  0.00     0.084 A
HETATM   24  C11 UNL     1      10.533   2.800  27.640  1.00  0.00     0.120 A
HETATM   25  F2  UNL     1      10.787   3.564  26.550  1.00  0.00    -0.206 F
HETATM   26  C12 UNL     1      11.335   1.741  28.017  1.00  0.00     0.056 A
ENDBRANCH   8  19
BRANCH  14  27
HETATM   27  C16 UNL     1      20.622  -3.441  26.681  1.00  0.00     0.030 C
HETATM   28  C17 UNL     1      20.529  -3.514  25.139  1.00  0.00     0.014 C
HETATM   29  C18 UNL     1      21.638  -2.565  24.795  1.00  0.00    -0.013 C
HETATM   30  C19 UNL     1      21.236  -1.378  25.695  1.00  0.00     0.010 C
HETATM   31  C21 UNL     1      22.699  -2.795  25.845  1.00  0.00     0.010 C
HETATM   32  C20 UNL     1      21.582  -2.342  26.807  1.00  0.00    -0.005 C
ENDBRANCH  14  27
TORSDOF 3
ENDMDL