MODEL 2
REMARK VINA RESULT: -7.890202551      2.965      4.598
REMARK  4 active torsions:
REMARK  status: ('A' for Active; 'I' for Inactive)
REMARK    1  A    between atoms: O1_1  and  C1_3
REMARK    2  A    between atoms: C1_3  and  C2_4
REMARK    3  A    between atoms: C5_8  and  C6_9
REMARK    4  A    between atoms: C6_9  and  C7_10
ROOT
HETATM    1  C6  UNL     1       7.552   2.804  32.424  1.00  0.00     0.072 C
HETATM    2  C13 UNL     1       7.469   1.313  32.805  1.00  0.00     0.078 C
HETATM    3  C14 UNL     1       8.448   1.104  33.865  1.00  0.00    -0.025 A
HETATM    4  C15 UNL     1       8.978  -0.025  34.433  1.00  0.00     0.051 A
HETATM    5  C16 UNL     1       9.914   0.066  35.450  1.00  0.00     0.118 A
HETATM    6  F1  UNL     1      10.464  -1.028  36.040  1.00  0.00    -0.206 F
HETATM    7  C17 UNL     1      10.335   1.296  35.915  1.00  0.00     0.063 A
HETATM    8  C18 UNL     1       9.814   2.433  35.357  1.00  0.00     0.040 A
HETATM    9 BR1  UNL     1      10.383   4.141  35.987  1.00  0.00    -0.049 Br
HETATM   10  C19 UNL     1       8.873   2.313  34.333  1.00  0.00     0.053 A
HETATM   11  N1  UNL     1       8.222   3.327  33.629  1.00  0.00    -0.374 N
ATOM     12  H1  UNL     1       8.211   4.306  33.913  1.00  0.00     0.161 HD
ENDROOT
BRANCH   1  13
HETATM   13  C5  UNL     1       8.480   2.934  31.320  1.00  0.00     0.019 A
HETATM   14  C2  UNL     1       9.262   3.853  30.725  1.00  0.00    -0.019 A
HETATM   15  C3  UNL     1      10.010   3.493  29.651  1.00  0.00     0.017 A
HETATM   16  C4  UNL     1       9.936   2.203  29.217  1.00  0.00     0.051 A
HETATM   17  S1  UNL     1       8.827   1.542  30.324  1.00  0.00    -0.103 SA
BRANCH  14  18
HETATM   18  C1  UNL     1       9.311   5.257  31.234  1.00  0.00     0.204 C
BRANCH  18  19
HETATM   19  O1  UNL     1      10.164   5.374  32.348  1.00  0.00    -0.396 OA
ATOM     20  H1  UNL     1      11.078   5.316  32.095  1.00  0.00     0.209 HD
ENDBRANCH  18  19
ENDBRANCH  14  18
ENDBRANCH   1  13
BRANCH   1  21
HETATM   21  C7  UNL     1       6.210   3.352  32.496  1.00  0.00     0.019 C
HETATM   22  C8  UNL     1       6.312   4.738  33.205  1.00  0.00     0.007 C
HETATM   23  C9  UNL     1       5.041   5.539  32.843  1.00  0.00     0.000 C
HETATM   24  C10 UNL     1       3.840   4.632  33.019  1.00  0.00     0.000 C
HETATM   25  C11 UNL     1       4.226   3.610  34.042  1.00  0.00     0.000 C
HETATM   26  C12 UNL     1       5.204   2.651  33.400  1.00  0.00     0.007 C
ENDBRANCH   1  21
TORSDOF 4
ENDMDL