MODEL 3
REMARK VINA RESULT: -8.105407641      4.208      7.056
REMARK  5 active torsions:
REMARK  status: ('A' for Active; 'I' for Inactive)
REMARK    1  A    between atoms: C2_2  and  C3_3
REMARK    2  A    between atoms: C2_2  and  C8_13
REMARK    3  A    between atoms: C3_3  and  C4_4
REMARK    4  A    between atoms: C5_5  and  O1_6
REMARK    5  A    between atoms: C7_10  and  O3_11
ROOT
HETATM    1  C8  UNL     1       8.941   1.204  31.944  1.00  0.00    -0.065 C
HETATM    2  C9  UNL     1       8.230   0.164  32.716  1.00  0.00     0.036 C
HETATM    3  C10 UNL     1       6.873   0.815  32.976  1.00  0.00     0.015 C
HETATM    4  C11 UNL     1       7.065   2.292  32.742  1.00  0.00     0.035 C
HETATM    5  C12 UNL     1       6.696   3.102  33.906  1.00  0.00    -0.042 A
HETATM    6  C13 UNL     1       5.452   3.570  34.305  1.00  0.00     0.027 A
HETATM    7  C14 UNL     1       5.310   4.336  35.455  1.00  0.00     0.011 A
HETATM    8 BR1  UNL     1       3.586   4.979  35.997  1.00  0.00    -0.051 Br
HETATM    9  C15 UNL     1       6.448   4.607  36.176  1.00  0.00     0.020 A
HETATM   10  C16 UNL     1       7.687   4.140  35.777  1.00  0.00     0.012 A
HETATM   11  C17 UNL     1       7.829   3.376  34.630  1.00  0.00    -0.017 A
HETATM   12  C18 UNL     1       9.018   2.751  33.969  1.00  0.00     0.216 C
HETATM   13  F1  UNL     1      10.011   3.723  34.060  1.00  0.00    -0.243 F
HETATM   14  C19 UNL     1       8.575   2.487  32.597  1.00  0.00     0.022 C
HETATM   15  C20 UNL     1       8.870   3.697  31.729  1.00  0.00     0.024 C
ENDROOT
BRANCH   1  16
HETATM   16  C2  UNL     1      10.312   0.985  31.505  1.00  0.00    -0.076 C
HETATM   17  C1  UNL     1      11.271   0.345  32.476  1.00  0.00     0.044 C
BRANCH  16  18
HETATM   18  C3  UNL     1      10.580   0.608  30.099  1.00  0.00     0.080 C
BRANCH  18  19
HETATM   19  C4  UNL     1      10.046   1.414  29.017  1.00  0.00     0.039 A
HETATM   20  C5  UNL     1      10.380   2.657  28.557  1.00  0.00     0.099 A
HETATM   21  C6  UNL     1       9.519   2.994  27.505  1.00  0.00     0.182 A
HETATM   22  O2  UNL     1       8.710   2.002  27.344  1.00  0.00    -0.297 OA
HETATM   23  C7  UNL     1       8.974   1.036  28.210  1.00  0.00     0.192 A
BRANCH  20  24
HETATM   24  O1  UNL     1      11.391   3.484  29.010  1.00  0.00    -0.358 OA
ATOM     25  H1  UNL     1      11.304   4.309  29.472  1.00  0.00     0.217 HD
ENDBRANCH  20  24
BRANCH  23  26
HETATM   26  O3  UNL     1       8.246  -0.141  28.245  1.00  0.00    -0.340 OA
ATOM     27  H3  UNL     1       7.413  -0.330  27.831  1.00  0.00     0.220 HD
ENDBRANCH  23  26
ENDBRANCH  18  19
ENDBRANCH  16  18
ENDBRANCH   1  16
TORSDOF 5
ENDMDL