MODEL 3
REMARK VINA RESULT: -7.388955221      2.524      4.597
REMARK  5 active torsions:
REMARK  status: ('A' for Active; 'I' for Inactive)
REMARK    1  A    between atoms: C2_2  and  C3_3
REMARK    2  A    between atoms: C3_3  and  C4_4
REMARK    3  A    between atoms: C4_4  and  C5_5
REMARK    4  A    between atoms: C8_8  and  O1_9
REMARK    5  A    between atoms: C11_13  and  O2_14
ROOT
HETATM    1  C5  UNL     1       9.676   3.841  30.656  1.00  0.00    -0.013 A
HETATM    2  C6  UNL     1      10.147   2.591  30.978  1.00  0.00    -0.019 A
HETATM    3  C7  UNL     1      10.597   1.665  29.902  1.00  0.00     0.052 C
HETATM    4  C8  UNL     1      10.244   2.126  32.298  1.00  0.00     0.082 A
HETATM    5  C9  UNL     1       9.863   2.920  33.354  1.00  0.00     0.024 A
HETATM    6  C10 UNL     1       9.394   4.175  33.024  1.00  0.00     0.113 A
HETATM    7  C11 UNL     1       9.296   4.640  31.709  1.00  0.00     0.106 A
HETATM    8  O3  UNL     1       8.973   5.116  33.992  1.00  0.00    -0.337 OA
HETATM    9  C12 UNL     1       9.613   4.908  35.260  1.00  0.00     0.066 C
HETATM   10  C13 UNL     1      11.047   5.242  35.197  1.00  0.00     0.046 C
HETATM   11  C14 UNL     1       8.916   5.815  36.245  1.00  0.00     0.046 C
HETATM   12  C15 UNL     1       9.251   3.497  35.620  1.00  0.00     0.040 C
HETATM   13  C16 UNL     1       7.752   3.428  35.547  1.00  0.00     0.036 C
HETATM   14  C17 UNL     1       7.201   2.350  34.717  1.00  0.00    -0.021 C
HETATM   15  C18 UNL     1       7.886   1.234  34.468  1.00  0.00    -0.048 C
HETATM   16  C19 UNL     1       7.413   0.108  33.651  1.00  0.00     0.046 C
HETATM   17  C20 UNL     1       9.218   1.183  35.100  1.00  0.00     0.148 C
HETATM   18 CL1  UNL     1       8.859   1.309  36.898  1.00  0.00    -0.095 Cl
HETATM   19 CL2  UNL     1      10.069  -0.327  34.969  1.00  0.00    -0.095 Cl
HETATM   20  C21 UNL     1       9.942   2.440  34.754  1.00  0.00     0.035 C
HETATM   21  C22 UNL     1      11.379   2.260  35.222  1.00  0.00     0.025 C
ENDROOT
BRANCH   1  22
HETATM   22  C4  UNL     1       9.565   4.306  29.249  1.00  0.00     0.042 C
BRANCH  22  23
HETATM   23  C3  UNL     1       8.260   3.957  28.595  1.00  0.00     0.004 C
BRANCH  23  24
HETATM   24  C2  UNL     1       8.570   3.269  27.281  1.00  0.00    -0.004 C
HETATM   25  C1  UNL     1      10.009   3.384  26.896  1.00  0.00     0.005 C
ENDBRANCH  23  24
ENDBRANCH  22  23
ENDBRANCH   1  22
BRANCH   7  26
HETATM   26  O2  UNL     1       8.813   5.907  31.444  1.00  0.00    -0.357 OA
ATOM     27  H2  UNL     1       7.880   6.025  31.318  1.00  0.00     0.217 HD
ENDBRANCH   7  26
BRANCH   4  28
HETATM   28  O1  UNL     1      10.744   0.840  32.448  1.00  0.00    -0.359 OA
ATOM     29  H1  UNL     1      11.333   0.710  33.182  1.00  0.00     0.217 HD
ENDBRANCH   4  28
TORSDOF 5
ENDMDL