MODEL 3
REMARK VINA RESULT: -9.562116864      1.550      1.934
REMARK  4 active torsions:
REMARK  status: ('A' for Active; 'I' for Inactive)
REMARK    1  A    between atoms: C5_6  and  C6_7
REMARK    2  A    between atoms: C8_9  and  C9_10
REMARK    3  A    between atoms: N1_13  and  C12_14
REMARK    4  A    between atoms: C21_23  and  O1_24
ROOT
HETATM    1  C6  UNL     1      13.719  -2.125  29.462  1.00  0.00     0.050 A
HETATM    2  C7  UNL     1      12.744  -1.999  30.429  1.00  0.00     0.046 A
HETATM    3  C8  UNL     1      11.977  -0.840  30.195  1.00  0.00     0.023 A
HETATM    4  C21 UNL     1      12.506  -0.286  29.087  1.00  0.00     0.151 A
HETATM    5  N2  UNL     1      13.534  -1.061  28.670  1.00  0.00    -0.336 N
ATOM      6  H2  UNL     1      14.102  -0.858  27.848  1.00  0.00     0.168 HD
ENDROOT
BRANCH   3   7
HETATM    7  C9  UNL     1      10.864  -0.414  31.033  1.00  0.00    -0.044 C
HETATM    8  C10 UNL     1       9.615  -0.590  30.643  1.00  0.00     0.011 C
HETATM    9  C11 UNL     1       8.429  -0.187  31.431  1.00  0.00     0.301 C
HETATM   10  N1  UNL     1       8.699   0.723  32.509  1.00  0.00     0.096 N
HETATM   11  C19 UNL     1       9.975   1.340  32.451  1.00  0.00     0.278 C
HETATM   12  C20 UNL     1      11.063   0.247  32.331  1.00  0.00     0.069 C
BRANCH  10  13
HETATM   13  C12 UNL     1       7.638   1.698  32.556  1.00  0.00     0.223 C
HETATM   14  C13 UNL     1       8.123   2.977  31.917  1.00  0.00     0.036 C
HETATM   15  C14 UNL     1       7.070   4.070  31.987  1.00  0.00     0.002 C
HETATM   16  C15 UNL     1       6.913   4.609  33.378  1.00  0.00     0.000 C
HETATM   17  C16 UNL     1       8.087   4.312  34.254  1.00  0.00     0.000 C
HETATM   18  C17 UNL     1       8.319   2.887  34.580  1.00  0.00     0.002 C
HETATM   19  C18 UNL     1       7.311   1.916  34.023  1.00  0.00     0.036 C
ENDBRANCH  10  13
ENDBRANCH   3   7
BRANCH   4  20
HETATM   20  O1  UNL     1      12.075   0.906  28.454  1.00  0.00    -0.345 OA
ATOM     21  H1  UNL     1      12.247   1.162  27.556  1.00  0.00     0.219 HD
ENDBRANCH   4  20
BRANCH   1  22
HETATM   22  C5  UNL     1      14.742  -3.178  29.415  1.00  0.00     0.051 A
HETATM   23  C4  UNL     1      15.997  -2.981  29.967  1.00  0.00     0.131 A
HETATM   24  C3  UNL     1      17.008  -3.944  29.893  1.00  0.00     0.050 A
HETATM   25  F1  UNL     1      16.276  -1.837  30.638  1.00  0.00    -0.205 F
HETATM   26  C2  UNL     1      16.813  -5.145  29.268  1.00  0.00    -0.057 A
HETATM   27  C1  UNL     1      17.907  -6.152  29.200  1.00  0.00     0.048 C
HETATM   28  C23 UNL     1      15.580  -5.356  28.716  1.00  0.00     0.031 A
HETATM   29  C22 UNL     1      14.555  -4.390  28.785  1.00  0.00     0.050 A
HETATM   30 CL1  UNL     1      13.033  -4.752  28.003  1.00  0.00    -0.083 Cl
ENDBRANCH   1  22
TORSDOF 4
ENDMDL