MODEL 3
REMARK VINA RESULT: -9.404103026      6.381      8.122
REMARK  4 active torsions:
REMARK  status: ('A' for Active; 'I' for Inactive)
REMARK    1  A    between atoms: C2_2  and  C15_18
REMARK    2  A    between atoms: C3_3  and  C4_4
REMARK    3  A    between atoms: C4_4  and  C5_5
REMARK    4  A    between atoms: C10_10  and  O1_11
ROOT
HETATM    1  C1  UNL     1       8.894  -0.127  34.754  1.00  0.00     0.048 C
HETATM    2  C2  UNL     1       9.822   0.330  33.711  1.00  0.00    -0.064 C
HETATM    3  C3  UNL     1      10.864   1.115  34.001  1.00  0.00    -0.019 C
ENDROOT
BRANCH   3   4
HETATM    4  C4  UNL     1      11.235   1.619  35.334  1.00  0.00     0.040 C
BRANCH   4   5
HETATM    5  C5  UNL     1      10.916   3.099  35.367  1.00  0.00     0.059 C
HETATM    6  C6  UNL     1       9.663   3.454  34.648  1.00  0.00     0.013 C
HETATM    7  C7  UNL     1       8.414   3.353  35.447  1.00  0.00     0.013 C
HETATM    8  C8  UNL     1       8.528   3.712  36.876  1.00  0.00    -0.008 C
HETATM    9  C9  UNL     1       8.516   2.524  37.816  1.00  0.00     0.018 C
HETATM   10  C10 UNL     1       7.519   4.697  37.379  1.00  0.00     0.127 C
HETATM   11  C13 UNL     1       9.809   4.534  37.096  1.00  0.00     0.066 C
HETATM   12  C11 UNL     1       8.174   5.213  38.645  1.00  0.00     0.033 C
HETATM   13  C12 UNL     1       9.653   4.882  38.532  1.00  0.00     0.015 C
HETATM   14  C14 UNL     1      10.923   3.624  36.785  1.00  0.00     0.136 C
HETATM   15  O2  UNL     1      11.792   3.286  37.538  1.00  0.00    -0.297 OA
BRANCH  10  16
HETATM   16  O1  UNL     1       6.269   4.143  37.615  1.00  0.00    -0.395 OA
ATOM     17  H1  UNL     1       5.938   4.307  38.490  1.00  0.00     0.210 HD
ENDBRANCH  10  16
ENDBRANCH   4   5
ENDBRANCH   3   4
BRANCH   2  18
HETATM   18  C15 UNL     1       9.644  -0.034  32.315  1.00  0.00     0.031 C
HETATM   19  C16 UNL     1       9.090   0.595  31.342  1.00  0.00     0.009 C
HETATM   20  C17 UNL     1       9.070  -0.062  29.979  1.00  0.00     0.057 C
HETATM   21  N1  UNL     1       8.443   1.874  31.433  1.00  0.00    -0.361 N
HETATM   22  C18 UNL     1       8.950   0.934  28.875  1.00  0.00     0.012 C
HETATM   23  C19 UNL     1       9.422   2.323  29.220  1.00  0.00     0.060 C
HETATM   24  C20 UNL     1       8.732   2.842  30.435  1.00  0.00     0.043 C
HETATM   25  C21 UNL     1       8.391   4.103  30.616  1.00  0.00     0.125 C
HETATM   26 CL1  UNL     1       8.745   5.299  29.383  1.00  0.00    -0.069 Cl
HETATM   27 CL2  UNL     1       7.583   4.590  32.088  1.00  0.00    -0.069 Cl
ATOM     28  H1  UNL     1       7.795   2.081  32.193  1.00  0.00     0.165 HD
ENDBRANCH   2  18
TORSDOF 4
ENDMDL