MODEL 5
REMARK VINA RESULT: -7.300673186      3.796      7.215
REMARK  4 active torsions:
REMARK  status: ('A' for Active; 'I' for Inactive)
REMARK    1  A    between atoms: C2_2  and  C3_3
REMARK    2  A    between atoms: C10_11  and  C11_12
REMARK    3  A    between atoms: C14_15  and  O1_16
REMARK    4  A    between atoms: C16_18  and  O2_19
ROOT
HETATM    1  C3  UNL     1       9.924   3.300  36.668  1.00  0.00     0.009 C
HETATM    2  C4  UNL     1       8.964   3.006  37.804  1.00  0.00     0.087 C
HETATM    3 CL1  UNL     1       7.600   4.092  37.943  1.00  0.00    -0.125 Cl
HETATM    4  C5  UNL     1       8.488   1.593  37.396  1.00  0.00     0.027 C
HETATM    5  C6  UNL     1       8.287   1.739  35.887  1.00  0.00     0.012 A
HETATM    6  C7  UNL     1       9.202   2.826  35.453  1.00  0.00     0.007 A
HETATM    7  C8  UNL     1       9.928   1.816  34.546  1.00  0.00    -0.014 A
HETATM    8  C9  UNL     1      11.364   1.809  34.896  1.00  0.00     0.018 C
HETATM    9  C10 UNL     1       9.535   2.069  33.113  1.00  0.00     0.030 C
HETATM   10  C18 UNL     1       8.045   1.594  33.086  1.00  0.00     0.012 C
HETATM   11  C19 UNL     1       8.129   0.306  33.891  1.00  0.00     0.023 C
HETATM   12  C20 UNL     1       9.027   0.753  35.042  1.00  0.00     0.031 A
HETATM   13  S1  UNL     1       9.749  -0.627  35.946  1.00  0.00    -0.085 SA
ENDROOT
BRANCH   9  14
HETATM   14  C11 UNL     1      10.257   1.359  32.060  1.00  0.00    -0.029 A
HETATM   15  C12 UNL     1      10.755   0.095  32.128  1.00  0.00     0.012 A
HETATM   16  C13 UNL     1      11.402  -0.524  31.042  1.00  0.00     0.040 A
HETATM   17  C14 UNL     1      11.561   0.127  29.848  1.00  0.00     0.103 A
HETATM   18  C16 UNL     1      11.055   1.416  29.769  1.00  0.00     0.121 A
HETATM   19  C17 UNL     1      10.432   2.008  30.824  1.00  0.00     0.076 A
HETATM   20 CL2  UNL     1       9.805   3.646  30.705  1.00  0.00    -0.081 Cl
BRANCH  17  21
HETATM   21  O1  UNL     1      12.199  -0.450  28.744  1.00  0.00    -0.353 OA
HETATM   22  C15 UNL     1      13.312  -1.306  28.904  1.00  0.00     0.210 C
ENDBRANCH  17  21
BRANCH  18  23
HETATM   23  O2  UNL     1      11.209   2.090  28.559  1.00  0.00    -0.356 OA
ATOM     24  H2  UNL     1      12.063   2.050  28.143  1.00  0.00     0.218 HD
ENDBRANCH  18  23
ENDBRANCH   9  14
BRANCH   1  25
HETATM   25  C2  UNL     1      10.333   4.721  36.641  1.00  0.00     0.002 C
HETATM   26  C1  UNL     1      10.116   5.510  35.406  1.00  0.00     0.005 C
ENDBRANCH   1  25
TORSDOF 4
ENDMDL