MODEL 2
REMARK VINA RESULT: -9.296723123      1.446      2.464
REMARK  17 active torsions:
REMARK  status: ('A' for Active; 'I' for Inactive)
REMARK    1  A    between atoms: C2_2  and  C3_3
REMARK    2  A    between atoms: C2_2  and  C9_11
REMARK    3  A    between atoms: C3_3  and  O1_4
REMARK    4  A    between atoms: O1_4  and  C4_5
REMARK    5  A    between atoms: C4_5  and  C5_7
REMARK    6  A    between atoms: C10_12  and  O3_13
REMARK    7  A    between atoms: C11_15  and  O4_16
REMARK    8  A    between atoms: C12_18  and  C13_19
REMARK    9  A    between atoms: C13_19  and  C14_20
REMARK   10  A    between atoms: C14_20  and  C15_21
REMARK   11  A    between atoms: C15_21  and  C17_23
REMARK   12  A    between atoms: C17_23  and  C18_24
REMARK   13  A    between atoms: C18_24  and  C19_25
REMARK   14  A    between atoms: C19_25  and  C20_26
REMARK   15  A    between atoms: C31_41  and  C32_42
REMARK   16  A    between atoms: C32_42  and  C33_43
REMARK   17  A    between atoms: C33_43  and  O9_44
ROOT
HETATM    1  C9  UNL     1      -5.868   1.801  17.842  1.00  0.00     0.052 C
HETATM    2  C10 UNL     1      -6.945   0.923  18.280  1.00  0.00     0.156 C
HETATM    3  C11 UNL     1      -6.527   0.440  19.700  1.00  0.00     0.155 C
HETATM    4  C12 UNL     1      -5.072   0.408  19.593  1.00  0.00     0.044 C
HETATM    5  C31 UNL     1      -4.771   1.763  18.947  1.00  0.00     0.008 C
ENDROOT
BRANCH   4   6
HETATM    6  C13 UNL     1      -4.190   0.048  20.662  1.00  0.00    -0.019 C
BRANCH   6   7
HETATM    7  C14 UNL     1      -4.167  -0.449  21.827  1.00  0.00     0.003 C
BRANCH   7   8
HETATM    8  C15 UNL     1      -4.280   0.042  23.169  1.00  0.00    -0.062 C
HETATM    9  C16 UNL     1      -3.913  -1.713  23.776  1.00  0.00     0.048 C
BRANCH   8  10
HETATM   10  C17 UNL     1      -4.372   0.449  24.285  1.00  0.00     0.006 C
BRANCH  10  11
HETATM   11  C18 UNL     1      -3.527   1.535  24.919  1.00  0.00    -0.001 C
BRANCH  11  12
HETATM   12  C19 UNL     1      -3.103   1.599  26.054  1.00  0.00     0.013 C
BRANCH  12  13
HETATM   13  C20 UNL     1      -1.910   1.297  26.875  1.00  0.00     0.101 C
HETATM   14  O5  UNL     1      -1.053   0.536  25.998  1.00  0.00    -0.299 OA
HETATM   15  C21 UNL     1      -0.044  -0.196  26.578  1.00  0.00     0.331 C
HETATM   16  O6  UNL     1       0.823  -0.859  25.928  1.00  0.00    -0.256 OA
HETATM   17  C22 UNL     1       0.050  -0.224  28.033  1.00  0.00     0.236 C
HETATM   18  O7  UNL     1       1.146  -0.495  28.575  1.00  0.00    -0.286 OA
HETATM   19  C23 UNL     1      -1.132   0.062  28.888  1.00  0.00     0.146 C
HETATM   20  C24 UNL     1      -0.852   1.410  29.517  1.00  0.00     0.140 C
HETATM   21  C28 UNL     1      -2.304   0.331  27.959  1.00  0.00     0.006 C
HETATM   22  O8  UNL     1      -1.005   1.485  30.714  1.00  0.00    -0.297 OA
HETATM   23  C25 UNL     1      -0.434   2.450  28.594  1.00  0.00     0.086 C
HETATM   24  C26 UNL     1      -1.204   2.512  27.313  1.00  0.00     0.028 C
HETATM   25  C27 UNL     1      -0.171   2.829  26.223  1.00  0.00     0.014 C
HETATM   26  C29 UNL     1      -3.499   0.828  28.777  1.00  0.00     0.019 C
HETATM   27  C30 UNL     1      -2.719  -0.973  27.312  1.00  0.00     0.019 C
ENDBRANCH  12  13
ENDBRANCH  11  12
ENDBRANCH  10  11
ENDBRANCH   8  10
ENDBRANCH   7   8
ENDBRANCH   6   7
ENDBRANCH   4   6
BRANCH   3  28
HETATM   28  O4  UNL     1      -7.093   1.231  20.683  1.00  0.00    -0.392 OA
ATOM     29  H4  UNL     1      -7.352   0.711  21.435  1.00  0.00     0.210 HD
ENDBRANCH   3  28
BRANCH   5  30
HETATM   30  C32 UNL     1      -4.863   2.971  19.761  1.00  0.00     0.032 C
BRANCH  30  31
HETATM   31  C33 UNL     1      -3.687   3.861  19.920  1.00  0.00     0.164 C
BRANCH  31  32
HETATM   32  O9  UNL     1      -3.054   4.124  18.695  1.00  0.00    -0.401 OA
ATOM     33  H9  UNL     1      -2.381   4.788  18.777  1.00  0.00     0.209 HD
ENDBRANCH  31  32
ENDBRANCH  30  31
ENDBRANCH   5  30
BRANCH   2  34
HETATM   34  O3  UNL     1      -7.259  -0.196  17.562  1.00  0.00    -0.392 OA
ATOM     35  H3  UNL     1      -8.054  -0.680  17.751  1.00  0.00     0.210 HD
ENDBRANCH   2  34
BRANCH   1  36
HETATM   36  C2  UNL     1      -5.229   1.678  16.540  1.00  0.00    -0.058 C
HETATM   37  C1  UNL     1      -5.638   1.863  15.354  1.00  0.00     0.017 C
BRANCH  36  38
HETATM   38  C3  UNL     1      -3.746   1.247  16.672  1.00  0.00     0.213 C
BRANCH  38  39
HETATM   39  O1  UNL     1      -2.903   2.222  16.152  1.00  0.00    -0.314 OA
BRANCH  39  40
HETATM   40  C4  UNL     1      -1.529   2.140  16.391  1.00  0.00     0.283 C
HETATM   41  O2  UNL     1      -1.147   2.157  17.621  1.00  0.00    -0.260 OA
BRANCH  40  42
HETATM   42  C5  UNL     1      -0.504   2.042  15.403  1.00  0.00     0.084 C
HETATM   43  C6  UNL     1      -0.121   3.051  14.629  1.00  0.00    -0.082 C
HETATM   44  C7  UNL     1      -0.753   4.372  14.745  1.00  0.00     0.043 C
HETATM   45  C8  UNL     1       0.995   2.800  13.667  1.00  0.00     0.043 C
ENDBRANCH  40  42
ENDBRANCH  39  40
ENDBRANCH  38  39
ENDBRANCH  36  38
ENDBRANCH   1  36
TORSDOF 17
ENDMDL