MODEL 2
REMARK VINA RESULT: -7.936960229      1.154      1.604
REMARK  14 active torsions:
REMARK  status: ('A' for Active; 'I' for Inactive)
REMARK    1  A    between atoms: C3_3  and  O1_4
REMARK    2  A    between atoms: C3_3  and  C4_6
REMARK    3  A    between atoms: C3_3  and  C11_13
REMARK    4  A    between atoms: C4_6  and  C5_7
REMARK    5  A    between atoms: C5_7  and  C6_8
REMARK    6  A    between atoms: C6_8  and  C7_9
REMARK    7  A    between atoms: C7_9  and  C9_11
REMARK    8  A    between atoms: C14_16  and  O2_17
REMARK    9  A    between atoms: N1_22  and  O3_24
REMARK   10  A    between atoms: O3_24  and  C18_25
REMARK   11  A    between atoms: C22_30  and  C23_31
REMARK   12  A    between atoms: C23_31  and  C25_33
REMARK   13  A    between atoms: C25_33  and  O5_34
REMARK   14  A    between atoms: C30_42  and  C31_43
ROOT
HETATM    1  C1  UNL     1      -3.885  -1.189  20.820  1.00  0.00     0.015 C
HETATM    2  C2  UNL     1      -4.162  -0.026  20.964  1.00  0.00    -0.079 C
HETATM    3  C3  UNL     1      -4.533   1.460  21.117  1.00  0.00     0.124 C
ENDROOT
BRANCH   3   4
HETATM    4  O1  UNL     1      -3.504   2.111  20.458  1.00  0.00    -0.377 OA
ATOM      5  H1  UNL     1      -2.792   2.082  21.087  1.00  0.00     0.211 HD
ENDBRANCH   3   4
BRANCH   3   6
HETATM    6  C4  UNL     1      -5.790   1.577  20.350  1.00  0.00     0.052 C
BRANCH   6   7
HETATM    7  C5  UNL     1      -6.111   0.490  19.402  1.00  0.00     0.004 C
BRANCH   7   8
HETATM    8  C6  UNL     1      -6.482   1.052  18.046  1.00  0.00     0.004 C
BRANCH   8   9
HETATM    9  C7  UNL     1      -5.356   1.825  17.419  1.00  0.00    -0.019 C
HETATM   10  C8  UNL     1      -5.752   2.343  16.054  1.00  0.00     0.010 C
BRANCH   9  11
HETATM   11  C9  UNL     1      -4.098   1.025  17.272  1.00  0.00    -0.000 C
HETATM   12  C10 UNL     1      -3.193   1.548  16.187  1.00  0.00     0.005 C
ENDBRANCH   9  11
ENDBRANCH   8   9
ENDBRANCH   7   8
ENDBRANCH   6   7
ENDBRANCH   3   6
BRANCH   3  13
HETATM   13  C11 UNL     1      -4.595   1.684  22.580  1.00  0.00     0.040 C
HETATM   14  C12 UNL     1      -4.000   0.317  23.110  1.00  0.00     0.012 C
HETATM   15  C13 UNL     1      -3.717   0.526  24.547  1.00  0.00     0.039 C
HETATM   16  C14 UNL     1      -3.874   1.986  24.719  1.00  0.00     0.067 C
HETATM   17  C15 UNL     1      -3.112   2.579  25.807  1.00  0.00     0.031 C
HETATM   18  C33 UNL     1      -3.692   2.593  23.308  1.00  0.00     0.039 C
HETATM   19  C16 UNL     1      -1.658   2.347  25.894  1.00  0.00     0.063 C
HETATM   20  C28 UNL     1      -3.468   4.076  25.853  1.00  0.00     0.008 C
HETATM   21  C17 UNL     1      -1.083   3.018  27.093  1.00  0.00     0.023 C
HETATM   22  N1  UNL     1      -0.314   2.319  27.848  1.00  0.00    -0.265 N
HETATM   23  C20 UNL     1      -1.416   4.414  27.294  1.00  0.00     0.037 C
ATOM     24  H1  UNL     1       0.095   2.752  28.677  1.00  0.00     0.194 HD
HETATM   25  C21 UNL     1      -0.666   5.297  26.269  1.00  0.00     0.025 C
HETATM   26  C22 UNL     1      -1.239   5.068  28.586  1.00  0.00     0.152 C
HETATM   27  C27 UNL     1      -2.911   4.581  27.087  1.00  0.00     0.106 C
HETATM   28  O6  UNL     1      -2.274   6.083  28.600  1.00  0.00    -0.314 OA
HETATM   29  C26 UNL     1      -3.017   5.985  27.434  1.00  0.00     0.265 C
HETATM   30  O7  UNL     1      -3.610   6.910  26.867  1.00  0.00    -0.265 OA
HETATM   31  C29 UNL     1      -3.088   4.614  24.551  1.00  0.00     0.018 C
HETATM   32  C30 UNL     1      -4.059   4.020  23.484  1.00  0.00     0.063 C
BRANCH  16  33
HETATM   33  O2  UNL     1      -5.247   2.224  24.987  1.00  0.00    -0.389 OA
ATOM     34  H2  UNL     1      -5.353   2.205  25.931  1.00  0.00     0.210 HD
ENDBRANCH  16  33
BRANCH  22  35
HETATM   35  O3  UNL     1      -0.028   1.012  27.570  1.00  0.00    -0.200 OA
BRANCH  35  36
HETATM   36  C18 UNL     1       0.221   0.080  28.564  1.00  0.00     0.277 C
HETATM   37  C19 UNL     1      -0.626  -0.095  29.763  1.00  0.00     0.128 C
HETATM   38  O4  UNL     1       1.223  -0.663  28.439  1.00  0.00    -0.264 OA
ENDBRANCH  35  36
ENDBRANCH  22  35
BRANCH  26  39
HETATM   39  C23 UNL     1      -1.181   4.327  29.854  1.00  0.00     0.036 C
HETATM   40  C24 UNL     1       0.178   4.727  30.513  1.00  0.00     0.015 C
BRANCH  39  41
HETATM   41  C25 UNL     1      -2.217   4.585  30.898  1.00  0.00     0.170 C
BRANCH  41  42
HETATM   42  O5  UNL     1      -3.477   4.062  30.447  1.00  0.00    -0.400 OA
ATOM     43  H5  UNL     1      -3.523   3.137  30.659  1.00  0.00     0.209 HD
ENDBRANCH  41  42
ENDBRANCH  39  41
ENDBRANCH  26  39
BRANCH  32  44
HETATM   44  C31 UNL     1      -3.832   4.944  22.355  1.00  0.00     0.127 C
HETATM   45  C32 UNL     1      -4.422   6.296  22.248  1.00  0.00     0.091 C
HETATM   46  O8  UNL     1      -3.120   4.595  21.441  1.00  0.00    -0.298 OA
ENDBRANCH  32  44
ENDBRANCH   3  13
TORSDOF 14
ENDMDL