MODEL 3
REMARK VINA RESULT: -7.267037563      4.433      8.468
REMARK  13 active torsions:
REMARK  status: ('A' for Active; 'I' for Inactive)
REMARK    1  A    between atoms: C4_4  and  C5_5
REMARK    2  A    between atoms: C5_5  and  C6_6
REMARK    3  A    between atoms: C6_6  and  O1_9
REMARK    4  A    between atoms: C11_15  and  C12_16
REMARK    5  A    between atoms: C15_21  and  O6_22
REMARK    6  A    between atoms: C15_21  and  C16_24
REMARK    7  A    between atoms: C17_25  and  C18_26
REMARK    8  A    between atoms: C19_27  and  C21_29
REMARK    9  A    between atoms: C23_31  and  C24_32
REMARK   10  A    between atoms: C24_32  and  C25_33
REMARK   11  A    between atoms: C26_35  and  O8_36
REMARK   12  A    between atoms: C26_35  and  C27_38
REMARK   13  A    between atoms: N1_43  and  C32_44
ROOT
HETATM    1  C1  UNL     1       1.457   5.263  25.849  1.00  0.00     0.015 C
HETATM    2  C2  UNL     1       0.748   5.123  26.927  1.00  0.00    -0.079 C
HETATM    3  C3  UNL     1       1.424   5.407  28.252  1.00  0.00     0.065 C
HETATM    4  C4  UNL     1       1.181   4.141  29.038  1.00  0.00     0.130 C
HETATM    5  O2  UNL     1      -0.104   3.720  29.049  1.00  0.00    -0.362 OA
HETATM    6  C9  UNL     1      -0.661   3.417  27.747  1.00  0.00     0.171 C
HETATM    7  C10 UNL     1       0.222   2.353  27.253  1.00  0.00     0.184 C
HETATM    8  O3  UNL     1       0.871   2.291  26.272  1.00  0.00    -0.293 OA
HETATM    9  C11 UNL     1       0.132   1.303  28.292  1.00  0.00     0.201 C
HETATM   10  C14 UNL     1      -1.347   1.326  28.527  1.00  0.00     0.187 C
HETATM   11  O5  UNL     1      -1.958   0.394  28.981  1.00  0.00    -0.293 OA
HETATM   12  C15 UNL     1      -1.890   2.677  28.106  1.00  0.00     0.176 C
HETATM   13  C23 UNL     1      -0.670   4.693  27.065  1.00  0.00     0.064 C
ENDROOT
BRANCH  12  14
HETATM   14  O6  UNL     1      -2.324   3.238  29.372  1.00  0.00    -0.374 OA
ATOM     15  H6  UNL     1      -3.266   3.123  29.392  1.00  0.00     0.211 HD
ENDBRANCH  12  14
BRANCH  12  16
HETATM   16  C16 UNL     1      -3.025   2.612  27.229  1.00  0.00     0.022 C
HETATM   17  C17 UNL     1      -3.417   1.823  26.279  1.00  0.00    -0.000 C
BRANCH  17  18
HETATM   18  C18 UNL     1      -2.829   0.650  25.716  1.00  0.00     0.002 C
HETATM   19  C19 UNL     1      -3.359  -0.143  24.799  1.00  0.00    -0.084 C
HETATM   20  C20 UNL     1      -2.580  -1.334  24.334  1.00  0.00     0.043 C
BRANCH  19  21
HETATM   21  C21 UNL     1      -4.672   0.053  24.189  1.00  0.00     0.029 C
HETATM   22  C22 UNL     1      -4.471   0.470  22.727  1.00  0.00     0.010 C
ENDBRANCH  19  21
ENDBRANCH  17  18
ENDBRANCH  12  16
BRANCH  13  23
HETATM   23  C24 UNL     1      -1.400   4.990  25.837  1.00  0.00     0.077 C
BRANCH  23  24
HETATM   24  C25 UNL     1      -1.963   6.396  25.758  1.00  0.00     0.362 C
HETATM   25  O7  UNL     1      -3.141   6.318  24.974  1.00  0.00    -0.320 OA
HETATM   26  C26 UNL     1      -3.562   7.560  24.583  1.00  0.00     0.169 C
HETATM   27  C29 UNL     1      -3.263   8.682  25.494  1.00  0.00     0.072 C
HETATM   28  C30 UNL     1      -2.390   9.692  24.732  1.00  0.00     0.017 C
HETATM   29  C31 UNL     1      -2.676   8.339  26.814  1.00  0.00     0.285 C
HETATM   30  N1  UNL     1      -2.346   6.956  26.997  1.00  0.00     0.117 N
BRANCH  26  31
HETATM   31  O8  UNL     1      -3.031   7.775  23.287  1.00  0.00    -0.365 OA
ATOM     32  H8  UNL     1      -2.915   8.713  23.195  1.00  0.00     0.213 HD
ENDBRANCH  26  31
BRANCH  26  33
HETATM   33  C27 UNL     1      -5.079   7.448  24.352  1.00  0.00     0.064 C
HETATM   34  C28 UNL     1      -5.412   7.183  22.923  1.00  0.00     0.010 C
ENDBRANCH  26  33
BRANCH  30  35
HETATM   35  C32 UNL     1      -3.339   6.210  27.724  1.00  0.00     0.271 C
HETATM   36  C33 UNL     1      -3.326   6.528  29.209  1.00  0.00     0.037 C
ENDBRANCH  30  35
ENDBRANCH  23  24
ENDBRANCH  13  23
BRANCH   4  37
HETATM   37  C5  UNL     1       1.567   4.373  30.470  1.00  0.00     0.069 C
BRANCH  37  38
HETATM   38  C6  UNL     1       2.610   3.509  31.053  1.00  0.00     0.053 C
HETATM   39  C7  UNL     1       4.015   3.868  30.605  1.00  0.00     0.045 C
HETATM   40  C8  UNL     1       2.514   3.200  32.515  1.00  0.00     0.045 C
BRANCH  38  41
HETATM   41  O1  UNL     1       2.400   2.224  30.419  1.00  0.00    -0.391 OA
ATOM     42  H1  UNL     1       3.127   1.694  30.723  1.00  0.00     0.210 HD
ENDBRANCH  38  41
ENDBRANCH  37  38
ENDBRANCH   4  37
BRANCH   9  43
HETATM   43  C12 UNL     1       0.655  -0.014  27.891  1.00  0.00     0.141 C
HETATM   44  C13 UNL     1       0.378  -0.503  26.533  1.00  0.00     0.092 C
HETATM   45  O4  UNL     1       1.316  -0.735  28.628  1.00  0.00    -0.297 OA
ENDBRANCH   9  43
TORSDOF 13
ENDMDL