MODEL 2
REMARK VINA RESULT: -6.245346484      1.825      2.191
REMARK  14 active torsions:
REMARK  status: ('A' for Active; 'I' for Inactive)
REMARK    1  A    between atoms: C2_2  and  C4_4
REMARK    2  A    between atoms: C5_5  and  C6_6
REMARK    3  A    between atoms: C7_7  and  O1_8
REMARK    4  A    between atoms: C7_7  and  C8_10
REMARK    5  A    between atoms: C8_10  and  O2_11
REMARK    6  A    between atoms: C8_10  and  C11_15
REMARK    7  A    between atoms: O2_11  and  C9_12
REMARK    8  A    between atoms: C11_15  and  C13_17
REMARK    9  A    between atoms: C21_26  and  C23_28
REMARK   10  A    between atoms: C29_35  and  O6_36
REMARK   11  A    between atoms: C30_38  and  O7_39
REMARK   12  A    between atoms: O7_39  and  C31_40
REMARK   13  A    between atoms: C31_40  and  C32_42
REMARK   14  A    between atoms: C32_42  and  N1_44
ROOT
HETATM    1  C13 UNL     1      -0.601   1.943  27.987  1.00  0.00     0.095 C
HETATM    2  C14 UNL     1       0.426   2.301  26.943  1.00  0.00     0.138 C
HETATM    3  O4  UNL     1       0.850   1.421  26.161  1.00  0.00    -0.297 OA
HETATM    4  C15 UNL     1       0.961   3.641  26.788  1.00  0.00     0.059 C
HETATM    5  C16 UNL     1       1.925   4.001  27.855  1.00  0.00     0.018 C
HETATM    6  C17 UNL     1      -0.212   4.579  26.565  1.00  0.00     0.034 C
HETATM    7  C18 UNL     1       0.073   5.944  27.041  1.00  0.00     0.009 C
HETATM    8  C19 UNL     1      -1.214   6.753  27.065  1.00  0.00     0.007 C
HETATM    9  C20 UNL     1      -2.152   6.155  26.068  1.00  0.00     0.012 C
HETATM   10  C21 UNL     1      -2.958   7.122  25.346  1.00  0.00     0.014 C
HETATM   11  C22 UNL     1      -3.501   8.279  26.134  1.00  0.00     0.023 C
HETATM   12  C24 UNL     1      -4.031   6.526  24.476  1.00  0.00     0.016 C
HETATM   13  C25 UNL     1      -4.640   5.262  25.029  1.00  0.00     0.002 C
HETATM   14  C26 UNL     1      -3.625   4.284  25.547  1.00  0.00     0.012 C
HETATM   15  C27 UNL     1      -2.717   4.864  26.599  1.00  0.00    -0.005 C
HETATM   16  C28 UNL     1      -3.615   5.078  27.784  1.00  0.00     0.019 C
HETATM   17  C29 UNL     1      -1.552   3.942  26.815  1.00  0.00     0.097 C
HETATM   18  C30 UNL     1      -1.620   3.064  28.013  1.00  0.00     0.179 C
ENDROOT
BRANCH   1  19
HETATM   19  C11 UNL     1      -0.964   0.569  27.795  1.00  0.00     0.031 C
HETATM   20  C12 UNL     1      -0.553  -0.120  29.174  1.00  0.00     0.014 C
BRANCH  19  21
HETATM   21  C8  UNL     1      -2.250  -0.013  27.477  1.00  0.00     0.192 C
BRANCH  21  22
HETATM   22  C7  UNL     1      -2.180  -0.591  26.066  1.00  0.00     0.073 C
HETATM   23  C6  UNL     1      -2.955  -0.734  25.094  1.00  0.00     0.035 C
BRANCH  23  24
HETATM   24  C5  UNL     1      -4.385  -0.365  24.942  1.00  0.00     0.003 C
HETATM   25  C4  UNL     1      -4.925  -0.394  23.714  1.00  0.00     0.006 C
BRANCH  25  26
HETATM   26  C2  UNL     1      -4.118  -0.790  22.529  1.00  0.00    -0.071 C
HETATM   27  C1  UNL     1      -4.323   0.538  21.761  1.00  0.00     0.047 C
HETATM   28  C3  UNL     1      -3.369  -1.537  21.721  1.00  0.00     0.018 C
ENDBRANCH  25  26
ENDBRANCH  23  24
BRANCH  22  29
HETATM   29  O1  UNL     1      -0.830  -1.116  25.766  1.00  0.00    -0.362 OA
ATOM     30  H1  UNL     1      -0.190  -0.814  26.399  1.00  0.00     0.217 HD
ENDBRANCH  22  29
ENDBRANCH  21  22
BRANCH  21  31
HETATM   31  O2  UNL     1      -2.768  -1.113  28.242  1.00  0.00    -0.309 OA
BRANCH  31  32
HETATM   32  C9  UNL     1      -4.113  -1.138  28.627  1.00  0.00     0.255 C
HETATM   33  C10 UNL     1      -5.031  -2.167  28.134  1.00  0.00     0.126 C
HETATM   34  O3  UNL     1      -4.468  -0.204  29.425  1.00  0.00    -0.266 OA
ENDBRANCH  31  32
ENDBRANCH  21  31
ENDBRANCH  19  21
ENDBRANCH   1  19
BRANCH  18  35
HETATM   35  O7  UNL     1      -1.237   3.838  29.154  1.00  0.00    -0.310 OA
BRANCH  35  36
HETATM   36  C31 UNL     1      -1.516   3.462  30.431  1.00  0.00     0.289 C
HETATM   37  O8  UNL     1      -0.557   3.415  31.248  1.00  0.00    -0.263 OA
BRANCH  36  38
HETATM   38  C32 UNL     1      -2.893   3.115  30.838  1.00  0.00     0.278 C
HETATM   39  C33 UNL     1      -3.397   3.942  31.972  1.00  0.00     0.050 C
BRANCH  38  40
HETATM   40  N1  UNL     1      -2.918   1.699  31.175  1.00  0.00    -0.066 N
ATOM     41  H13 UNL     1      -2.083   1.398  31.676  1.00  0.00     0.275 HD
ATOM     42  H12 UNL     1      -3.599   1.477  31.901  1.00  0.00     0.275 HD
ATOM     43  H11 UNL     1      -3.072   1.173  30.315  1.00  0.00     0.275 HD
ENDBRANCH  38  40
ENDBRANCH  36  38
ENDBRANCH  35  36
ENDBRANCH  18  35
BRANCH  17  44
HETATM   44  O6  UNL     1      -1.624   2.956  25.740  1.00  0.00    -0.386 OA
ATOM     45  H6  UNL     1      -2.209   3.380  25.123  1.00  0.00     0.210 HD
ENDBRANCH  17  44
BRANCH  10  46
HETATM   46  C23 UNL     1      -1.985   7.800  24.374  1.00  0.00     0.240 C
HETATM   47  O5  UNL     1      -2.016   9.070  24.397  1.00  0.00    -0.306 OA
ENDBRANCH  10  46
TORSDOF 14
ENDMDL