MODEL 4
REMARK VINA RESULT: -7.326997884      1.166      1.688
REMARK  14 active torsions:
REMARK  status: ('A' for Active; 'I' for Inactive)
REMARK    1  A    between atoms: C4_4  and  C5_5
REMARK    2  A    between atoms: C5_5  and  C7_7
REMARK    3  A    between atoms: C7_7  and  O1_8
REMARK    4  A    between atoms: C7_7  and  C8_10
REMARK    5  A    between atoms: C8_10  and  C9_11
REMARK    6  A    between atoms: C22_25  and  O3_26
REMARK    7  A    between atoms: O3_26  and  C23_27
REMARK    8  A    between atoms: C23_27  and  C24_29
REMARK    9  A    between atoms: C25_32  and  C26_33
REMARK   10  A    between atoms: C26_33  and  O7_34
REMARK   11  A    between atoms: C26_33  and  C27_36
REMARK   12  A    between atoms: C27_36  and  C29_38
REMARK   13  A    between atoms: C29_38  and  C30_39
REMARK   14  A    between atoms: C30_39  and  C31_41
ROOT
HETATM    1  C9  UNL     1      -4.143   1.654  25.687  1.00  0.00     0.021 C
HETATM    2  C10 UNL     1      -3.748   1.221  27.062  1.00  0.00    -0.083 C
HETATM    3  C11 UNL     1      -4.196  -0.041  27.713  1.00  0.00     0.043 C
HETATM    4  C12 UNL     1      -2.942   2.122  27.616  1.00  0.00    -0.018 C
HETATM    5  C13 UNL     1      -2.660   3.258  26.769  1.00  0.00     0.025 C
HETATM    6  C14 UNL     1      -3.228   2.766  25.416  1.00  0.00     0.006 C
HETATM    7  C15 UNL     1      -3.837   3.997  24.811  1.00  0.00    -0.013 C
HETATM    8  C16 UNL     1      -5.108   4.348  25.595  1.00  0.00     0.010 C
HETATM    9  C17 UNL     1      -2.799   5.092  24.941  1.00  0.00     0.005 C
HETATM   10  C18 UNL     1      -1.435   4.621  25.241  1.00  0.00     0.014 C
HETATM   11  C19 UNL     1      -1.304   3.680  26.451  1.00  0.00     0.004 C
HETATM   12  C20 UNL     1      -0.479   2.526  25.924  1.00  0.00     0.163 A
HETATM   13  O2  UNL     1      -0.338   1.346  26.597  1.00  0.00    -0.372 OA
HETATM   14  C21 UNL     1       0.667   2.315  26.658  1.00  0.00     0.181 A
HETATM   15  C22 UNL     1       0.580   3.220  27.902  1.00  0.00     0.171 C
HETATM   16  C25 UNL     1      -0.434   4.300  27.510  1.00  0.00     0.059 C
ENDROOT
BRANCH  16  17
HETATM   17  C26 UNL     1      -1.125   4.882  28.658  1.00  0.00     0.129 C
BRANCH  17  18
HETATM   18  O7  UNL     1      -1.819   6.052  28.198  1.00  0.00    -0.395 OA
ATOM     19  H7  UNL     1      -2.200   6.476  28.958  1.00  0.00     0.210 HD
ENDBRANCH  17  18
BRANCH  17  20
HETATM   20  C27 UNL     1      -0.313   5.387  29.781  1.00  0.00     0.018 C
HETATM   21  C28 UNL     1      -1.336   5.773  30.939  1.00  0.00     0.013 C
BRANCH  20  22
HETATM   22  C29 UNL     1       0.435   6.679  29.639  1.00  0.00     0.088 C
BRANCH  22  23
HETATM   23  C30 UNL     1       1.789   6.716  29.136  1.00  0.00     0.166 C
HETATM   24  O8  UNL     1       2.748   6.512  29.853  1.00  0.00    -0.295 OA
BRANCH  23  25
HETATM   25  C31 UNL     1       2.075   7.004  27.707  1.00  0.00     0.300 A
HETATM   26  O9  UNL     1       2.589   5.889  26.932  1.00  0.00    -0.296 OA
HETATM   27  C32 UNL     1       3.481   7.026  27.301  1.00  0.00     0.297 A
HETATM   28  O10 UNL     1       4.661   7.396  27.156  1.00  0.00    -0.262 OA
ENDBRANCH  23  25
ENDBRANCH  22  23
ENDBRANCH  20  22
ENDBRANCH  17  20
ENDBRANCH  16  17
BRANCH  15  29
HETATM   29  O3  UNL     1       0.151   2.445  28.963  1.00  0.00    -0.304 OA
BRANCH  29  30
HETATM   30  C23 UNL     1       0.876   1.667  29.815  1.00  0.00     0.360 C
HETATM   31  O4  UNL     1       0.914   0.441  29.577  1.00  0.00    -0.252 OA
BRANCH  30  32
HETATM   32  C24 UNL     1       1.559   2.281  30.940  1.00  0.00     0.277 C
HETATM   33  O5  UNL     1       1.396   1.860  32.112  1.00  0.00    -0.640 OA
HETATM   34  O6  UNL     1       2.430   3.364  30.795  1.00  0.00    -0.640 OA
ENDBRANCH  30  32
ENDBRANCH  29  30
ENDBRANCH  15  29
BRANCH   1  35
HETATM   35  C8  UNL     1      -3.826   0.446  24.786  1.00  0.00     0.042 C
BRANCH  35  36
HETATM   36  C7  UNL     1      -5.007   0.017  24.000  1.00  0.00     0.126 C
BRANCH  36  37
HETATM   37  C5  UNL     1      -4.536  -0.380  22.580  1.00  0.00     0.033 C
HETATM   38  C6  UNL     1      -3.393  -1.324  22.698  1.00  0.00     0.017 C
BRANCH  37  39
HETATM   39  C4  UNL     1      -4.247   0.899  21.917  1.00  0.00    -0.018 C
HETATM   40  C2  UNL     1      -4.781   1.574  20.965  1.00  0.00    -0.091 C
HETATM   41  C1  UNL     1      -4.134   2.904  20.583  1.00  0.00     0.042 C
HETATM   42  C3  UNL     1      -5.964   1.203  20.184  1.00  0.00     0.042 C
ENDBRANCH  37  39
ENDBRANCH  36  37
BRANCH  36  43
HETATM   43  O1  UNL     1      -5.625  -1.107  24.556  1.00  0.00    -0.395 OA
ATOM     44  H1  UNL     1      -5.752  -0.927  25.480  1.00  0.00     0.210 HD
ENDBRANCH  36  43
ENDBRANCH  35  36
ENDBRANCH   1  35
TORSDOF 14
ENDMDL