MODEL 5
REMARK VINA RESULT: -6.786703311      1.512      2.016
REMARK  13 active torsions:
REMARK  status: ('A' for Active; 'I' for Inactive)
REMARK    1  A    between atoms: C7_9  and  C8_10
REMARK    2  A    between atoms: C9_12  and  C10_13
REMARK    3  A    between atoms: C10_13  and  C11_14
REMARK    4  A    between atoms: C12_15  and  C14_17
REMARK    5  A    between atoms: C14_17  and  O5_19
REMARK    6  A    between atoms: O5_19  and  C15_20
REMARK    7  A    between atoms: C19_24  and  O6_25
REMARK    8  A    between atoms: C23_31  and  C24_32
REMARK    9  A    between atoms: C25_35  and  C26_36
REMARK   10  A    between atoms: C26_36  and  C28_38
REMARK   11  A    between atoms: C28_38  and  C30_40
REMARK   12  A    between atoms: C30_40  and  C32_42
REMARK   13  A    between atoms: C32_42  and  O10_43
ROOT
HETATM    1  C1  UNL     1      -2.924  -1.853  31.288  1.00  0.00     0.030 C
HETATM    2  C2  UNL     1      -2.269  -1.038  30.524  1.00  0.00     0.035 C
HETATM    3  C3  UNL     1      -0.906  -1.023  30.049  1.00  0.00     0.294 C
HETATM    4  O1  UNL     1       0.059  -1.576  30.627  1.00  0.00    -0.259 OA
HETATM    5  O2  UNL     1      -0.884  -0.313  28.898  1.00  0.00    -0.294 OA
HETATM    6  C4  UNL     1      -1.958   0.677  28.835  1.00  0.00     0.149 C
HETATM    7  C5  UNL     1      -2.834   0.227  29.880  1.00  0.00    -0.026 C
HETATM    8  C6  UNL     1      -4.285   0.290  29.892  1.00  0.00     0.048 C
HETATM    9  C7  UNL     1      -1.221   1.954  29.322  1.00  0.00     0.197 C
HETATM   10  O7  UNL     1      -0.225   2.358  28.511  1.00  0.00    -0.372 OA
HETATM   11  C20 UNL     1       0.175   1.474  27.558  1.00  0.00     0.151 A
HETATM   12  C21 UNL     1      -0.122   2.009  26.141  1.00  0.00     0.038 A
HETATM   13  C22 UNL     1      -0.468   3.445  26.023  1.00  0.00     0.014 C
HETATM   14  C23 UNL     1      -0.871   0.890  26.655  1.00  0.00     0.107 A
HETATM   15  C25 UNL     1      -2.189   0.832  27.393  1.00  0.00    -0.010 C
ENDROOT
BRANCH   9  16
HETATM   16  C8  UNL     1      -2.056   3.061  29.796  1.00  0.00     0.183 C
HETATM   17  O3  UNL     1      -2.992   3.580  28.935  1.00  0.00    -0.374 OA
HETATM   18  C9  UNL     1      -3.060   4.985  29.086  1.00  0.00     0.132 C
HETATM   19  C17 UNL     1      -2.458   5.250  30.375  1.00  0.00     0.042 C
HETATM   20  C18 UNL     1      -1.921   6.547  30.778  1.00  0.00     0.015 C
HETATM   21  C19 UNL     1      -1.267   4.249  30.329  1.00  0.00     0.156 C
BRANCH  18  22
HETATM   22  C10 UNL     1      -2.648   5.682  27.856  1.00  0.00     0.060 C
BRANCH  22  23
HETATM   23  C11 UNL     1      -3.366   5.373  26.636  1.00  0.00    -0.011 C
HETATM   24  C12 UNL     1      -3.257   5.869  25.428  1.00  0.00     0.009 C
HETATM   25  C13 UNL     1      -4.161   5.348  24.318  1.00  0.00     0.054 C
BRANCH  24  26
HETATM   26  C14 UNL     1      -2.302   6.874  25.035  1.00  0.00     0.288 C
HETATM   27  O4  UNL     1      -1.058   6.762  25.016  1.00  0.00    -0.260 OA
BRANCH  26  28
HETATM   28  O5  UNL     1      -2.776   8.133  24.625  1.00  0.00    -0.318 OA
BRANCH  28  29
HETATM   29  C15 UNL     1      -3.532   8.907  25.524  1.00  0.00     0.174 C
HETATM   30  C16 UNL     1      -2.809   9.357  26.747  1.00  0.00     0.034 C
ENDBRANCH  28  29
ENDBRANCH  26  28
ENDBRANCH  24  26
ENDBRANCH  22  23
ENDBRANCH  18  22
BRANCH  21  31
HETATM   31  O6  UNL     1      -0.253   4.672  29.533  1.00  0.00    -0.392 OA
ATOM     32  H6  UNL     1       0.057   5.553  29.709  1.00  0.00     0.210 HD
ENDBRANCH  21  31
ENDBRANCH   9  16
BRANCH  15  33
HETATM   33  C26 UNL     1      -3.230   0.112  26.678  1.00  0.00    -0.056 C
HETATM   34  C27 UNL     1      -3.648  -1.121  27.148  1.00  0.00     0.020 C
BRANCH  33  35
HETATM   35  C28 UNL     1      -4.134   0.478  25.573  1.00  0.00     0.020 C
HETATM   36  C29 UNL     1      -4.571   1.959  25.727  1.00  0.00     0.015 C
BRANCH  35  37
HETATM   37  C30 UNL     1      -3.878   0.271  24.165  1.00  0.00     0.013 C
HETATM   38  C31 UNL     1      -4.282   1.296  23.177  1.00  0.00     0.012 C
BRANCH  37  39
HETATM   39  C32 UNL     1      -4.421  -1.072  23.640  1.00  0.00     0.168 C
BRANCH  39  40
HETATM   40  O10 UNL     1      -3.549  -2.112  23.823  1.00  0.00    -0.400 OA
ATOM     41  H10 UNL     1      -3.732  -2.855  23.260  1.00  0.00     0.209 HD
ENDBRANCH  39  40
ENDBRANCH  37  39
ENDBRANCH  35  37
ENDBRANCH  33  35
ENDBRANCH  15  33
BRANCH  14  42
HETATM   42  C24 UNL     1      -0.364  -0.462  26.142  1.00  0.00     0.189 C
HETATM   43  O8  UNL     1      -1.048  -1.171  25.391  1.00  0.00    -0.647 OA
HETATM   44  O9  UNL     1       0.866  -0.877  26.531  1.00  0.00    -0.647 OA
ENDBRANCH  14  42
TORSDOF 13
ENDMDL