MODEL 5
REMARK VINA RESULT: -7.633151058      0.924      1.777
REMARK  13 active torsions:
REMARK  status: ('A' for Active; 'I' for Inactive)
REMARK    1  A    between atoms: C2_2  and  C3_3
REMARK    2  A    between atoms: C3_3  and  C5_5
REMARK    3  A    between atoms: C5_5  and  C6_6
REMARK    4  A    between atoms: C6_6  and  C7_7
REMARK    5  A    between atoms: C6_6  and  C29_41
REMARK    6  A    between atoms: C7_7  and  O1_8
REMARK    7  A    between atoms: O1_8  and  C8_9
REMARK    8  A    between atoms: C13_15  and  O3_16
REMARK    9  A    between atoms: O3_16  and  C14_17
REMARK   10  A    between atoms: C22_27  and  N1_28
REMARK       I    between atoms: N1_28  and  C23_30
REMARK   11  A    between atoms: C26_34  and  O7_35
REMARK   12  A    between atoms: C28_38  and  O8_39
REMARK   13  A    between atoms: C29_41  and  O10_43
ROOT
HETATM    1  C8  UNL     1      -3.837   4.750  21.993  1.00  0.00     0.289 C
HETATM    2  O2  UNL     1      -3.389   6.060  22.381  1.00  0.00    -0.348 OA
HETATM    3  C9  UNL     1      -4.342   6.534  23.244  1.00  0.00     0.063 C
HETATM    4  C10 UNL     1      -4.033   8.026  23.399  1.00  0.00     0.046 C
HETATM    5  C11 UNL     1      -5.758   6.506  22.709  1.00  0.00     0.046 C
HETATM    6  C12 UNL     1      -4.314   5.811  24.574  1.00  0.00     0.059 C
HETATM    7  C13 UNL     1      -3.261   6.425  25.425  1.00  0.00     0.140 C
HETATM    8  C16 UNL     1      -2.109   5.454  25.711  1.00  0.00     0.042 C
HETATM    9  C17 UNL     1      -2.794   4.318  26.449  1.00  0.00     0.038 C
HETATM   10  C18 UNL     1      -1.743   3.478  27.094  1.00  0.00     0.022 C
HETATM   11  C19 UNL     1      -0.567   3.162  26.229  1.00  0.00     0.023 C
HETATM   12  C20 UNL     1      -1.201   4.173  28.352  1.00  0.00     0.023 C
HETATM   13  C21 UNL     1      -2.444   2.249  27.598  1.00  0.00     0.158 C
HETATM   14  O5  UNL     1      -2.570   1.980  28.771  1.00  0.00    -0.295 OA
HETATM   15  C22 UNL     1      -2.975   1.387  26.501  1.00  0.00     0.158 C
HETATM   16  C25 UNL     1      -3.424   2.174  25.294  1.00  0.00     0.071 C
HETATM   17  C26 UNL     1      -3.809   3.603  25.640  1.00  0.00     0.071 C
HETATM   18  C27 UNL     1      -4.264   4.345  24.402  1.00  0.00     0.063 C
HETATM   19  C28 UNL     1      -3.611   3.836  23.124  1.00  0.00     0.180 C
ENDROOT
BRANCH   1  20
HETATM   20  O1  UNL     1      -3.103   4.407  20.858  1.00  0.00    -0.358 OA
BRANCH  20  21
HETATM   21  C7  UNL     1      -3.887   4.286  19.767  1.00  0.00     0.185 C
BRANCH  21  22
HETATM   22  C6  UNL     1      -4.070   3.015  19.046  1.00  0.00     0.110 C
BRANCH  22  23
HETATM   23  C5  UNL     1      -5.452   2.490  18.905  1.00  0.00     0.021 C
BRANCH  23  24
HETATM   24  C3  UNL     1      -5.646   1.470  17.806  1.00  0.00    -0.018 C
HETATM   25  C4  UNL     1      -6.098   2.058  16.494  1.00  0.00     0.010 C
BRANCH  24  26
HETATM   26  C2  UNL     1      -6.804   0.566  18.270  1.00  0.00    -0.000 C
HETATM   27  C1  UNL     1      -7.131   0.797  19.715  1.00  0.00     0.005 C
ENDBRANCH  24  26
ENDBRANCH  23  24
ENDBRANCH  22  23
BRANCH  22  28
HETATM   28  C29 UNL     1      -3.059   1.974  19.452  1.00  0.00     0.264 C
HETATM   29  O9  UNL     1      -1.935   1.857  18.944  1.00  0.00    -0.265 OA
BRANCH  28  30
HETATM   30  O10 UNL     1      -3.415   1.079  20.476  1.00  0.00    -0.326 OA
HETATM   31  C30 UNL     1      -3.572  -0.303  20.211  1.00  0.00     0.213 C
ENDBRANCH  28  30
ENDBRANCH  22  28
ENDBRANCH  21  22
ENDBRANCH  20  21
ENDBRANCH   1  20
BRANCH  19  32
HETATM   32  O8  UNL     1      -4.199   2.615  22.755  1.00  0.00    -0.390 OA
ATOM     33  H8  UNL     1      -3.479   2.042  22.516  1.00  0.00     0.210 HD
ENDBRANCH  19  32
BRANCH  17  34
HETATM   34  O7  UNL     1      -4.947   3.429  26.477  1.00  0.00    -0.389 OA
ATOM     35  H7  UNL     1      -5.560   2.889  25.993  1.00  0.00     0.210 HD
ENDBRANCH  17  34
BRANCH   7  36
HETATM   36  O3  UNL     1      -3.765   6.732  26.737  1.00  0.00    -0.316 OA
BRANCH  36  37
HETATM   37  C14 UNL     1      -3.619   7.930  27.360  1.00  0.00     0.255 C
HETATM   38  C15 UNL     1      -3.652   7.995  28.845  1.00  0.00     0.126 C
HETATM   39  O4  UNL     1      -3.461   8.972  26.693  1.00  0.00    -0.266 OA
ENDBRANCH  36  37
ENDBRANCH   7  36
BRANCH  15  40
HETATM   40  N1  UNL     1      -4.000   0.558  27.056  1.00  0.00    -0.350 N
HETATM   41  C23 UNL     1      -4.155  -0.791  26.640  1.00  0.00     0.214 C
HETATM   42  C24 UNL     1      -5.211  -1.673  27.199  1.00  0.00     0.117 C
HETATM   43  O6  UNL     1      -3.376  -1.288  25.757  1.00  0.00    -0.274 OA
ATOM     44  H1  UNL     1      -4.629   0.942  27.761  1.00  0.00     0.163 HD
ENDBRANCH  15  40
TORSDOF 13
ENDMDL