MODEL 3
REMARK VINA RESULT: -5.705114047      1.563      2.466
REMARK  16 active torsions:
REMARK  status: ('A' for Active; 'I' for Inactive)
REMARK    1  A    between atoms: C2_2  and  C4_4
REMARK    2  A    between atoms: C9_9  and  O1_10
REMARK    3  A    between atoms: C10_12  and  O2_13
REMARK    4  A    between atoms: C11_15  and  C12_16
REMARK    5  A    between atoms: C12_16  and  O3_17
REMARK    6  A    between atoms: C17_23  and  O4_24
REMARK    7  A    between atoms: O4_24  and  C18_25
REMARK    8  A    between atoms: C18_25  and  C19_27
REMARK    9  A    between atoms: C19_27  and  C20_28
REMARK   10  A    between atoms: C20_28  and  C21_29
REMARK   11  A    between atoms: C25_33  and  O6_34
REMARK   12  A    between atoms: O6_34  and  C26_35
REMARK   13  A    between atoms: C26_35  and  C27_37
REMARK   14  A    between atoms: C27_37  and  C28_39
REMARK   15  A    between atoms: C28_39  and  O9_40
REMARK   16  A    between atoms: C30_42  and  C31_43
ROOT
HETATM    1  C4  UNL     1      -3.172   3.008  26.313  1.00  0.00     0.014 C
HETATM    2  C5  UNL     1      -2.494   2.166  27.339  1.00  0.00     0.013 C
HETATM    3  C6  UNL     1      -1.563   2.851  28.316  1.00  0.00    -0.010 C
HETATM    4  C7  UNL     1      -1.533   1.887  29.516  1.00  0.00     0.010 C
HETATM    5  C8  UNL     1      -1.865   4.250  28.610  1.00  0.00     0.032 C
HETATM    6  C9  UNL     1      -2.486   4.603  29.920  1.00  0.00     0.152 C
HETATM    7  C10 UNL     1      -3.590   5.664  29.755  1.00  0.00     0.154 C
HETATM    8  C11 UNL     1      -3.117   7.038  29.675  1.00  0.00     0.057 C
HETATM    9  C13 UNL     1      -2.225   7.455  28.584  1.00  0.00     0.010 A
HETATM   10  C14 UNL     1      -1.479   8.732  28.952  1.00  0.00    -0.015 A
HETATM   11  C15 UNL     1      -2.463   8.838  28.074  1.00  0.00    -0.015 A
HETATM   12  C16 UNL     1      -1.654   6.562  27.626  1.00  0.00     0.044 C
HETATM   13  C17 UNL     1      -2.510   6.101  26.478  1.00  0.00     0.144 C
HETATM   14  C23 UNL     1      -1.704   5.052  25.835  1.00  0.00     0.047 C
HETATM   15  C24 UNL     1      -2.273   3.785  25.424  1.00  0.00     0.018 C
HETATM   16  C25 UNL     1      -0.440   4.942  26.726  1.00  0.00     0.148 C
HETATM   17  C30 UNL     1      -0.882   5.322  28.095  1.00  0.00     0.004 C
ENDROOT
BRANCH  16  18
HETATM   18  O6  UNL     1       0.550   5.826  26.243  1.00  0.00    -0.308 OA
BRANCH  18  19
HETATM   19  C26 UNL     1       1.793   5.351  25.781  1.00  0.00     0.332 C
HETATM   20  O7  UNL     1       2.114   4.159  26.008  1.00  0.00    -0.256 OA
BRANCH  19  21
HETATM   21  C27 UNL     1       2.708   6.211  25.050  1.00  0.00     0.247 C
HETATM   22  O8  UNL     1       3.206   5.773  23.984  1.00  0.00    -0.284 OA
BRANCH  21  23
HETATM   23  C28 UNL     1       3.033   7.563  25.561  1.00  0.00     0.256 C
BRANCH  23  24
HETATM   24  O9  UNL     1       4.356   7.594  26.019  1.00  0.00    -0.388 OA
HETATM   25  C29 UNL     1       4.420   7.736  27.389  1.00  0.00     0.202 C
ENDBRANCH  23  24
ENDBRANCH  21  23
ENDBRANCH  19  21
ENDBRANCH  18  19
ENDBRANCH  16  18
BRANCH  17  26
HETATM   26  C31 UNL     1       0.184   5.627  29.036  1.00  0.00    -0.011 C
HETATM   27  C32 UNL     1       1.046   6.830  28.875  1.00  0.00     0.010 C
HETATM   28  C33 UNL     1       1.130   4.513  29.428  1.00  0.00     0.010 C
ENDBRANCH  17  26
BRANCH  13  29
HETATM   29  O4  UNL     1      -2.670   7.206  25.564  1.00  0.00    -0.315 OA
BRANCH  29  30
HETATM   30  C18 UNL     1      -3.874   7.512  24.972  1.00  0.00     0.259 C
HETATM   31  O5  UNL     1      -4.286   8.685  25.062  1.00  0.00    -0.265 OA
BRANCH  30  32
HETATM   32  C19 UNL     1      -4.619   6.459  24.262  1.00  0.00     0.111 C
BRANCH  32  33
HETATM   33  C20 UNL     1      -4.358   6.388  22.790  1.00  0.00     0.009 C
BRANCH  33  34
HETATM   34  C21 UNL     1      -3.476   5.270  22.353  1.00  0.00    -0.004 C
HETATM   35  C22 UNL     1      -3.803   4.813  20.942  1.00  0.00     0.005 C
ENDBRANCH  33  34
ENDBRANCH  32  33
ENDBRANCH  30  32
ENDBRANCH  29  30
ENDBRANCH  13  29
BRANCH   1  36
HETATM   36  C2  UNL     1      -3.824   1.997  25.411  1.00  0.00    -0.089 C
HETATM   37  C1  UNL     1      -4.212   2.369  24.206  1.00  0.00     0.014 C
HETATM   38  C3  UNL     1      -4.043   0.590  25.844  1.00  0.00     0.043 C
ENDBRANCH   1  36
BRANCH   6  39
HETATM   39  O1  UNL     1      -3.311   3.504  30.278  1.00  0.00    -0.393 OA
ATOM     40  H1  UNL     1      -3.456   3.574  31.215  1.00  0.00     0.210 HD
ENDBRANCH   6  39
BRANCH   7  41
HETATM   41  O2  UNL     1      -4.368   5.564  30.940  1.00  0.00    -0.392 OA
ATOM     42  H2  UNL     1      -4.737   6.430  31.062  1.00  0.00     0.210 HD
ENDBRANCH   7  41
BRANCH   8  43
HETATM   43  C12 UNL     1      -4.362   7.943  29.686  1.00  0.00     0.172 C
BRANCH  43  44
HETATM   44  O3  UNL     1      -4.621   8.486  30.915  1.00  0.00    -0.400 OA
ATOM     45  H3  UNL     1      -5.061   9.327  30.867  1.00  0.00     0.209 HD
ENDBRANCH  43  44
ENDBRANCH   8  43
TORSDOF 16
ENDMDL