MODEL 5
REMARK VINA RESULT: -6.048710187      3.175      6.395
REMARK  14 active torsions:
REMARK  status: ('A' for Active; 'I' for Inactive)
REMARK    1  A    between atoms: C2_2  and  O2_4
REMARK    2  A    between atoms: O2_4  and  C3_5
REMARK    3  A    between atoms: C10_14  and  C11_15
REMARK    4  A    between atoms: C12_16  and  C13_17
REMARK    5  A    between atoms: C13_17  and  C16_20
REMARK    6  A    between atoms: C16_20  and  O5_21
REMARK    7  A    between atoms: C20_27  and  C21_28
REMARK    8  A    between atoms: C21_28  and  C22_29
REMARK    9  A    between atoms: C22_29  and  O7_30
REMARK   10  A    between atoms: C22_29  and  C23_32
REMARK   11  A    between atoms: C23_32  and  C24_33
REMARK   12  A    between atoms: C27_38  and  S1_39
REMARK   13  A    between atoms: S1_39  and  C28_40
REMARK   14  A    between atoms: C28_40  and  C29_41
ROOT
HETATM    1  C3  UNL     1      -3.392   5.832  25.711  1.00  0.00     0.145 C
HETATM    2  C4  UNL     1      -2.823   5.494  26.992  1.00  0.00     0.168 C
HETATM    3  O3  UNL     1      -3.688   4.786  27.577  1.00  0.00    -0.294 OA
HETATM    4  C5  UNL     1      -1.741   5.545  27.990  1.00  0.00     0.074 C
HETATM    5  C6  UNL     1      -1.364   4.171  28.424  1.00  0.00     0.025 C
HETATM    6  C7  UNL     1       0.011   3.710  28.081  1.00  0.00     0.053 C
HETATM    7  C8  UNL     1      -0.001   2.245  27.701  1.00  0.00     0.018 C
HETATM    8  C9  UNL     1       0.669   4.467  27.017  1.00  0.00     0.144 C
HETATM    9  O4  UNL     1       1.455   3.900  26.287  1.00  0.00    -0.296 OA
HETATM   10  C10 UNL     1       0.433   5.921  26.763  1.00  0.00     0.058 C
HETATM   11  C17 UNL     1       0.067   6.057  25.332  1.00  0.00     0.101 C
HETATM   12  C18 UNL     1      -1.180   6.816  25.047  1.00  0.00     0.136 C
HETATM   13  O6  UNL     1      -0.939   7.999  25.213  1.00  0.00    -0.297 OA
HETATM   14  C19 UNL     1      -2.508   6.397  24.639  1.00  0.00     0.103 C
HETATM   15  C20 UNL     1      -3.588   7.315  24.287  1.00  0.00     0.009 C
HETATM   16  C25 UNL     1      -4.200   7.139  25.645  1.00  0.00     0.030 C
HETATM   17  C26 UNL     1      -3.909   8.126  26.708  1.00  0.00     0.014 C
HETATM   18  C27 UNL     1      -0.587   6.448  27.703  1.00  0.00     0.078 C
ENDROOT
BRANCH  10  19
HETATM   19  C11 UNL     1       1.752   6.586  27.076  1.00  0.00    -0.011 C
HETATM   20  C12 UNL     1       2.221   7.587  26.346  1.00  0.00    -0.019 C
BRANCH  20  21
HETATM   21  C13 UNL     1       3.495   8.271  26.601  1.00  0.00    -0.009 C
HETATM   22  C14 UNL     1       4.355   7.549  27.635  1.00  0.00     0.021 C
HETATM   23  C15 UNL     1       3.329   9.688  27.080  1.00  0.00     0.021 C
BRANCH  21  24
HETATM   24  C16 UNL     1       4.349   8.345  25.330  1.00  0.00     0.176 C
BRANCH  24  25
HETATM   25  O5  UNL     1       3.964   7.381  24.406  1.00  0.00    -0.400 OA
ATOM     26  H5  UNL     1       4.402   6.553  24.569  1.00  0.00     0.209 HD
ENDBRANCH  24  25
ENDBRANCH  21  24
ENDBRANCH  20  21
ENDBRANCH  10  19
BRANCH  18  27
HETATM   27  S1  UNL     1       0.281   6.593  29.338  1.00  0.00    -0.162 SA
BRANCH  27  28
HETATM   28  C28 UNL     1       0.060   8.275  29.980  1.00  0.00     0.078 C
BRANCH  28  29
HETATM   29  C29 UNL     1      -0.846   8.997  29.001  1.00  0.00    -0.013 C
HETATM   30  C30 UNL     1      -0.079  10.107  28.286  1.00  0.00     0.010 C
HETATM   31  C31 UNL     1      -1.935   9.670  29.809  1.00  0.00     0.010 C
ENDBRANCH  28  29
ENDBRANCH  27  28
ENDBRANCH  18  27
BRANCH   1  32
HETATM   32  O2  UNL     1      -4.242   4.797  25.185  1.00  0.00    -0.301 OA
BRANCH  32  33
HETATM   33  C2  UNL     1      -3.799   3.789  24.376  1.00  0.00     0.256 C
HETATM   34  C1  UNL     1      -3.214   2.582  25.019  1.00  0.00     0.126 C
HETATM   35  O1  UNL     1      -3.906   3.926  23.140  1.00  0.00    -0.266 OA
ENDBRANCH  32  33
ENDBRANCH   1  32
BRANCH  15  36
HETATM   36  C21 UNL     1      -3.456   8.681  23.817  1.00  0.00     0.038 C
BRANCH  36  37
HETATM   37  C22 UNL     1      -4.155   8.863  22.473  1.00  0.00     0.128 C
BRANCH  37  38
HETATM   38  O7  UNL     1      -3.122   9.312  21.608  1.00  0.00    -0.395 OA
ATOM     39  H7  UNL     1      -2.323   9.086  22.070  1.00  0.00     0.210 HD
ENDBRANCH  37  38
BRANCH  37  40
HETATM   40  C23 UNL     1      -4.749   7.604  21.942  1.00  0.00     0.144 C
BRANCH  40  41
HETATM   41  C24 UNL     1      -4.414   7.463  20.511  1.00  0.00     0.175 C
HETATM   42  O8  UNL     1      -3.649   6.540  20.144  1.00  0.00    -0.648 OA
HETATM   43  O9  UNL     1      -4.908   8.312  19.526  1.00  0.00    -0.648 OA
ENDBRANCH  40  41
ENDBRANCH  37  40
ENDBRANCH  36  37
ENDBRANCH  15  36
TORSDOF 14
ENDMDL