MODEL 1
REMARK VINA RESULT: -6.934800338      0.000      0.000
REMARK  8 active torsions:
REMARK  status: ('A' for Active; 'I' for Inactive)
REMARK    1  A    between atoms: C2_3  and  O1_4
REMARK    2  A    between atoms: O1_4  and  C3_5
REMARK    3  A    between atoms: C3_5  and  C4_6
REMARK    4  A    between atoms: C5_7  and  C6_8
REMARK    5  A    between atoms: C11_16  and  N4_17
REMARK    6  A    between atoms: N5_20  and  C12_21
REMARK    7  A    between atoms: C12_21  and  C13_22
REMARK    8  A    between atoms: C13_22  and  C14_23
ROOT
HETATM    1  N1  UNL     1      -0.940   2.928  15.176  1.00  0.00    -0.195 NA
HETATM    2  C1  UNL     1      -1.945   2.403  15.372  1.00  0.00     0.085 C
HETATM    3  C2  UNL     1      -3.213   1.717  15.626  1.00  0.00     0.292 C
ENDROOT
BRANCH   3   4
HETATM    4  O1  UNL     1      -4.246   2.584  15.901  1.00  0.00    -0.366 OA
BRANCH   4   5
HETATM    5  C3  UNL     1      -5.062   2.046  16.893  1.00  0.00     0.263 C
BRANCH   5   6
HETATM    6  C4  UNL     1      -4.405   2.070  18.195  1.00  0.00    -0.075 C
HETATM    7  C5  UNL     1      -3.845   2.080  19.262  1.00  0.00    -0.065 C
BRANCH   7   8
HETATM    8  C6  UNL     1      -3.159   2.081  20.523  1.00  0.00     0.021 A
HETATM    9  C7  UNL     1      -2.223   3.083  20.734  1.00  0.00     0.045 A
HETATM   10  C8  UNL     1      -1.558   3.099  21.935  1.00  0.00     0.075 A
HETATM   11  C9  UNL     1      -0.582   4.113  22.199  1.00  0.00     0.102 C
HETATM   12  C10 UNL     1      -1.783   2.164  22.930  1.00  0.00     0.097 A
HETATM   13  N2  UNL     1       0.190   4.940  22.409  1.00  0.00    -0.191 NA
HETATM   14  N3  UNL     1      -1.264   1.988  24.153  1.00  0.00    -0.188 N
HETATM   15  C15 UNL     1      -2.722   1.154  22.726  1.00  0.00     0.082 A
HETATM   16  C11 UNL     1      -1.853   0.910  24.695  1.00  0.00     0.679 A
ATOM     17  H3  UNL     1      -0.549   2.569  24.593  1.00  0.00     0.184 HD
HETATM   18  N5  UNL     1      -2.747   0.388  23.836  1.00  0.00    -0.181 N
HETATM   19  C16 UNL     1      -3.387   1.148  21.511  1.00  0.00     0.053 A
BRANCH  16  20
HETATM   20  N4  UNL     1      -1.580   0.451  25.888  1.00  0.00    -0.234 N
ATOM     21  H42 UNL     1      -0.647   0.335  26.286  1.00  0.00     0.174 HD
ATOM     22  H41 UNL     1      -2.288   0.157  26.562  1.00  0.00     0.174 HD
ENDBRANCH  16  20
BRANCH  18  23
HETATM   23  C12 UNL     1      -3.587  -0.755  24.014  1.00  0.00     0.148 C
BRANCH  23  24
HETATM   24  C13 UNL     1      -2.904  -2.055  23.648  1.00  0.00     0.032 C
BRANCH  24  25
HETATM   25  C14 UNL     1      -3.431  -2.469  22.289  1.00  0.00     0.086 C
HETATM   26 BR1  UNL     1      -2.099  -2.190  20.920  1.00  0.00    -0.096 Br
ENDBRANCH  24  25
ENDBRANCH  23  24
ENDBRANCH  18  23
ENDBRANCH   7   8
ENDBRANCH   5   6
ENDBRANCH   4   5
ENDBRANCH   3   4
TORSDOF 8
ENDMDL