MODEL 5
REMARK VINA RESULT: -6.804235984      2.682      6.740
REMARK  9 active torsions:
REMARK  status: ('A' for Active; 'I' for Inactive)
REMARK    1  A    between atoms: C2_2  and  N1_5
REMARK       I    between atoms: N1_5  and  C5_7
REMARK    2  A    between atoms: C5_7  and  C6_9
REMARK    3  A    between atoms: C6_9  and  O2_10
REMARK    4  A    between atoms: O2_10  and  C7_11
REMARK    5  A    between atoms: C7_11  and  C8_13
REMARK    6  A    between atoms: C12_20  and  C13_21
REMARK    7  A    between atoms: C13_21  and  O5_22
REMARK    8  A    between atoms: O5_22  and  C14_23
REMARK    9  A    between atoms: C14_23  and  C15_25
ROOT
HETATM    1  C8  UNL     1      -1.785  -0.186  22.682  1.00  0.00     0.063 A
HETATM    2  C9  UNL     1      -0.899   0.477  23.529  1.00  0.00     0.109 A
HETATM    3  N2  UNL     1      -0.895   1.794  23.716  1.00  0.00    -0.333 N
ATOM      4  H2  UNL     1      -0.221   2.224  24.350  1.00  0.00     0.168 HD
HETATM    5  C10 UNL     1      -1.785   2.547  23.064  1.00  0.00     0.245 A
HETATM    6  O4  UNL     1      -1.783   3.811  23.242  1.00  0.00    -0.268 OA
HETATM    7  C11 UNL     1      -2.706   1.996  22.204  1.00  0.00     0.084 A
HETATM    8  C12 UNL     1      -2.702   0.609  22.015  1.00  0.00    -0.011 A
ENDROOT
BRANCH   1   9
HETATM    9  C7  UNL     1      -1.684  -1.620  22.534  1.00  0.00     0.295 C
HETATM   10  O3  UNL     1      -0.942  -2.063  21.578  1.00  0.00    -0.259 OA
BRANCH   9  11
HETATM   11  O2  UNL     1      -2.273  -2.597  23.275  1.00  0.00    -0.308 OA
BRANCH  11  12
HETATM   12  C6  UNL     1      -2.783  -2.546  24.560  1.00  0.00     0.281 C
BRANCH  12  13
HETATM   13  C5  UNL     1      -1.818  -2.276  25.633  1.00  0.00     0.242 C
HETATM   14  N1  UNL     1      -1.994  -1.215  26.543  1.00  0.00    -0.351 N
ATOM     15  H1  UNL     1      -2.815  -0.617  26.452  1.00  0.00     0.163 HD
HETATM   16  O1  UNL     1      -0.785  -3.004  25.773  1.00  0.00    -0.271 OA
BRANCH  14  17
HETATM   17  C2  UNL     1      -1.042  -0.947  27.603  1.00  0.00     0.022 C
HETATM   18  C1  UNL     1      -0.914  -2.107  28.548  1.00  0.00     0.037 C
HETATM   19  C3  UNL     1      -1.529   0.242  28.443  1.00  0.00     0.037 C
HETATM   20  C4  UNL     1       0.284  -0.533  27.011  1.00  0.00     0.037 C
ENDBRANCH  14  17
ENDBRANCH  12  13
ENDBRANCH  11  12
ENDBRANCH   9  11
ENDBRANCH   1   9
BRANCH   8  21
HETATM   21  C13 UNL     1      -3.631  -0.090  21.105  1.00  0.00     0.218 C
BRANCH  21  22
HETATM   22  O5  UNL     1      -4.501   0.722  20.367  1.00  0.00    -0.315 OA
BRANCH  22  23
HETATM   23  C14 UNL     1      -4.624   0.712  19.009  1.00  0.00     0.282 C
HETATM   24  O6  UNL     1      -5.526   0.009  18.468  1.00  0.00    -0.263 OA
BRANCH  23  25
HETATM   25  C15 UNL     1      -3.751   1.490  18.090  1.00  0.00     0.117 C
HETATM   26  C16 UNL     1      -3.318   2.801  18.695  1.00  0.00     0.043 C
HETATM   27  C17 UNL     1      -2.576   0.709  17.592  1.00  0.00     0.043 C
HETATM   28 CL1  UNL     1      -4.766   1.882  16.659  1.00  0.00    -0.109 Cl
ENDBRANCH  23  25
ENDBRANCH  22  23
ENDBRANCH  21  22
ENDBRANCH   8  21
TORSDOF 9
ENDMDL