MODEL 4
REMARK VINA RESULT: -7.361429259      1.198      1.312
REMARK  8 active torsions:
REMARK  status: ('A' for Active; 'I' for Inactive)
REMARK    1  A    between atoms: C2_2  and  C4_4
REMARK    2  A    between atoms: C4_4  and  N1_5
REMARK    3  A    between atoms: N1_5  and  C5_7
REMARK    4  A    between atoms: C6_10  and  N3_11
REMARK    5  A    between atoms: C10_15  and  C12_17
REMARK    6  A    between atoms: C13_21  and  N5_22
REMARK    7  A    between atoms: N5_22  and  C14_24
REMARK    8  A    between atoms: C14_24  and  C15_25
ROOT
HETATM    1  C5  UNL     1       0.014   3.695  22.289  1.00  0.00     0.707 A
HETATM    2  N2  UNL     1      -0.689   2.735  22.906  1.00  0.00    -0.021 N
ATOM      3  H2  UNL     1      -0.388   2.399  23.821  1.00  0.00     0.203 HD
HETATM    4  C6  UNL     1      -1.785   2.212  22.334  1.00  0.00     0.710 A
HETATM    5  N4  UNL     1      -2.142   2.687  21.131  1.00  0.00    -0.021 N
ATOM      6  H4  UNL     1      -2.972   2.301  20.681  1.00  0.00     0.203 HD
HETATM    7  C13 UNL     1      -1.442   3.665  20.481  1.00  0.00     0.707 A
HETATM    8  N6  UNL     1      -0.366   4.165  21.066  1.00  0.00    -0.022 N
ATOM      9  H6  UNL     1       0.176   4.896  20.605  1.00  0.00     0.203 HD
ENDROOT
BRANCH   4  10
HETATM   10  N3  UNL     1      -2.549   1.192  22.966  1.00  0.00    -0.206 N
HETATM   11  C7  UNL     1      -3.607   1.261  23.955  1.00  0.00     0.149 C
HETATM   12  C8  UNL     1      -3.510  -0.258  24.070  1.00  0.00     0.030 C
HETATM   13  C9  UNL     1      -2.939  -0.726  25.374  1.00  0.00     0.014 C
HETATM   14  C10 UNL     1      -2.595  -0.258  22.894  1.00  0.00     0.063 C
HETATM   15  C11 UNL     1      -1.225  -0.828  23.092  1.00  0.00     0.041 C
BRANCH  14  16
HETATM   16  C12 UNL     1      -3.186  -0.683  21.576  1.00  0.00     0.146 C
HETATM   17 CL1  UNL     1      -2.265  -2.019  20.882  1.00  0.00    -0.128 Cl
ENDBRANCH  14  16
ENDBRANCH   4  10
BRANCH   1  18
HETATM   18  N1  UNL     1       1.066   4.229  22.789  1.00  0.00    -0.225 N
ATOM     19  H1  UNL     1       1.988   3.861  22.555  1.00  0.00     0.177 HD
BRANCH  18  20
HETATM   20  C4  UNL     1       0.942   5.352  23.682  1.00  0.00     0.142 C
BRANCH  20  21
HETATM   21  C2  UNL     1       1.814   6.501  23.178  1.00  0.00    -0.004 C
HETATM   22  C1  UNL     1       2.909   5.940  22.303  1.00  0.00     0.011 C
HETATM   23  C3  UNL     1       0.920   7.353  22.297  1.00  0.00     0.011 C
ENDBRANCH  20  21
ENDBRANCH  18  20
ENDBRANCH   1  18
BRANCH   7  24
HETATM   24  N5  UNL     1      -1.903   4.007  19.355  1.00  0.00    -0.223 N
ATOM     25  H5  UNL     1      -1.733   4.950  19.006  1.00  0.00     0.177 HD
BRANCH  24  26
HETATM   26  C14 UNL     1      -2.665   3.082  18.558  1.00  0.00     0.170 C
BRANCH  26  27
HETATM   27  C15 UNL     1      -1.691   2.057  17.997  1.00  0.00     0.139 C
HETATM   28  C16 UNL     1      -1.882   1.921  16.524  1.00  0.00     0.035 C
HETATM   29  C17 UNL     1      -3.125   1.029  16.452  1.00  0.00     0.029 C
HETATM   30  C18 UNL     1      -3.181   0.397  17.813  1.00  0.00     0.168 C
HETATM   31  O1  UNL     1      -2.089   0.820  18.533  1.00  0.00    -0.384 OA
ENDBRANCH  26  27
ENDBRANCH  24  26
ENDBRANCH   7  24
TORSDOF 8
ENDMDL