MODEL 2
REMARK VINA RESULT: -7.157336524      2.944      3.538
REMARK  6 active torsions:
REMARK  status: ('A' for Active; 'I' for Inactive)
REMARK    1  A    between atoms: C2_2  and  C3_3
REMARK       I    between atoms: C3_3  and  N1_5
REMARK    2  A    between atoms: N1_5  and  C4_7
REMARK    3  A    between atoms: C5_10  and  C6_11
REMARK    4  A    between atoms: C6_11  and  C7_12
REMARK    5  A    between atoms: C8_13  and  S1_15
REMARK    6  A    between atoms: S1_15  and  N3_16
ROOT
HETATM    1  C4  UNL     1      -3.583  -0.412  19.807  1.00  0.00     0.151 A
HETATM    2  N2  UNL     1      -3.741   0.118  21.008  1.00  0.00    -0.339 N
ATOM      3  H2  UNL     1      -4.224   1.011  21.110  1.00  0.00     0.168 HD
HETATM    4  C5  UNL     1      -3.285  -0.492  22.055  1.00  0.00     0.021 A
HETATM    5  C9  UNL     1      -2.643  -1.690  21.861  1.00  0.00     0.078 A
HETATM    6  S2  UNL     1      -2.742  -1.857  20.159  1.00  0.00    -0.064 SA
ENDROOT
BRANCH   4   7
HETATM    7  C6  UNL     1      -3.450   0.085  23.452  1.00  0.00     0.086 C
BRANCH   7   8
HETATM    8  C7  UNL     1      -2.088   0.413  23.940  1.00  0.00     0.012 C
HETATM    9  C8  UNL     1      -1.474   1.559  23.865  1.00  0.00     0.122 C
HETATM   10 BR1  UNL     1       0.313   1.660  24.603  1.00  0.00    -0.037 Br
BRANCH   9  11
HETATM   11  S1  UNL     1      -2.128   2.994  23.173  1.00  0.00     0.263 S
HETATM   12  O2  UNL     1      -1.068   4.098  23.202  1.00  0.00    -0.200 OA
HETATM   13  O3  UNL     1      -2.515   2.884  21.731  1.00  0.00    -0.200 OA
BRANCH  11  14
HETATM   14  N3  UNL     1      -3.427   3.635  24.150  1.00  0.00    -0.324 N
ATOM     15  H32 UNL     1      -3.830   3.141  24.946  1.00  0.00     0.169 HD
ATOM     16  H31 UNL     1      -3.721   4.554  23.818  1.00  0.00     0.169 HD
ENDBRANCH  11  14
ENDBRANCH   9  11
ENDBRANCH   7   8
ENDBRANCH   4   7
BRANCH   1  17
HETATM   17  N1  UNL     1      -3.995   0.071  18.530  1.00  0.00    -0.306 N
HETATM   18  C3  UNL     1      -3.353   1.202  17.975  1.00  0.00     0.232 C
HETATM   19  O1  UNL     1      -2.419   1.787  18.598  1.00  0.00    -0.272 OA
ATOM     20  H1  UNL     1      -4.745  -0.395  18.021  1.00  0.00     0.171 HD
BRANCH  18  21
HETATM   21  C2  UNL     1      -3.728   1.758  16.655  1.00  0.00     0.038 A
HETATM   22  C1  UNL     1      -5.193   2.087  16.429  1.00  0.00     0.025 C
HETATM   23  C10 UNL     1      -2.729   2.533  15.885  1.00  0.00     0.020 A
HETATM   24  C11 UNL     1      -3.035   1.150  15.442  1.00  0.00     0.020 A
ENDBRANCH  18  21
ENDBRANCH   1  17
TORSDOF 6
ENDMDL