MODEL 3
REMARK VINA RESULT: -6.663694379      1.418      2.253
REMARK  6 active torsions:
REMARK  status: ('A' for Active; 'I' for Inactive)
REMARK       I    between atoms: C2_2  and  N1_4
REMARK    1  A    between atoms: C3_6  and  C4_7
REMARK    2  A    between atoms: C3_6  and  C8_11
REMARK    3  A    between atoms: C4_7  and  C5_8
REMARK    4  A    between atoms: C9_12  and  C10_13
REMARK    5  A    between atoms: N3_21  and  C14_22
REMARK    6  A    between atoms: C14_22  and  C15_23
ROOT
HETATM    1  C8  UNL     1      -2.660   1.100  21.933  1.00  0.00     0.079 A
HETATM    2  C9  UNL     1      -2.704  -0.216  21.618  1.00  0.00     0.054 A
HETATM    3  N2  UNL     1      -3.121  -0.571  20.330  1.00  0.00    -0.309 N
ATOM      4  H2  UNL     1      -3.152  -1.562  20.092  1.00  0.00     0.170 HD
HETATM    5  C13 UNL     1      -3.480   0.307  19.400  1.00  0.00     0.330 A
HETATM    6  O2  UNL     1      -3.847  -0.106  18.247  1.00  0.00    -0.246 OA
HETATM    7  N3  UNL     1      -3.454   1.603  19.677  1.00  0.00    -0.257 N
HETATM    8  C16 UNL     1      -3.057   1.981  20.908  1.00  0.00     0.266 A
HETATM    9  O4  UNL     1      -3.095   3.247  21.045  1.00  0.00    -0.267 OA
ENDROOT
BRANCH   1  10
HETATM   10  C3  UNL     1      -2.270   1.630  23.201  1.00  0.00     0.030 C
HETATM   11  N1  UNL     1      -3.009   1.623  24.222  1.00  0.00    -0.330 N
HETATM   12  C2  UNL     1      -2.901   1.973  25.546  1.00  0.00     0.217 C
ATOM     13  H1  UNL     1      -3.938   1.261  24.008  1.00  0.00     0.168 HD
HETATM   14  C1  UNL     1      -2.946   3.444  25.913  1.00  0.00     0.117 C
HETATM   15  O1  UNL     1      -2.768   1.224  26.557  1.00  0.00    -0.274 OA
BRANCH  10  16
HETATM   16  C4  UNL     1      -0.906   2.162  23.557  1.00  0.00     0.062 C
BRANCH  16  17
HETATM   17  C5  UNL     1      -0.652   3.592  23.298  1.00  0.00    -0.017 C
HETATM   18  C6  UNL     1       0.193   3.779  22.026  1.00  0.00     0.010 C
HETATM   19  C7  UNL     1       0.346   4.094  24.397  1.00  0.00     0.010 C
ENDBRANCH  16  17
ENDBRANCH  10  16
ENDBRANCH   1  10
BRANCH   2  20
HETATM   20  C10 UNL     1      -2.463  -1.333  22.507  1.00  0.00     0.073 C
HETATM   21  C11 UNL     1      -3.409  -1.641  23.609  1.00  0.00     0.039 C
HETATM   22  C12 UNL     1      -2.508  -2.662  21.669  1.00  0.00     0.039 C
HETATM   23 CL1  UNL     1      -0.715  -1.439  23.029  1.00  0.00    -0.113 Cl
ENDBRANCH   2  20
BRANCH   7  24
HETATM   24  C14 UNL     1      -3.848   2.585  18.667  1.00  0.00     0.236 C
BRANCH  24  25
HETATM   25  C15 UNL     1      -2.819   2.684  17.616  1.00  0.00     0.249 C
HETATM   26  N4  UNL     1      -3.196   2.930  16.283  1.00  0.00    -0.061 NA
HETATM   27  O3  UNL     1      -1.618   2.549  17.914  1.00  0.00    -0.275 OA
ENDBRANCH  24  25
ENDBRANCH   7  24
TORSDOF 6
ENDMDL