MODEL 3
REMARK VINA RESULT: -6.450480261      2.732      3.441
REMARK  6 active torsions:
REMARK  status: ('A' for Active; 'I' for Inactive)
REMARK    1  A    between atoms: C2_2  and  O2_4
REMARK    2  A    between atoms: O2_4  and  C3_5
REMARK    3  A    between atoms: C7_10  and  C8_11
REMARK    4  A    between atoms: C8_11  and  N1_12
REMARK    5  A    between atoms: N1_12  and  C9_14
REMARK    6  A    between atoms: C13_20  and  C14_21
ROOT
HETATM    1  C3  UNL     1      -1.717   1.579  24.301  1.00  0.00     0.151 C
HETATM    2  C4  UNL     1      -2.369   1.756  23.171  1.00  0.00    -0.022 C
HETATM    3  C5  UNL     1      -2.460   3.110  22.565  1.00  0.00     0.114 C
HETATM    4  S1  UNL     1      -2.051   3.025  20.775  1.00  0.00    -0.138 SA
HETATM    5  C6  UNL     1      -2.122   1.241  20.372  1.00  0.00     0.165 C
HETATM    6  C7  UNL     1      -2.843   0.908  19.124  1.00  0.00     0.128 C
HETATM    7  C12 UNL     1      -4.030   0.790  19.955  1.00  0.00     0.230 C
HETATM    8  O3  UNL     1      -5.278   0.736  19.722  1.00  0.00    -0.273 OA
HETATM    9  N2  UNL     1      -3.271   0.758  21.149  1.00  0.00    -0.325 N
HETATM   10  C13 UNL     1      -2.988   0.553  22.550  1.00  0.00     0.144 C
ENDROOT
BRANCH   6  11
HETATM   11  C8  UNL     1      -2.793   2.079  18.147  1.00  0.00     0.131 C
BRANCH  11  12
HETATM   12  N1  UNL     1      -4.104   2.437  17.714  1.00  0.00    -0.417 N
ATOM     13  H1  UNL     1      -4.827   2.751  18.362  1.00  0.00     0.153 HD
BRANCH  12  14
HETATM   14  C9  UNL     1      -4.334   2.327  16.319  1.00  0.00     0.068 C
HETATM   15  C10 UNL     1      -5.698   1.824  15.933  1.00  0.00     0.031 C
HETATM   16  C11 UNL     1      -3.314   1.474  15.601  1.00  0.00     0.031 C
ENDBRANCH  12  14
ENDBRANCH  11  12
ENDBRANCH   6  11
BRANCH  10  17
HETATM   17  C14 UNL     1      -4.110   0.031  23.333  1.00  0.00     0.010 C
HETATM   18  C15 UNL     1      -4.033  -1.189  23.840  1.00  0.00     0.054 C
HETATM   19 BR1  UNL     1      -2.507  -2.303  23.589  1.00  0.00    -0.064 Br
ENDBRANCH  10  17
BRANCH   1  20
HETATM   20  O2  UNL     1      -1.126   2.683  24.897  1.00  0.00    -0.291 OA
BRANCH  20  21
HETATM   21  C2  UNL     1       0.239   2.843  25.053  1.00  0.00     0.259 C
HETATM   22  C1  UNL     1       0.867   4.163  25.316  1.00  0.00     0.126 C
HETATM   23  O1  UNL     1       0.984   1.838  24.969  1.00  0.00    -0.265 OA
ENDBRANCH  20  21
ENDBRANCH   1  20
TORSDOF 6
ENDMDL