MODEL 5
REMARK VINA RESULT: -7.040185661      4.048      7.320
REMARK  7 active torsions:
REMARK  status: ('A' for Active; 'I' for Inactive)
REMARK    1  A    between atoms: C2_2  and  C4_4
REMARK    2  A    between atoms: C4_4  and  C5_5
REMARK    3  A    between atoms: C5_5  and  C11_16
REMARK       I    between atoms: N1_6  and  C6_8
REMARK       I    between atoms: C6_8  and  N2_10
REMARK    4  A    between atoms: N2_10  and  C7_12
REMARK       I    between atoms: C11_16  and  N3_18
REMARK    5  A    between atoms: N3_18  and  N4_20
REMARK    6  A    between atoms: C12_22  and  C13_23
REMARK    7  A    between atoms: N5_29  and  O3_30
ROOT
HETATM    1  C11 UNL     1      -1.940   2.771  23.873  1.00  0.00     0.282 C
HETATM    2  O2  UNL     1      -3.086   3.343  23.816  1.00  0.00    -0.265 OA
HETATM    3  N3  UNL     1      -1.447   2.255  22.663  1.00  0.00    -0.265 N
ATOM      4  H3  UNL     1      -0.541   1.788  22.641  1.00  0.00     0.190 HD
ENDROOT
BRANCH   1   5
HETATM    5  C5  UNL     1      -1.306   2.731  25.170  1.00  0.00     0.083 C
HETATM    6  N1  UNL     1      -1.258   1.761  25.979  1.00  0.00    -0.307 N
HETATM    7  C6  UNL     1      -1.705   0.463  25.995  1.00  0.00     0.321 C
ATOM      8  H1  UNL     1      -0.763   2.004  26.837  1.00  0.00     0.170 HD
HETATM    9  O1  UNL     1      -2.854   0.116  26.432  1.00  0.00    -0.247 OA
HETATM   10  N2  UNL     1      -0.897  -0.617  25.514  1.00  0.00    -0.335 N
ATOM     11  H2  UNL     1       0.032  -0.398  25.152  1.00  0.00     0.165 HD
BRANCH   5  12
HETATM   12  C4  UNL     1      -0.625   3.985  25.674  1.00  0.00     0.067 C
BRANCH  12  13
HETATM   13  C2  UNL     1       0.738   4.122  25.089  1.00  0.00    -0.017 C
HETATM   14  C1  UNL     1       1.720   4.505  26.207  1.00  0.00     0.010 C
HETATM   15  C3  UNL     1       0.807   5.255  24.065  1.00  0.00     0.010 C
ENDBRANCH  12  13
ENDBRANCH   5  12
BRANCH  10  16
HETATM   16  C7  UNL     1      -1.320  -1.994  25.511  1.00  0.00     0.023 C
HETATM   17  C8  UNL     1      -0.235  -2.894  24.918  1.00  0.00     0.037 C
HETATM   18  C9  UNL     1      -2.547  -2.134  24.638  1.00  0.00     0.037 C
HETATM   19  C10 UNL     1      -1.594  -2.516  26.905  1.00  0.00     0.037 C
ENDBRANCH  10  16
ENDBRANCH   1   5
BRANCH   3  20
HETATM   20  N4  UNL     1      -2.192   2.381  21.495  1.00  0.00    -0.307 N
HETATM   21  C12 UNL     1      -2.531   1.375  20.777  1.00  0.00     0.139 C
ATOM     22  H4  UNL     1      -2.480   3.313  21.196  1.00  0.00     0.186 HD
BRANCH  21  23
HETATM   23  C13 UNL     1      -3.311   1.561  19.561  1.00  0.00     0.079 A
HETATM   24  C14 UNL     1      -4.603   1.101  19.435  1.00  0.00     0.035 A
HETATM   25  C15 UNL     1      -5.305   1.302  18.260  1.00  0.00     0.028 A
HETATM   26  C16 UNL     1      -4.716   1.965  17.203  1.00  0.00     0.052 A
HETATM   27 CL1  UNL     1      -5.571   2.244  15.685  1.00  0.00    -0.083 Cl
HETATM   28  C17 UNL     1      -3.424   2.412  17.361  1.00  0.00     0.147 A
HETATM   29  N5  UNL     1      -2.765   2.199  18.525  1.00  0.00    -0.233 N
BRANCH  29  30
HETATM   30  O3  UNL     1      -1.478   2.684  18.585  1.00  0.00    -0.283 OA
ATOM     31  H3  UNL     1      -0.771   2.157  18.941  1.00  0.00     0.245 HD
ENDBRANCH  29  30
ENDBRANCH  21  23
ENDBRANCH   3  20
TORSDOF 7
ENDMDL