MODEL 4
REMARK VINA RESULT: -6.633602763      2.719      3.672
REMARK  8 active torsions:
REMARK  status: ('A' for Active; 'I' for Inactive)
REMARK    1  A    between atoms: C2_2  and  O2_4
REMARK    2  A    between atoms: O2_4  and  C3_5
REMARK    3  A    between atoms: C3_5  and  N1_6
REMARK       I    between atoms: N3_13  and  C8_15
REMARK    4  A    between atoms: C8_15  and  C9_17
REMARK    5  A    between atoms: C9_17  and  N4_18
REMARK    6  A    between atoms: C9_17  and  C14_26
REMARK       I    between atoms: N4_18  and  C10_20
REMARK    7  A    between atoms: C10_20  and  O5_22
REMARK    8  A    between atoms: O5_22  and  C11_23
ROOT
HETATM    1  N1  UNL     1      -3.110   0.005  25.149  1.00  0.00    -0.228 N
HETATM    2  N2  UNL     1      -2.749   0.256  26.418  1.00  0.00    -0.296 N
ATOM      3  H2  UNL     1      -2.800  -0.419  27.182  1.00  0.00     0.187 HD
HETATM    4  C4  UNL     1      -2.316   1.511  26.540  1.00  0.00     0.026 A
HETATM    5  C5  UNL     1      -1.821   2.169  27.816  1.00  0.00     0.070 C
HETATM    6  C6  UNL     1      -2.404   2.066  25.313  1.00  0.00     0.076 A
HETATM    7  C7  UNL     1      -2.918   1.101  24.390  1.00  0.00     0.133 A
HETATM    8  N3  UNL     1      -3.050   1.313  23.190  1.00  0.00    -0.310 N
ATOM      9  H3  UNL     1      -2.779   2.295  23.139  1.00  0.00     0.170 HD
HETATM   10  C8  UNL     1      -3.323   1.068  21.925  1.00  0.00     0.247 C
HETATM   11  O3  UNL     1      -4.161   0.165  21.558  1.00  0.00    -0.271 OA
ENDROOT
BRANCH  10  12
HETATM   12  C9  UNL     1      -2.729   1.769  20.724  1.00  0.00     0.197 C
BRANCH  12  13
HETATM   13  N4  UNL     1      -3.615   1.754  19.598  1.00  0.00    -0.322 N
HETATM   14  C10 UNL     1      -3.444   0.827  18.512  1.00  0.00     0.361 C
HETATM   15  O4  UNL     1      -2.491   0.006  18.550  1.00  0.00    -0.238 OA
ATOM     16  H4  UNL     1      -4.389   2.419  19.566  1.00  0.00     0.165 HD
BRANCH  14  17
HETATM   17  O5  UNL     1      -4.289   0.804  17.428  1.00  0.00    -0.299 OA
BRANCH  17  18
HETATM   18  C11 UNL     1      -4.624   1.986  16.738  1.00  0.00     0.125 C
HETATM   19  C12 UNL     1      -5.877   1.830  15.911  1.00  0.00     0.040 C
HETATM   20  C13 UNL     1      -3.521   2.442  15.804  1.00  0.00     0.040 C
ENDBRANCH  17  18
ENDBRANCH  14  17
ENDBRANCH  12  13
BRANCH  12  21
HETATM   21  C14 UNL     1      -2.305   3.178  21.025  1.00  0.00     0.110 C
HETATM   22  C15 UNL     1      -2.271   4.053  19.823  1.00  0.00     0.029 C
HETATM   23 CL1  UNL     1      -0.785   3.213  21.949  1.00  0.00    -0.123 Cl
ENDBRANCH  12  21
ENDBRANCH  10  12
BRANCH   1  24
HETATM   24  C3  UNL     1      -3.687  -1.272  24.763  1.00  0.00     0.263 C
BRANCH  24  25
HETATM   25  O2  UNL     1      -2.821  -2.175  24.184  1.00  0.00    -0.272 OA
BRANCH  25  26
HETATM   26  C2  UNL     1      -2.239  -2.304  22.981  1.00  0.00     0.260 C
HETATM   27  C1  UNL     1      -0.894  -1.671  22.659  1.00  0.00     0.126 C
HETATM   28  O1  UNL     1      -2.811  -2.962  22.095  1.00  0.00    -0.265 OA
ENDBRANCH  25  26
ENDBRANCH  24  25
ENDBRANCH   1  24
TORSDOF 8
ENDMDL