MODEL 3
REMARK VINA RESULT: -6.712498953      1.685      1.825
REMARK  5 active torsions:
REMARK  status: ('A' for Active; 'I' for Inactive)
REMARK    1  A    between atoms: C4_4  and  C5_5
REMARK    2  A    between atoms: C4_4  and  C10_13
REMARK    3  A    between atoms: C10_13  and  S2_16
REMARK    4  A    between atoms: S2_16  and  C12_17
REMARK    5  A    between atoms: C12_17  and  C13_18
ROOT
HETATM    1  C1  UNL     1      -0.418   3.701  24.237  1.00  0.00     0.040 C
HETATM    2  C2  UNL     1      -1.055   2.310  24.428  1.00  0.00     0.182 C
HETATM    3  C3  UNL     1      -0.999   1.522  23.177  1.00  0.00     0.045 C
HETATM    4  C4  UNL     1      -2.193   0.684  22.820  1.00  0.00    -0.003 C
HETATM    5  C15 UNL     1      -3.417   0.974  23.679  1.00  0.00     0.040 C
HETATM    6  C16 UNL     1      -3.432   2.439  24.118  1.00  0.00     0.233 C
HETATM    7  N1  UNL     1      -2.320   2.541  25.027  1.00  0.00    -0.071 N
ATOM      8  H11 UNL     1      -2.331   3.442  25.503  1.00  0.00     0.277 HD
ATOM      9  H12 UNL     1      -2.455   1.921  25.826  1.00  0.00     0.277 HD
ENDROOT
BRANCH   4  10
HETATM   10  C5  UNL     1      -2.575   1.104  21.428  1.00  0.00    -0.002 C
HETATM   11  C6  UNL     1      -4.049   0.824  21.120  1.00  0.00     0.020 C
HETATM   12  C7  UNL     1      -4.189   0.291  19.680  1.00  0.00     0.140 C
HETATM   13  S1  UNL     1      -3.426   1.564  18.675  1.00  0.00     0.144 S
HETATM   14  O1  UNL     1      -2.205   0.982  18.055  1.00  0.00    -0.228 OA
HETATM   15  O2  UNL     1      -4.397   2.107  17.688  1.00  0.00    -0.228 OA
HETATM   16  C8  UNL     1      -3.000   2.874  19.790  1.00  0.00     0.140 C
HETATM   17  C9  UNL     1      -2.079   2.391  20.921  1.00  0.00     0.020 C
ENDBRANCH   4  10
BRANCH   4  18
HETATM   18  C10 UNL     1      -1.906  -0.739  23.046  1.00  0.00     0.089 C
HETATM   19  C11 UNL     1      -2.915  -1.632  23.654  1.00  0.00     0.045 C
HETATM   20 CL1  UNL     1      -1.696  -1.435  21.372  1.00  0.00    -0.107 Cl
BRANCH  18  21
HETATM   21  S2  UNL     1      -0.281  -1.084  23.791  1.00  0.00    -0.140 SA
BRANCH  21  22
HETATM   22  C12 UNL     1      -0.416  -1.354  25.571  1.00  0.00     0.110 C
BRANCH  22  23
HETATM   23  C13 UNL     1       0.328  -0.356  26.377  1.00  0.00     0.154 A
HETATM   24  C14 UNL     1      -0.119   0.261  27.589  1.00  0.00     0.201 A
HETATM   25  O3  UNL     1       0.687  -0.909  27.704  1.00  0.00    -0.380 OA
ENDBRANCH  22  23
ENDBRANCH  21  22
ENDBRANCH  18  21
ENDBRANCH   4  18
TORSDOF 5
ENDMDL