MODEL 4
REMARK VINA RESULT: -6.370729801      2.872      7.613
REMARK  8 active torsions:
REMARK  status: ('A' for Active; 'I' for Inactive)
REMARK    1  A    between atoms: C4_5  and  N1_6
REMARK    2  A    between atoms: C4_5  and  C13_23
REMARK    3  A    between atoms: C8_13  and  S1_14
REMARK    4  A    between atoms: S1_14  and  C9_15
REMARK    5  A    between atoms: C9_15  and  C10_16
REMARK    6  A    between atoms: C10_16  and  O2_18
REMARK    7  A    between atoms: O2_18  and  C11_19
REMARK       I    between atoms: C13_23  and  N4_25
REMARK    8  A    between atoms: N4_25  and  C14_27
ROOT
HETATM    1  C1  UNL     1       0.843   2.063  24.480  1.00  0.00     0.019 C
HETATM    2  C2  UNL     1       0.394   1.294  25.291  1.00  0.00    -0.063 C
HETATM    3  C3  UNL     1      -0.153   0.337  26.266  1.00  0.00     0.118 C
HETATM    4 CL1  UNL     1      -0.052   0.817  27.939  1.00  0.00    -0.072 Cl
HETATM    5  C4  UNL     1      -0.656  -0.769  25.793  1.00  0.00     0.132 C
ENDROOT
BRANCH   5   6
HETATM    6  N1  UNL     1      -0.597  -0.888  24.339  1.00  0.00    -0.340 N
HETATM    7  C5  UNL     1      -1.658  -0.563  23.687  1.00  0.00     0.085 C
HETATM    8  C6  UNL     1      -2.887  -0.089  24.368  1.00  0.00     0.096 C
HETATM    9  N3  UNL     1      -1.691  -0.648  22.268  1.00  0.00    -0.327 N
HETATM   10  C7  UNL     1      -4.092  -0.811  23.787  1.00  0.00     0.129 C
HETATM   11  N2  UNL     1      -3.998  -0.883  22.365  1.00  0.00    -0.370 N
HETATM   12  C8  UNL     1      -2.953  -0.815  21.649  1.00  0.00     0.141 C
ATOM     13  H2  UNL     1      -4.878  -1.003  21.864  1.00  0.00     0.161 HD
ATOM     14  H3  UNL     1      -0.835  -0.591  21.716  1.00  0.00     0.169 HD
ATOM     15  H1  UNL     1       0.244  -1.213  23.863  1.00  0.00     0.167 HD
BRANCH  12  16
HETATM   16  S1  UNL     1      -3.012  -0.924  19.847  1.00  0.00    -0.084 SA
BRANCH  16  17
HETATM   17  C9  UNL     1      -2.872   0.732  19.120  1.00  0.00     0.193 C
BRANCH  17  18
HETATM   18  C10 UNL     1      -4.240   1.300  19.003  1.00  0.00     0.268 C
HETATM   19  O1  UNL     1      -5.153   0.817  19.719  1.00  0.00    -0.264 OA
BRANCH  18  20
HETATM   20  O2  UNL     1      -4.540   2.339  18.136  1.00  0.00    -0.321 OA
BRANCH  20  21
HETATM   21  C11 UNL     1      -4.168   2.247  16.786  1.00  0.00     0.174 C
HETATM   22  C12 UNL     1      -5.383   2.196  15.905  1.00  0.00     0.034 C
ENDBRANCH  20  21
ENDBRANCH  18  20
ENDBRANCH  17  18
ENDBRANCH  16  17
ENDBRANCH  12  16
ENDBRANCH   5   6
BRANCH   5  23
HETATM   23  C13 UNL     1      -1.253  -1.875  26.478  1.00  0.00     0.271 C
HETATM   24  O3  UNL     1      -0.823  -3.052  26.150  1.00  0.00    -0.266 OA
HETATM   25  N4  UNL     1      -2.249  -1.894  27.467  1.00  0.00    -0.352 N
ATOM     26  H4  UNL     1      -2.646  -1.011  27.786  1.00  0.00     0.163 HD
BRANCH  25  27
HETATM   27  C14 UNL     1      -2.735  -3.141  28.054  1.00  0.00     0.076 C
HETATM   28  C15 UNL     1      -2.560  -3.091  29.550  1.00  0.00     0.032 C
HETATM   29  C16 UNL     1      -4.160  -3.422  27.641  1.00  0.00     0.032 C
ENDBRANCH  25  27
ENDBRANCH   5  23
TORSDOF 8
ENDMDL