MODEL 4
REMARK VINA RESULT: -4.843926968      2.756      6.049
REMARK  9 active torsions:
REMARK  status: ('A' for Active; 'I' for Inactive)
REMARK    1  A    between atoms: N1_1  and  C1_4
REMARK    2  A    between atoms: N3_8  and  C3_9
REMARK    3  A    between atoms: C3_9  and  C4_10
REMARK    4  A    between atoms: C4_10  and  C5_11
REMARK    5  A    between atoms: C5_11  and  C6_12
REMARK    6  A    between atoms: C6_12  and  N4_13
REMARK    7  A    between atoms: C7_17  and  N5_18
REMARK    8  A    between atoms: N5_18  and  N6_20
REMARK    9  A    between atoms: C8_26  and  N9_27
ROOT
HETATM    1  C1  UNL     1      27.795 -10.973  16.166  1.00  0.00     0.705 A
HETATM    2  N2  UNL     1      26.487 -10.751  15.946  1.00  0.00    -0.019 N
ATOM      3  H2  UNL     1      25.806 -11.373  16.382  1.00  0.00     0.203 HD
HETATM    4  C2  UNL     1      26.042  -9.744  15.173  1.00  0.00     0.750 A
HETATM    5  N3  UNL     1      24.818  -9.324  14.808  1.00  0.00    -0.009 N
HETATM    6  C7  UNL     1      24.980  -8.254  14.014  1.00  0.00     0.729 A
HETATM    7  N7  UNL     1      26.303  -8.043  13.910  1.00  0.00    -0.094 N
ATOM      8  H7  UNL     1      26.732  -7.294  13.367  1.00  0.00     0.207 HD
HETATM    9  N8  UNL     1      26.976  -8.949  14.617  1.00  0.00     0.106 N
HETATM   10  C8  UNL     1      28.294  -9.132  14.809  1.00  0.00     0.727 A
HETATM   11  N10 UNL     1      28.694 -10.150  15.587  1.00  0.00    -0.020 N
ATOM     12  H10 UNL     1      29.690 -10.304  15.742  1.00  0.00     0.203 HD
ENDROOT
BRANCH   5  13
HETATM   13  C3  UNL     1      23.536  -9.890  15.179  1.00  0.00     0.167 C
BRANCH  13  14
HETATM   14  C4  UNL     1      23.565 -11.398  15.184  1.00  0.00     0.023 C
BRANCH  14  15
HETATM   15  C5  UNL     1      22.129 -11.879  15.188  1.00  0.00     0.029 C
BRANCH  15  16
HETATM   16  C6  UNL     1      22.039 -13.374  15.387  1.00  0.00     0.229 C
BRANCH  16  17
HETATM   17  N4  UNL     1      22.698 -13.714  16.622  1.00  0.00    -0.079 N
ATOM     18  H43 UNL     1      22.649 -14.711  16.829  1.00  0.00     0.274 HD
ATOM     19  H42 UNL     1      23.713 -13.633  16.559  1.00  0.00     0.274 HD
ATOM     20  H41 UNL     1      22.306 -13.140  17.369  1.00  0.00     0.274 HD
ENDBRANCH  16  17
ENDBRANCH  15  16
ENDBRANCH  14  15
ENDBRANCH  13  14
ENDBRANCH   5  13
BRANCH   6  21
HETATM   21  N5  UNL     1      24.060  -7.536  13.438  1.00  0.00    -0.137 N
ATOM     22  H5  UNL     1      23.790  -7.756  12.480  1.00  0.00     0.205 HD
BRANCH  21  23
HETATM   23  N6  UNL     1      23.436  -6.484  14.084  1.00  0.00    -0.331 N
ATOM     24  H62 UNL     1      23.057  -5.729  13.512  1.00  0.00     0.177 HD
ATOM     25  H61 UNL     1      23.348  -6.446  15.100  1.00  0.00     0.177 HD
ENDBRANCH  21  23
ENDBRANCH   6  21
BRANCH   1  26
HETATM   26  N1  UNL     1      28.129 -11.952  16.913  1.00  0.00    -0.234 N
ATOM     27  H12 UNL     1      27.490 -12.385  17.579  1.00  0.00     0.174 HD
ATOM     28  H11 UNL     1      29.078 -12.317  16.840  1.00  0.00     0.174 HD
ENDBRANCH   1  26
BRANCH  10  29
HETATM   29  N9  UNL     1      29.197  -8.382  14.284  1.00  0.00    -0.232 N
ATOM     30  H92 UNL     1      29.197  -8.269  13.271  1.00  0.00     0.174 HD
ATOM     31  H91 UNL     1      29.909  -7.895  14.829  1.00  0.00     0.174 HD
ENDBRANCH  10  29
TORSDOF 9
ENDMDL