MODEL 5
REMARK VINA RESULT: -5.168318732      2.541      3.766
REMARK  10 active torsions:
REMARK  status: ('A' for Active; 'I' for Inactive)
REMARK    1  A    between atoms: N1_1  and  C1_4
REMARK    2  A    between atoms: C2_7  and  N3_8
REMARK    3  A    between atoms: N3_8  and  N4_10
REMARK    4  A    between atoms: C3_15  and  N6_16
REMARK    5  A    between atoms: N6_16  and  C4_18
REMARK    6  A    between atoms: C4_18  and  C5_19
REMARK    7  A    between atoms: C5_19  and  N7_20
REMARK    8  A    between atoms: C5_19  and  C6_24
REMARK    9  A    between atoms: C6_24  and  C7_25
REMARK   10  A    between atoms: C7_25  and  O1_26
ROOT
HETATM    1  C1  UNL     1      25.221  -7.243  14.365  1.00  0.00     0.705 A
HETATM    2  N2  UNL     1      24.141  -7.914  14.807  1.00  0.00    -0.020 N
ATOM      3  H2  UNL     1      23.309  -7.379  15.056  1.00  0.00     0.203 HD
HETATM    4  C2  UNL     1      24.102  -9.242  14.937  1.00  0.00     0.725 A
HETATM    5  N5  UNL     1      25.222  -9.935  14.601  1.00  0.00    -0.020 N
ATOM      6  H5  UNL     1      25.223 -10.951  14.690  1.00  0.00     0.203 HD
HETATM    7  C3  UNL     1      26.330  -9.316  14.154  1.00  0.00     0.707 A
HETATM    8  N8  UNL     1      26.306  -7.982  14.045  1.00  0.00    -0.022 N
ATOM      9  H8  UNL     1      27.142  -7.505  13.707  1.00  0.00     0.203 HD
ENDROOT
BRANCH   7  10
HETATM   10  N6  UNL     1      27.382 -10.002  13.842  1.00  0.00    -0.223 N
ATOM     11  H6  UNL     1      27.504 -10.375  12.901  1.00  0.00     0.177 HD
BRANCH  10  12
HETATM   12  C4  UNL     1      28.395 -10.229  14.877  1.00  0.00     0.171 C
BRANCH  12  13
HETATM   13  C5  UNL     1      28.010 -11.406  15.719  1.00  0.00     0.203 C
BRANCH  13  14
HETATM   14  N7  UNL     1      28.076 -10.931  17.131  1.00  0.00    -0.073 N
ATOM     15  H73 UNL     1      28.593 -10.059  17.245  1.00  0.00     0.274 HD
ATOM     16  H72 UNL     1      27.183 -10.590  17.490  1.00  0.00     0.274 HD
ATOM     17  H71 UNL     1      28.462 -11.708  17.666  1.00  0.00     0.274 HD
ENDBRANCH  13  14
BRANCH  13  18
HETATM   18  C6  UNL     1      28.940 -12.583  15.632  1.00  0.00     0.060 C
BRANCH  18  19
HETATM   19  C7  UNL     1      30.035 -12.633  16.651  1.00  0.00     0.166 C
BRANCH  19  20
HETATM   20  O1  UNL     1      31.035 -11.698  16.482  1.00  0.00    -0.401 OA
ATOM     21  H1  UNL     1      31.819 -11.848  16.998  1.00  0.00     0.209 HD
ENDBRANCH  19  20
ENDBRANCH  18  19
ENDBRANCH  13  18
ENDBRANCH  12  13
ENDBRANCH  10  12
ENDBRANCH   7  10
BRANCH   4  22
HETATM   22  N3  UNL     1      22.963  -9.951  15.404  1.00  0.00    -0.138 N
ATOM     23  H3  UNL     1      22.742 -10.872  15.026  1.00  0.00     0.205 HD
BRANCH  22  24
HETATM   24  N4  UNL     1      22.146  -9.379  16.383  1.00  0.00    -0.331 N
ATOM     25  H42 UNL     1      22.557  -8.736  17.061  1.00  0.00     0.177 HD
ATOM     26  H41 UNL     1      21.153  -9.611  16.410  1.00  0.00     0.177 HD
ENDBRANCH  22  24
ENDBRANCH   4  22
BRANCH   1  27
HETATM   27  N1  UNL     1      25.226  -5.956  14.250  1.00  0.00    -0.234 N
ATOM     28  H12 UNL     1      25.851  -5.483  13.597  1.00  0.00     0.174 HD
ATOM     29  H11 UNL     1      24.610  -5.362  14.804  1.00  0.00     0.174 HD
ENDBRANCH   1  27
TORSDOF 10
ENDMDL