MODEL 1
REMARK VINA RESULT: -6.233147820      0.000      0.000
REMARK  8 active torsions:
REMARK  status: ('A' for Active; 'I' for Inactive)
REMARK    1  A    between atoms: N1_1  and  C1_4
REMARK    2  A    between atoms: C2_7  and  N3_8
REMARK    3  A    between atoms: N3_8  and  C3_10
REMARK    4  A    between atoms: C3_10  and  N4_11
REMARK    5  A    between atoms: C4_17  and  N6_18
REMARK    6  A    between atoms: N6_18  and  C5_20
REMARK    7  A    between atoms: C7_22  and  O1_23
REMARK    8  A    between atoms: C8_25  and  O2_26
ROOT
HETATM    1  C1  UNL     1      22.728  -8.522  16.177  1.00  0.00     0.705 A
HETATM    2  N2  UNL     1      22.287  -9.773  16.096  1.00  0.00    -0.022 N
ATOM      3  H2  UNL     1      21.433 -10.051  16.580  1.00  0.00     0.203 HD
HETATM    4  C2  UNL     1      22.972 -10.662  15.377  1.00  0.00     0.708 A
HETATM    5  N5  UNL     1      24.085 -10.269  14.753  1.00  0.00    -0.021 N
ATOM      6  H5  UNL     1      24.599 -10.959  14.205  1.00  0.00     0.203 HD
HETATM    7  C4  UNL     1      24.566  -9.014  14.808  1.00  0.00     0.707 A
HETATM    8  N7  UNL     1      23.843  -8.152  15.547  1.00  0.00    -0.022 N
ATOM      9  H7  UNL     1      24.157  -7.185  15.628  1.00  0.00     0.203 HD
ENDROOT
BRANCH   7  10
HETATM   10  N6  UNL     1      25.748  -8.580  14.152  1.00  0.00    -0.220 N
ATOM     11  H6  UNL     1      25.669  -8.289  13.178  1.00  0.00     0.178 HD
BRANCH  10  12
HETATM   12  C5  UNL     1      27.042  -8.520  14.760  1.00  0.00     0.104 C
HETATM   13  C6  UNL     1      27.057  -9.002  16.179  1.00  0.00     0.060 C
HETATM   14  C7  UNL     1      27.427 -10.470  16.157  1.00  0.00     0.148 C
HETATM   15  C8  UNL     1      28.330 -10.565  14.971  1.00  0.00     0.148 C
HETATM   16  C9  UNL     1      28.024  -9.416  14.067  1.00  0.00     0.060 C
BRANCH  14  17
HETATM   17  O1  UNL     1      26.323 -11.301  16.083  1.00  0.00    -0.393 OA
ATOM     18  H1  UNL     1      26.551 -12.222  16.125  1.00  0.00     0.210 HD
ENDBRANCH  14  17
BRANCH  15  19
HETATM   19  O2  UNL     1      29.670 -10.493  15.374  1.00  0.00    -0.393 OA
ATOM     20  H2  UNL     1      29.800 -10.988  16.175  1.00  0.00     0.210 HD
ENDBRANCH  15  19
ENDBRANCH  10  12
ENDBRANCH   7  10
BRANCH   4  21
HETATM   21  N3  UNL     1      22.542 -12.000  15.263  1.00  0.00    -0.201 N
ATOM     22  H3  UNL     1      22.073 -12.271  14.399  1.00  0.00     0.179 HD
BRANCH  21  23
HETATM   23  C3  UNL     1      22.713 -13.004  16.263  1.00  0.00     0.368 C
BRANCH  23  24
HETATM   24  N4  UNL     1      22.006 -14.229  15.990  1.00  0.00    -0.063 N
ATOM     25  H43 UNL     1      22.379 -14.991  16.555  1.00  0.00     0.276 HD
ATOM     26  H42 UNL     1      21.057 -14.185  16.364  1.00  0.00     0.276 HD
ATOM     27  H41 UNL     1      21.990 -14.488  15.004  1.00  0.00     0.276 HD
ENDBRANCH  23  24
ENDBRANCH  21  23
ENDBRANCH   4  21
BRANCH   1  28
HETATM   28  N1  UNL     1      22.076  -7.659  16.869  1.00  0.00    -0.234 N
ATOM     29  H12 UNL     1      21.105  -7.845  17.119  1.00  0.00     0.174 HD
ATOM     30  H11 UNL     1      22.532  -6.795  17.163  1.00  0.00     0.174 HD
ENDBRANCH   1  28
TORSDOF 8
ENDMDL