MODEL 5
REMARK VINA RESULT: -5.688750705      3.637      4.950
REMARK  8 active torsions:
REMARK  status: ('A' for Active; 'I' for Inactive)
REMARK    1  A    between atoms: N1_2  and  C2_3
REMARK    2  A    between atoms: N1_2  and  C4_9
REMARK    3  A    between atoms: C2_3  and  C3_4
REMARK    4  A    between atoms: C3_4  and  N2_5
REMARK    5  A    between atoms: C4_9  and  C5_10
REMARK    6  A    between atoms: C7_18  and  O1_19
REMARK    7  A    between atoms: C7_18  and  C8_21
REMARK    8  A    between atoms: C8_21  and  O2_22
ROOT
HETATM    1  C5  UNL     1      26.948 -10.002  14.808  1.00  0.00     0.185 C
HETATM    2  N3  UNL     1      25.751 -10.679  15.178  1.00  0.00    -0.127 NA
HETATM    3  N4  UNL     1      24.666  -9.944  14.690  1.00  0.00    -0.277 N
ATOM      4  H4  UNL     1      23.749 -10.388  14.661  1.00  0.00     0.185 HD
HETATM    5  C6  UNL     1      24.789  -8.604  14.231  1.00  0.00     0.202 C
HETATM    6  N5  UNL     1      23.798  -8.011  13.427  1.00  0.00    -0.062 NA
HETATM    7  N6  UNL     1      25.848  -7.915  14.570  1.00  0.00    -0.329 N
ATOM      8  H6  UNL     1      25.978  -6.950  14.265  1.00  0.00     0.165 HD
HETATM    9  C7  UNL     1      26.841  -8.598  15.412  1.00  0.00     0.176 C
ENDROOT
BRANCH   1  10
HETATM   10  C4  UNL     1      28.213 -10.651  15.238  1.00  0.00     0.299 C
BRANCH  10  11
HETATM   11  N1  UNL     1      28.082 -11.881  15.929  1.00  0.00     0.087 N
HETATM   12  C1  UNL     1      27.999 -11.596  17.345  1.00  0.00     0.310 C
BRANCH  11  13
HETATM   13  C2  UNL     1      28.971 -12.929  15.571  1.00  0.00     0.299 C
BRANCH  13  14
HETATM   14  C3  UNL     1      29.585 -13.624  16.780  1.00  0.00     0.259 C
BRANCH  14  15
HETATM   15  N2  UNL     1      31.031 -13.685  16.698  1.00  0.00    -0.078 N
ATOM     16  H23 UNL     1      31.348 -13.624  15.730  1.00  0.00     0.274 HD
ATOM     17  H22 UNL     1      31.458 -12.834  17.063  1.00  0.00     0.274 HD
ATOM     18  H21 UNL     1      31.406 -14.514  17.159  1.00  0.00     0.274 HD
ENDBRANCH  14  15
ENDBRANCH  13  14
ENDBRANCH  11  13
ENDBRANCH  10  11
ENDBRANCH   1  10
BRANCH   9  19
HETATM   19  O1  UNL     1      26.291  -8.633  16.689  1.00  0.00    -0.367 OA
ATOM     20  H1  UNL     1      26.582  -7.897  17.214  1.00  0.00     0.212 HD
ENDBRANCH   9  19
BRANCH   9  21
HETATM   21  C8  UNL     1      28.133  -7.854  15.351  1.00  0.00     0.227 C
BRANCH  21  22
HETATM   22  O2  UNL     1      28.397  -7.405  16.660  1.00  0.00    -0.396 OA
ATOM     23  H2  UNL     1      28.822  -8.125  17.111  1.00  0.00     0.209 HD
ENDBRANCH  21  22
ENDBRANCH   9  21
TORSDOF 8
ENDMDL