MODEL 5
REMARK VINA RESULT: -6.231118406      2.527      3.922
REMARK  7 active torsions:
REMARK  status: ('A' for Active; 'I' for Inactive)
REMARK    1  A    between atoms: N1_1  and  C1_4
REMARK    2  A    between atoms: C2_7  and  S1_8
REMARK    3  A    between atoms: S1_8  and  N3_11
REMARK    4  A    between atoms: N3_11  and  N4_13
REMARK    5  A    between atoms: N4_13  and  C3_15
REMARK    6  A    between atoms: N5_16  and  O3_18
REMARK    7  A    between atoms: C4_22  and  N7_23
ROOT
HETATM    1  C1  UNL     1      23.251 -10.226  15.486  1.00  0.00     0.692 A
HETATM    2  N2  UNL     1      24.387  -9.602  15.179  1.00  0.00    -0.163 N
ATOM      3  H2  UNL     1      25.149 -10.124  14.746  1.00  0.00     0.186 HD
HETATM    4  C2  UNL     1      24.540  -8.297  15.433  1.00  0.00     0.254 A
HETATM    5  N6  UNL     1      23.533  -7.626  16.001  1.00  0.00    -0.163 N
ATOM      6  H6  UNL     1      23.648  -6.631  16.195  1.00  0.00     0.186 HD
HETATM    7  C4  UNL     1      22.371  -8.223  16.325  1.00  0.00     0.692 A
HETATM    8  N8  UNL     1      22.246  -9.534  16.058  1.00  0.00    -0.023 N
ATOM      9  H8  UNL     1      21.377 -10.013  16.291  1.00  0.00     0.203 HD
ENDROOT
BRANCH   4  10
HETATM   10  S1  UNL     1      26.018  -7.496  15.032  1.00  0.00     0.309 S
HETATM   11  O1  UNL     1      26.745  -8.206  13.906  1.00  0.00    -0.196 OA
HETATM   12  O2  UNL     1      25.731  -6.072  14.671  1.00  0.00    -0.196 OA
BRANCH  10  13
HETATM   13  N3  UNL     1      27.085  -7.486  16.380  1.00  0.00    -0.220 N
ATOM     14  H3  UNL     1      27.782  -8.210  16.551  1.00  0.00     0.200 HD
BRANCH  13  15
HETATM   15  N4  UNL     1      26.899  -6.391  17.213  1.00  0.00    -0.285 N
ATOM     16  H4  UNL     1      25.967  -6.016  17.391  1.00  0.00     0.188 HD
BRANCH  15  17
HETATM   17  C3  UNL     1      28.055  -5.807  17.810  1.00  0.00     0.221 C
HETATM   18  N5  UNL     1      28.063  -4.618  18.297  1.00  0.00    -0.264 N
ATOM     19  H5  UNL     1      28.915  -4.245  18.715  1.00  0.00     0.195 HD
BRANCH  18  20
HETATM   20  O3  UNL     1      26.931  -3.852  18.256  1.00  0.00    -0.289 OA
ATOM     21  H3  UNL     1      26.754  -3.223  18.945  1.00  0.00     0.244 HD
ENDBRANCH  18  20
ENDBRANCH  15  17
ENDBRANCH  13  15
ENDBRANCH  10  13
ENDBRANCH   4  10
BRANCH   1  22
HETATM   22  N1  UNL     1      23.168 -11.492  15.214  1.00  0.00    -0.234 N
ATOM     23  H12 UNL     1      23.780 -12.190  15.636  1.00  0.00     0.174 HD
ATOM     24  H11 UNL     1      22.454 -11.786  14.547  1.00  0.00     0.174 HD
ENDBRANCH   1  22
BRANCH   7  25
HETATM   25  N7  UNL     1      21.380  -7.593  16.876  1.00  0.00    -0.234 N
ATOM     26  H72 UNL     1      21.459  -6.590  17.041  1.00  0.00     0.174 HD
ATOM     27  H71 UNL     1      20.514  -8.054  17.158  1.00  0.00     0.174 HD
ENDBRANCH   7  25
TORSDOF 7
ENDMDL