MODEL 3
REMARK VINA RESULT: -5.007709976      2.608      3.654
REMARK  9 active torsions:
REMARK  status: ('A' for Active; 'I' for Inactive)
REMARK    1  A    between atoms: O1_2  and  N1_3
REMARK    2  A    between atoms: N1_3  and  C2_5
REMARK    3  A    between atoms: C2_5  and  N2_7
REMARK    4  A    between atoms: N2_7  and  N3_9
REMARK    5  A    between atoms: N3_9  and  C3_11
REMARK    6  A    between atoms: C4_12  and  N4_13
REMARK    7  A    between atoms: C6_18  and  N5_19
REMARK    8  A    between atoms: C7_23  and  N6_24
REMARK    9  A    between atoms: N6_24  and  N7_25
ROOT
HETATM    1  C3  UNL     1      24.235  -9.742  14.853  1.00  0.00     0.152 C
HETATM    2  C4  UNL     1      23.409 -10.731  15.620  1.00  0.00     0.211 C
HETATM    3  C5  UNL     1      22.405  -9.934  16.428  1.00  0.00     0.069 C
HETATM    4  C6  UNL     1      22.571  -8.524  15.925  1.00  0.00     0.208 C
HETATM    5  C7  UNL     1      24.077  -8.483  15.677  1.00  0.00     0.155 C
ENDROOT
BRANCH   1   6
HETATM    6  N3  UNL     1      25.565 -10.121  14.602  1.00  0.00    -0.326 N
ATOM      7  H3  UNL     1      25.866 -11.087  14.729  1.00  0.00     0.180 HD
BRANCH   6   8
HETATM    8  N2  UNL     1      26.436  -9.172  14.187  1.00  0.00    -0.279 N
ATOM      9  H2  UNL     1      26.195  -8.577  13.395  1.00  0.00     0.189 HD
BRANCH   8  10
HETATM   10  C2  UNL     1      27.676  -8.999  14.840  1.00  0.00     0.210 C
HETATM   11  S1  UNL     1      27.830  -7.848  15.978  1.00  0.00    -0.037 SA
BRANCH  10  12
HETATM   12  N1  UNL     1      28.801  -9.806  14.530  1.00  0.00    -0.240 N
ATOM     13  H1  UNL     1      29.154  -9.820  13.574  1.00  0.00     0.197 HD
BRANCH  12  14
HETATM   14  O1  UNL     1      29.417 -10.561  15.473  1.00  0.00    -0.283 OA
HETATM   15  C1  UNL     1      28.581 -11.618  15.866  1.00  0.00     0.237 C
ENDBRANCH  12  14
ENDBRANCH  10  12
ENDBRANCH   8  10
ENDBRANCH   6   8
ENDBRANCH   1   6
BRANCH   2  16
HETATM   16  N4  UNL     1      22.702 -11.608  14.701  1.00  0.00    -0.073 N
ATOM     17  H43 UNL     1      21.691 -11.499  14.770  1.00  0.00     0.274 HD
ATOM     18  H42 UNL     1      22.818 -11.318  13.730  1.00  0.00     0.274 HD
ATOM     19  H41 UNL     1      22.993 -12.575  14.848  1.00  0.00     0.274 HD
ENDBRANCH   2  16
BRANCH   5  20
HETATM   20  N6  UNL     1      24.468  -7.303  14.937  1.00  0.00    -0.139 NA
BRANCH  20  21
HETATM   21  N7  UNL     1      23.711  -7.254  13.760  1.00  0.00    -0.348 N
ATOM     22  H72 UNL     1      22.773  -7.640  13.650  1.00  0.00     0.172 HD
ATOM     23  H71 UNL     1      24.258  -6.770  13.049  1.00  0.00     0.172 HD
ENDBRANCH  20  21
ENDBRANCH   5  20
BRANCH   4  24
HETATM   24  N5  UNL     1      22.122  -7.531  16.835  1.00  0.00    -0.073 N
ATOM     25  H53 UNL     1      21.664  -7.962  17.639  1.00  0.00     0.274 HD
ATOM     26  H52 UNL     1      22.913  -7.091  17.305  1.00  0.00     0.274 HD
ATOM     27  H51 UNL     1      21.518  -6.826  16.413  1.00  0.00     0.274 HD
ENDBRANCH   4  24
TORSDOF 9
ENDMDL