MODEL 3
REMARK VINA RESULT: -5.746150219      1.617      1.766
REMARK  7 active torsions:
REMARK  status: ('A' for Active; 'I' for Inactive)
REMARK    1  A    between atoms: N1_1  and  C1_5
REMARK    2  A    between atoms: C1_5  and  C2_6
REMARK    3  A    between atoms: C1_5  and  C5_11
REMARK    4  A    between atoms: C2_6  and  S1_7
REMARK    5  A    between atoms: S1_7  and  C3_8
REMARK    6  A    between atoms: C3_8  and  C4_9
REMARK    7  A    between atoms: C6_17  and  O1_18
ROOT
HETATM    1  C5  UNL     1      26.243  -7.750  14.656  1.00  0.00     0.335 C
HETATM    2  N2  UNL     1      25.528  -7.979  13.451  1.00  0.00    -0.292 N
ATOM      3  H2  UNL     1      25.977  -8.437  12.657  1.00  0.00     0.183 HD
HETATM    4  N3  UNL     1      24.243  -7.577  13.381  1.00  0.00    -0.245 N
ATOM      5  H3  UNL     1      23.713  -7.642  12.511  1.00  0.00     0.203 HD
HETATM    6  N4  UNL     1      23.672  -7.074  14.534  1.00  0.00    -0.064 NA
HETATM    7  C6  UNL     1      24.068  -7.980  15.625  1.00  0.00     0.439 C
HETATM    8  N5  UNL     1      25.475  -7.688  15.845  1.00  0.00    -0.009 N
ATOM      9  H51 UNL     1      25.593  -6.787  16.308  1.00  0.00     0.284 HD
ATOM     10  H52 UNL     1      25.867  -8.297  16.564  1.00  0.00     0.284 HD
ENDROOT
BRANCH   1  11
HETATM   11  C1  UNL     1      27.313  -8.822  14.791  1.00  0.00     0.244 C
BRANCH  11  12
HETATM   12  N1  UNL     1      28.616  -8.349  14.432  1.00  0.00    -0.071 N
ATOM     13  H13 UNL     1      28.915  -7.566  15.015  1.00  0.00     0.274 HD
ATOM     14  H12 UNL     1      29.349  -9.010  14.687  1.00  0.00     0.274 HD
ATOM     15  H11 UNL     1      28.637  -8.117  13.439  1.00  0.00     0.274 HD
ENDBRANCH  11  12
BRANCH  11  16
HETATM   16  C2  UNL     1      27.333  -9.338  16.191  1.00  0.00     0.110 C
BRANCH  16  17
HETATM   17  S1  UNL     1      27.496 -11.109  16.352  1.00  0.00    -0.166 SA
BRANCH  17  18
HETATM   18  C3  UNL     1      29.179 -11.713  16.331  1.00  0.00     0.085 C
BRANCH  18  19
HETATM   19  C4  UNL     1      29.255 -13.224  16.390  1.00  0.00     0.096 C
HETATM   20  S2  UNL     1      30.897 -13.825  16.773  1.00  0.00    -0.097 SA
ENDBRANCH  18  19
ENDBRANCH  17  18
ENDBRANCH  16  17
ENDBRANCH  11  16
ENDBRANCH   1  11
BRANCH   7  21
HETATM   21  O1  UNL     1      23.322  -7.743  16.761  1.00  0.00    -0.356 OA
ATOM     22  H1  UNL     1      23.324  -8.500  17.335  1.00  0.00     0.213 HD
ENDBRANCH   7  21
TORSDOF 7
ENDMDL