MODEL 1
REMARK VINA RESULT: -6.430572299      0.000      0.000
REMARK  8 active torsions:
REMARK  status: ('A' for Active; 'I' for Inactive)
REMARK    1  A    between atoms: N1_1  and  C1_4
REMARK    2  A    between atoms: C4_9  and  N3_10
REMARK    3  A    between atoms: N7_18  and  O1_19
REMARK    4  A    between atoms: O1_19  and  C5_20
REMARK    5  A    between atoms: C5_20  and  O2_21
REMARK    6  A    between atoms: O2_21  and  C6_22
REMARK    7  A    between atoms: C6_22  and  O3_23
REMARK    8  A    between atoms: O3_23  and  N8_24
ROOT
HETATM    1  C1  UNL     1      23.741  -9.536  15.186  1.00  0.00     0.679 A
HETATM    2  N2  UNL     1      24.849 -10.312  15.246  1.00  0.00    -0.171 N
ATOM      3  H2  UNL     1      24.770 -11.288  15.532  1.00  0.00     0.186 HD
HETATM    4  C2  UNL     1      26.035  -9.811  14.937  1.00  0.00     0.196 A
HETATM    5  C3  UNL     1      26.097  -8.478  14.556  1.00  0.00     0.139 A
HETATM    6  C4  UNL     1      24.973  -7.682  14.493  1.00  0.00     0.146 A
HETATM    7  N4  UNL     1      23.789  -8.227  14.814  1.00  0.00    -0.175 N
ATOM      8  H4  UNL     1      22.936  -7.669  14.779  1.00  0.00     0.186 HD
HETATM    9  N5  UNL     1      27.478  -8.240  14.298  1.00  0.00    -0.275 N
ATOM     10  H5  UNL     1      27.897  -7.327  14.127  1.00  0.00     0.184 HD
HETATM   11  N6  UNL     1      28.168  -9.453  14.316  1.00  0.00     0.009 NA
HETATM   12  N7  UNL     1      27.347 -10.401  14.914  1.00  0.00    -0.123 N
ENDROOT
BRANCH  12  13
HETATM   13  O1  UNL     1      27.718 -11.593  15.369  1.00  0.00    -0.232 OA
BRANCH  13  14
HETATM   14  C5  UNL     1      27.844 -11.742  16.722  1.00  0.00     0.375 C
BRANCH  14  15
HETATM   15  O2  UNL     1      29.052 -11.975  17.253  1.00  0.00    -0.338 OA
BRANCH  15  16
HETATM   16  C6  UNL     1      30.061 -12.464  16.519  1.00  0.00     0.372 C
BRANCH  16  17
HETATM   17  O3  UNL     1      31.279 -11.848  16.512  1.00  0.00    -0.261 OA
BRANCH  17  18
HETATM   18  N8  UNL     1      32.342 -12.619  16.547  1.00  0.00    -0.309 N
ATOM     19  H82 UNL     1      33.071 -12.463  17.243  1.00  0.00     0.184 HD
ATOM     20  H81 UNL     1      32.398 -13.366  15.857  1.00  0.00     0.184 HD
ENDBRANCH  17  18
ENDBRANCH  16  17
ENDBRANCH  15  16
ENDBRANCH  14  15
ENDBRANCH  13  14
ENDBRANCH  12  13
BRANCH   1  21
HETATM   21  N1  UNL     1      22.614 -10.046  15.490  1.00  0.00    -0.234 N
ATOM     22  H12 UNL     1      22.580 -11.022  15.784  1.00  0.00     0.174 HD
ATOM     23  H11 UNL     1      21.777  -9.466  15.431  1.00  0.00     0.174 HD
ENDBRANCH   1  21
BRANCH   6  24
HETATM   24  N3  UNL     1      25.050  -6.450  14.137  1.00  0.00    -0.383 N
ATOM     25  H32 UNL     1      25.713  -6.158  13.418  1.00  0.00     0.157 HD
ATOM     26  H31 UNL     1      24.456  -5.740  14.563  1.00  0.00     0.157 HD
ENDBRANCH   6  24
TORSDOF 8
ENDMDL