MODEL 4
REMARK VINA RESULT: -6.193015664      2.049      6.486
REMARK  7 active torsions:
REMARK  status: ('A' for Active; 'I' for Inactive)
REMARK    1  A    between atoms: N1_1  and  C1_4
REMARK    2  A    between atoms: N3_8  and  C3_9
REMARK    3  A    between atoms: C4_12  and  C5_13
REMARK    4  A    between atoms: C5_13  and  N6_14
REMARK    5  A    between atoms: N6_14  and  C6_16
REMARK    6  A    between atoms: C6_16  and  C7_17
REMARK    7  A    between atoms: C7_17  and  O1_18
ROOT
HETATM    1  C3  UNL     1      28.296 -11.477  16.473  1.00  0.00     0.377 C
HETATM    2  N4  UNL     1      29.434 -10.932  15.763  1.00  0.00    -0.089 NA
HETATM    3  N5  UNL     1      28.897  -9.762  15.217  1.00  0.00    -0.106 NA
HETATM    4  C4  UNL     1      27.459  -9.939  15.183  1.00  0.00     0.273 C
HETATM    5  O2  UNL     1      27.291 -11.317  15.519  1.00  0.00    -0.321 OA
ENDROOT
BRANCH   1   6
HETATM    6  N3  UNL     1      28.441 -12.878  16.822  1.00  0.00    -0.184 N
HETATM    7  N2  UNL     1      29.529 -13.606  16.617  1.00  0.00    -0.288 N
HETATM    8  C2  UNL     1      29.305 -14.844  17.041  1.00  0.00     0.158 A
ATOM      9  H2  UNL     1      30.397 -13.270  16.202  1.00  0.00     0.188 HD
HETATM   10  C1  UNL     1      28.020 -14.886  17.530  1.00  0.00     0.132 A
HETATM   11  N7  UNL     1      27.516 -13.624  17.372  1.00  0.00    -0.264 N
ATOM     12  H7  UNL     1      26.581 -13.316  17.638  1.00  0.00     0.190 HD
BRANCH  10  13
HETATM   13  N1  UNL     1      27.434 -15.929  18.036  1.00  0.00    -0.383 N
ATOM     14  H12 UNL     1      27.824 -16.627  18.668  1.00  0.00     0.157 HD
ATOM     15  H11 UNL     1      26.469 -16.211  17.867  1.00  0.00     0.157 HD
ENDBRANCH  10  13
ENDBRANCH   1   6
BRANCH   4  16
HETATM   16  C5  UNL     1      26.870  -9.688  13.822  1.00  0.00     0.106 C
BRANCH  16  17
HETATM   17  N6  UNL     1      26.627  -8.352  13.536  1.00  0.00    -0.397 N
ATOM     18  H6  UNL     1      27.097  -7.933  12.734  1.00  0.00     0.158 HD
BRANCH  17  19
HETATM   19  C6  UNL     1      25.765  -7.550  14.303  1.00  0.00     0.145 C
BRANCH  19  20
HETATM   20  C7  UNL     1      24.337  -8.132  14.303  1.00  0.00     0.183 C
BRANCH  20  21
HETATM   21  O1  UNL     1      23.852  -8.001  12.999  1.00  0.00    -0.399 OA
ATOM     22  H1  UNL     1      22.904  -7.974  13.064  1.00  0.00     0.209 HD
ENDBRANCH  20  21
ENDBRANCH  19  20
ENDBRANCH  17  19
ENDBRANCH  16  17
ENDBRANCH   4  16
TORSDOF 7
ENDMDL