MODEL 4
REMARK VINA RESULT: -5.198197372      2.200      4.201
REMARK  5 active torsions:
REMARK  status: ('A' for Active; 'I' for Inactive)
REMARK    1  A    between atoms: N1_1  and  C1_4
REMARK    2  A    between atoms: N5_15  and  C5_16
REMARK    3  A    between atoms: C5_16  and  C6_17
REMARK    4  A    between atoms: C6_17  and  N6_18
REMARK    5  A    between atoms: N6_18  and  N7_19
REMARK       I    between atoms: N6_18  and  C7_22
REMARK       I    between atoms: C7_22  and  N8_23
REMARK       I    between atoms: C7_22  and  N9_27
ROOT
HETATM    1  C1  UNL     1      24.674  -9.545  14.933  1.00  0.00     0.679 A
HETATM    2  N2  UNL     1      25.165  -8.667  14.035  1.00  0.00    -0.175 N
ATOM      3  H2  UNL     1      24.539  -8.029  13.543  1.00  0.00     0.186 HD
HETATM    4  C2  UNL     1      26.484  -8.640  13.793  1.00  0.00     0.145 A
HETATM    5  N3  UNL     1      26.995  -7.818  12.942  1.00  0.00    -0.383 N
ATOM      6  H31 UNL     1      27.998  -7.798  12.758  1.00  0.00     0.157 HD
ATOM      7  H32 UNL     1      26.358  -7.185  12.458  1.00  0.00     0.157 HD
HETATM    8  C3  UNL     1      27.343  -9.496  14.446  1.00  0.00     0.123 A
HETATM    9  N4  UNL     1      28.664  -9.727  14.443  1.00  0.00    -0.346 N
ATOM     10  H4  UNL     1      29.353  -9.237  13.873  1.00  0.00     0.167 HD
HETATM   11  C4  UNL     1      28.928 -10.714  15.318  1.00  0.00     0.185 A
HETATM   12  N5  UNL     1      27.800 -11.140  15.900  1.00  0.00    -0.325 N
HETATM   13  C8  UNL     1      26.805 -10.379  15.356  1.00  0.00     0.155 A
HETATM   14  N10 UNL     1      25.482 -10.382  15.578  1.00  0.00    -0.174 N
ATOM     15  H10 UNL     1      25.089 -11.036  16.254  1.00  0.00     0.186 HD
ENDROOT
BRANCH  12  16
HETATM   16  C5  UNL     1      27.586 -12.171  16.896  1.00  0.00     0.153 C
BRANCH  16  17
HETATM   17  C6  UNL     1      28.697 -13.230  16.824  1.00  0.00     0.166 C
BRANCH  17  18
HETATM   18  N6  UNL     1      28.143 -14.457  17.259  1.00  0.00    -0.280 N
HETATM   19  C7  UNL     1      29.033 -15.543  17.421  1.00  0.00     0.496 C
HETATM   20  N8  UNL     1      30.059 -15.228  18.406  1.00  0.00    -0.032 N
HETATM   21  N9  UNL     1      29.717 -15.913  16.178  1.00  0.00    -0.032 N
ATOM     22  H83 UNL     1      30.553 -14.366  18.174  1.00  0.00     0.279 HD
ATOM     23  H82 UNL     1      29.652 -14.937  19.295  1.00  0.00     0.279 HD
ATOM     24  H81 UNL     1      30.701 -16.011  18.523  1.00  0.00     0.279 HD
ATOM     25  H93 UNL     1      29.044 -16.102  15.434  1.00  0.00     0.279 HD
ATOM     26  H92 UNL     1      30.194 -15.109  15.771  1.00  0.00     0.279 HD
ATOM     27  H91 UNL     1      30.359 -16.697  16.295  1.00  0.00     0.279 HD
BRANCH  18  28
HETATM   28  N7  UNL     1      27.072 -14.387  18.094  1.00  0.00    -0.344 N
ATOM     29  H72 UNL     1      26.307 -15.044  17.941  1.00  0.00     0.176 HD
ATOM     30  H71 UNL     1      27.254 -14.104  19.057  1.00  0.00     0.176 HD
ENDBRANCH  18  28
ENDBRANCH  17  18
ENDBRANCH  16  17
ENDBRANCH  12  16
BRANCH   1  31
HETATM   31  N1  UNL     1      23.411  -9.571  15.167  1.00  0.00    -0.234 N
ATOM     32  H12 UNL     1      22.773  -9.059  14.558  1.00  0.00     0.174 HD
ATOM     33  H11 UNL     1      23.058 -10.106  15.961  1.00  0.00     0.174 HD
ENDBRANCH   1  31
TORSDOF 5
ENDMDL