MODEL 5
REMARK VINA RESULT: -4.871728489      1.177      2.848
REMARK  6 active torsions:
REMARK  status: ('A' for Active; 'I' for Inactive)
REMARK    1  A    between atoms: N1_1  and  C1_4
REMARK    2  A    between atoms: N6_17  and  N7_18
REMARK    3  A    between atoms: N7_18  and  C5_20
REMARK    4  A    between atoms: C5_20  and  C6_21
REMARK    5  A    between atoms: C6_21  and  C7_22
REMARK    6  A    between atoms: C7_22  and  O1_23
ROOT
HETATM    1  C1  UNL     1      26.234  -8.027  14.466  1.00  0.00     0.133 A
HETATM    2  N2  UNL     1      25.961  -6.752  14.100  1.00  0.00    -0.337 N
ATOM      3  H2  UNL     1      26.713  -6.105  13.865  1.00  0.00     0.168 HD
HETATM    4  C2  UNL     1      24.687  -6.361  14.054  1.00  0.00     0.183 A
HETATM    5  N3  UNL     1      23.691  -7.205  14.362  1.00  0.00    -0.336 N
ATOM      6  H3  UNL     1      22.729  -6.867  14.316  1.00  0.00     0.168 HD
HETATM    7  C3  UNL     1      23.910  -8.480  14.731  1.00  0.00     0.155 A
HETATM    8  N4  UNL     1      23.088  -9.474  15.075  1.00  0.00    -0.173 N
ATOM      9  H4  UNL     1      22.070  -9.434  15.120  1.00  0.00     0.186 HD
HETATM   10  C4  UNL     1      23.849 -10.523  15.348  1.00  0.00     0.699 A
HETATM   11  N5  UNL     1      23.351 -11.656  15.716  1.00  0.00    -0.233 N
ATOM     12  H51 UNL     1      23.937 -12.463  15.926  1.00  0.00     0.174 HD
ATOM     13  H52 UNL     1      22.367 -11.892  15.843  1.00  0.00     0.174 HD
HETATM   14  N6  UNL     1      25.191 -10.199  15.175  1.00  0.00    -0.084 N
HETATM   15  C8  UNL     1      25.230  -8.915  14.788  1.00  0.00     0.162 A
ENDROOT
BRANCH  14  16
HETATM   16  N7  UNL     1      26.179 -11.112  15.396  1.00  0.00    -0.315 N
ATOM     17  H7  UNL     1      26.119 -11.870  14.717  1.00  0.00     0.181 HD
BRANCH  16  18
HETATM   18  C5  UNL     1      27.255 -11.328  16.273  1.00  0.00     0.142 C
BRANCH  18  19
HETATM   19  C6  UNL     1      28.468 -11.958  15.483  1.00  0.00     0.047 C
BRANCH  19  20
HETATM   20  C7  UNL     1      29.469 -12.350  16.546  1.00  0.00     0.165 C
BRANCH  20  21
HETATM   21  O1  UNL     1      30.568 -11.502  16.469  1.00  0.00    -0.401 OA
ATOM     22  H1  UNL     1      30.264 -10.610  16.346  1.00  0.00     0.209 HD
ENDBRANCH  20  21
ENDBRANCH  19  20
ENDBRANCH  18  19
ENDBRANCH  16  18
ENDBRANCH  14  16
BRANCH   1  23
HETATM   23  N1  UNL     1      27.442  -8.370  14.505  1.00  0.00    -0.383 N
ATOM     24  H12 UNL     1      27.996  -8.255  15.353  1.00  0.00     0.157 HD
ATOM     25  H11 UNL     1      27.845  -8.763  13.654  1.00  0.00     0.157 HD
ENDBRANCH   1  23
TORSDOF 6
ENDMDL