MODEL 1
REMARK VINA RESULT: -6.148724225      0.000      0.000
REMARK  8 active torsions:
REMARK  status: ('A' for Active; 'I' for Inactive)
REMARK    1  A    between atoms: N1_1  and  C1_4
REMARK    2  A    between atoms: C2_7  and  C3_8
REMARK    3  A    between atoms: C3_8  and  N3_9
REMARK    4  A    between atoms: N5_15  and  C4_16
REMARK    5  A    between atoms: C5_17  and  O1_18
REMARK    6  A    between atoms: C7_21  and  C8_22
REMARK    7  A    between atoms: C8_22  and  N6_23
REMARK    8  A    between atoms: N6_23  and  N7_24
ROOT
HETATM    1  C1  UNL     1      27.064  -9.182  14.001  1.00  0.00     0.694 A
HETATM    2  N2  UNL     1      27.929 -10.291  14.200  1.00  0.00    -0.176 N
ATOM      3  H2  UNL     1      28.484 -10.764  13.486  1.00  0.00     0.185 HD
HETATM    4  C2  UNL     1      27.879 -10.597  15.497  1.00  0.00     0.138 A
HETATM    5  N4  UNL     1      27.024  -9.682  16.065  1.00  0.00    -0.270 N
ATOM      6  H4  UNL     1      26.790  -9.610  17.054  1.00  0.00     0.189 HD
HETATM    7  N5  UNL     1      26.569  -8.927  15.116  1.00  0.00    -0.115 N
ENDROOT
BRANCH   7   8
HETATM    8  C4  UNL     1      25.537  -7.967  15.315  1.00  0.00     0.160 C
HETATM    9  C5  UNL     1      24.837  -7.243  14.203  1.00  0.00     0.144 C
HETATM   10  C6  UNL     1      23.608  -7.246  15.069  1.00  0.00     0.042 C
HETATM   11  C7  UNL     1      24.163  -8.530  15.746  1.00  0.00     0.032 C
BRANCH   9  12
HETATM   12  O1  UNL     1      25.307  -5.987  13.863  1.00  0.00    -0.393 OA
ATOM     13  H1  UNL     1      25.613  -5.427  14.567  1.00  0.00     0.210 HD
ENDBRANCH   9  12
BRANCH  11  14
HETATM   14  C8  UNL     1      23.692  -9.709  15.006  1.00  0.00     0.141 C
BRANCH  14  15
HETATM   15  N6  UNL     1      22.859 -10.438  15.981  1.00  0.00    -0.148 NA
BRANCH  15  16
HETATM   16  N7  UNL     1      22.640 -11.703  15.400  1.00  0.00    -0.348 N
ATOM     17  H72 UNL     1      22.145 -12.490  15.819  1.00  0.00     0.172 HD
ATOM     18  H71 UNL     1      23.082 -11.651  14.482  1.00  0.00     0.172 HD
ENDBRANCH  15  16
ENDBRANCH  14  15
ENDBRANCH  11  14
ENDBRANCH   7   8
BRANCH   1  19
HETATM   19  N1  UNL     1      26.823  -8.811  12.716  1.00  0.00    -0.233 N
ATOM     20  H12 UNL     1      27.283  -8.943  11.815  1.00  0.00     0.174 HD
ATOM     21  H11 UNL     1      26.110  -8.098  12.566  1.00  0.00     0.174 HD
ENDBRANCH   1  19
BRANCH   4  22
HETATM   22  C3  UNL     1      28.513 -11.830  16.100  1.00  0.00     0.307 C
BRANCH  22  23
HETATM   23  N3  UNL     1      27.703 -12.397  17.105  1.00  0.00    -0.073 N
ATOM     24  H33 UNL     1      28.177 -12.399  18.008  1.00  0.00     0.274 HD
ATOM     25  H32 UNL     1      26.918 -11.788  17.338  1.00  0.00     0.274 HD
ATOM     26  H31 UNL     1      27.384 -13.332  16.852  1.00  0.00     0.274 HD
ENDBRANCH  22  23
ENDBRANCH   4  22
TORSDOF 8
ENDMDL