MODEL 1
REMARK VINA RESULT: -6.093012662      0.000      0.000
REMARK  8 active torsions:
REMARK  status: ('A' for Active; 'I' for Inactive)
REMARK    1  A    between atoms: N1_2  and  N2_3
REMARK    2  A    between atoms: N1_2  and  C2_6
REMARK    3  A    between atoms: C2_6  and  C3_7
REMARK    4  A    between atoms: C3_7  and  O1_8
REMARK    5  A    between atoms: O1_8  and  C4_9
REMARK    6  A    between atoms: C4_9  and  C5_10
REMARK    7  A    between atoms: C6_13  and  N4_14
REMARK    8  A    between atoms: C7_19  and  N6_20
ROOT
HETATM    1  C5  UNL     1      24.367  -9.001  14.753  1.00  0.00     0.137 A
HETATM    2  N3  UNL     1      23.994 -10.321  14.762  1.00  0.00    -0.178 N
ATOM      3  H3  UNL     1      24.538 -10.988  14.213  1.00  0.00     0.185 HD
HETATM    4  C6  UNL     1      22.946 -10.768  15.461  1.00  0.00     0.691 A
HETATM    5  N5  UNL     1      22.216  -9.888  16.193  1.00  0.00    -0.023 N
ATOM      6  H5  UNL     1      21.412 -10.204  16.735  1.00  0.00     0.203 HD
HETATM    7  C7  UNL     1      22.573  -8.589  16.189  1.00  0.00     0.691 A
HETATM    8  N7  UNL     1      23.641  -8.149  15.476  1.00  0.00    -0.178 N
ATOM      9  H7  UNL     1      23.890  -7.159  15.493  1.00  0.00     0.185 HD
ENDROOT
BRANCH   1  10
HETATM   10  C4  UNL     1      25.524  -8.688  13.927  1.00  0.00     0.245 C
BRANCH  10  11
HETATM   11  O1  UNL     1      26.357  -9.772  13.620  1.00  0.00    -0.383 OA
BRANCH  11  12
HETATM   12  C3  UNL     1      27.496  -9.561  14.403  1.00  0.00     0.184 C
BRANCH  12  13
HETATM   13  C2  UNL     1      27.489 -10.169  15.753  1.00  0.00     0.138 C
BRANCH  13  14
HETATM   14  N1  UNL     1      27.350 -11.618  15.747  1.00  0.00    -0.240 NA
HETATM   15  C1  UNL     1      27.864 -12.187  16.992  1.00  0.00     0.135 C
BRANCH  14  16
HETATM   16  N2  UNL     1      28.223 -12.029  14.683  1.00  0.00    -0.364 NA
ATOM     17  H22 UNL     1      29.071 -12.316  15.172  1.00  0.00     0.171 HD
ATOM     18  H21 UNL     1      27.792 -12.828  14.217  1.00  0.00     0.171 HD
ENDBRANCH  14  16
ENDBRANCH  13  14
ENDBRANCH  12  13
ENDBRANCH  11  12
ENDBRANCH  10  11
ENDBRANCH   1  10
BRANCH   4  19
HETATM   19  N4  UNL     1      22.594 -12.009  15.476  1.00  0.00    -0.234 N
ATOM     20  H42 UNL     1      21.997 -12.348  14.721  1.00  0.00     0.174 HD
ATOM     21  H41 UNL     1      22.886 -12.657  16.207  1.00  0.00     0.174 HD
ENDBRANCH   4  19
BRANCH   7  22
HETATM   22  N6  UNL     1      21.880  -7.745  16.869  1.00  0.00    -0.234 N
ATOM     23  H62 UNL     1      20.884  -7.917  17.012  1.00  0.00     0.174 HD
ATOM     24  H61 UNL     1      22.340  -6.923  17.261  1.00  0.00     0.174 HD
ENDBRANCH   7  22
TORSDOF 8
ENDMDL