MODEL 5
REMARK VINA RESULT: -4.774881975      3.489      5.300
REMARK  7 active torsions:
REMARK  status: ('A' for Active; 'I' for Inactive)
REMARK    1  A    between atoms: N1_2  and  C3_4
REMARK    2  A    between atoms: C4_7  and  N3_8
REMARK    3  A    between atoms: N5_14  and  N6_16
REMARK    4  A    between atoms: N6_16  and  C6_18
REMARK    5  A    between atoms: C6_18  and  C7_19
REMARK    6  A    between atoms: C7_19  and  N7_20
REMARK    7  A    between atoms: N7_20  and  N8_21
ROOT
HETATM    1  C3  UNL     1      24.797  -9.591  15.113  1.00  0.00     0.708 A
HETATM    2  N2  UNL     1      25.208  -9.062  13.954  1.00  0.00    -0.022 N
ATOM      3  H2  UNL     1      24.559  -8.495  13.408  1.00  0.00     0.203 HD
HETATM    4  C4  UNL     1      26.444  -9.259  13.496  1.00  0.00     0.705 A
HETATM    5  N4  UNL     1      27.309 -10.016  14.223  1.00  0.00    -0.020 N
ATOM      6  H4  UNL     1      28.254 -10.167  13.871  1.00  0.00     0.203 HD
HETATM    7  C5  UNL     1      26.949 -10.567  15.391  1.00  0.00     0.725 A
HETATM    8  N5  UNL     1      27.741 -11.260  16.113  1.00  0.00    -0.135 N
ATOM      9  H5  UNL     1      27.353 -11.629  16.981  1.00  0.00     0.205 HD
HETATM   10  N9  UNL     1      25.670 -10.332  15.813  1.00  0.00    -0.020 N
ATOM     11  H9  UNL     1      25.366 -10.739  16.698  1.00  0.00     0.203 HD
ENDROOT
BRANCH   8  12
HETATM   12  N6  UNL     1      29.059 -11.567  15.855  1.00  0.00    -0.321 N
ATOM     13  H6  UNL     1      29.543 -11.093  15.094  1.00  0.00     0.180 HD
BRANCH  12  14
HETATM   14  C6  UNL     1      29.780 -12.564  16.655  1.00  0.00     0.157 C
BRANCH  14  15
HETATM   15  C7  UNL     1      29.374 -13.960  16.206  1.00  0.00     0.155 C
BRANCH  15  16
HETATM   16  N7  UNL     1      27.976 -14.148  16.467  1.00  0.00    -0.147 NA
BRANCH  16  17
HETATM   17  N8  UNL     1      27.685 -15.176  17.335  1.00  0.00    -0.348 N
ATOM     18  H82 UNL     1      27.466 -15.004  18.316  1.00  0.00     0.172 HD
ATOM     19  H81 UNL     1      27.708 -16.106  16.918  1.00  0.00     0.172 HD
ENDBRANCH  16  17
ENDBRANCH  15  16
ENDBRANCH  14  15
ENDBRANCH  12  14
ENDBRANCH   8  12
BRANCH   4  20
HETATM   20  N3  UNL     1      26.880  -8.740  12.377  1.00  0.00    -0.234 N
ATOM     21  H32 UNL     1      26.808  -7.729  12.262  1.00  0.00     0.174 HD
ATOM     22  H31 UNL     1      27.269  -9.302  11.620  1.00  0.00     0.174 HD
ENDBRANCH   4  20
BRANCH   1  23
HETATM   23  N1  UNL     1      23.454  -9.384  15.616  1.00  0.00    -0.225 N
HETATM   24  C1  UNL     1      23.144  -8.037  16.035  1.00  0.00     0.168 C
HETATM   25  C2  UNL     1      22.586 -10.510  15.650  1.00  0.00     0.168 C
ENDBRANCH   1  23
TORSDOF 7
ENDMDL