MODEL 3
REMARK VINA RESULT: -6.150395536      1.242      4.787
REMARK  7 active torsions:
REMARK  status: ('A' for Active; 'I' for Inactive)
REMARK    1  A    between atoms: N1_1  and  C1_4
REMARK    2  A    between atoms: C2_9  and  C3_10
REMARK    3  A    between atoms: C3_10  and  N4_11
REMARK    4  A    between atoms: N4_11  and  C4_14
REMARK    5  A    between atoms: C4_14  and  C5_15
REMARK    6  A    between atoms: C4_14  and  C6_20
REMARK    7  A    between atoms: C5_15  and  N5_16
ROOT
HETATM    1  N4  UNL     1      26.047  -7.641  13.994  1.00  0.00    -0.056 N
ATOM      2  H41 UNL     1      26.439  -7.086  13.234  1.00  0.00     0.278 HD
ATOM      3  H42 UNL     1      25.886  -8.517  13.496  1.00  0.00     0.278 HD
ENDROOT
BRANCH   1   4
HETATM    4  C3  UNL     1      24.805  -7.076  14.457  1.00  0.00     0.311 C
BRANCH   4   5
HETATM    5  C2  UNL     1      23.915  -8.085  15.067  1.00  0.00     0.138 A
HETATM    6  N3  UNL     1      22.962  -7.884  15.996  1.00  0.00    -0.273 N
HETATM    7  N2  UNL     1      22.348  -8.998  16.326  1.00  0.00    -0.131 N
ATOM      8  H3  UNL     1      22.742  -6.973  16.396  1.00  0.00     0.189 HD
HETATM    9  C1  UNL     1      22.928  -9.975  15.576  1.00  0.00     0.691 A
ATOM     10  H2  UNL     1      21.594  -9.108  17.004  1.00  0.00     0.205 HD
HETATM   11  N10 UNL     1      23.882  -9.407  14.812  1.00  0.00    -0.177 N
ATOM     12  H10 UNL     1      24.482  -9.898  14.149  1.00  0.00     0.185 HD
BRANCH   9  13
HETATM   13  N1  UNL     1      22.621 -11.221  15.595  1.00  0.00    -0.233 N
ATOM     14  H12 UNL     1      21.676 -11.606  15.583  1.00  0.00     0.174 HD
ATOM     15  H11 UNL     1      23.279 -12.000  15.622  1.00  0.00     0.174 HD
ENDBRANCH   9  13
ENDBRANCH   4   5
ENDBRANCH   1   4
BRANCH   1  16
HETATM   16  C4  UNL     1      27.002  -7.817  15.046  1.00  0.00     0.281 C
BRANCH  16  17
HETATM   17  C5  UNL     1      26.598  -7.246  16.362  1.00  0.00     0.270 C
BRANCH  17  18
HETATM   18  N5  UNL     1      27.699  -6.604  17.060  1.00  0.00    -0.077 N
ATOM     19  H53 UNL     1      28.368  -7.294  17.399  1.00  0.00     0.274 HD
ATOM     20  H52 UNL     1      28.298  -6.097  16.408  1.00  0.00     0.274 HD
ATOM     21  H51 UNL     1      27.386  -5.996  17.817  1.00  0.00     0.274 HD
ENDBRANCH  17  18
ENDBRANCH  16  17
BRANCH  16  22
HETATM   22  C6  UNL     1      27.435  -9.229  15.188  1.00  0.00     0.146 A
HETATM   23  N6  UNL     1      28.167  -9.968  14.333  1.00  0.00    -0.270 N
HETATM   24  N7  UNL     1      28.293 -11.158  14.891  1.00  0.00    -0.227 N
ATOM     25  H6  UNL     1      28.548  -9.669  13.434  1.00  0.00     0.190 HD
HETATM   26  N8  UNL     1      27.675 -11.196  16.056  1.00  0.00    -0.227 N
ATOM     27  H7  UNL     1      28.800 -11.941  14.479  1.00  0.00     0.210 HD
HETATM   28  N9  UNL     1      27.146 -10.002  16.235  1.00  0.00    -0.270 N
ATOM     29  H8  UNL     1      27.617 -11.992  16.691  1.00  0.00     0.210 HD
ATOM     30  H9  UNL     1      26.601  -9.715  17.048  1.00  0.00     0.190 HD
ENDBRANCH  16  22
ENDBRANCH   1  16
TORSDOF 7
ENDMDL