MODEL 1
REMARK VINA RESULT: -6.212273886      0.000      0.000
REMARK  7 active torsions:
REMARK  status: ('A' for Active; 'I' for Inactive)
REMARK    1  A    between atoms: N1_1  and  C1_4
REMARK    2  A    between atoms: C2_7  and  N3_8
REMARK    3  A    between atoms: N6_16  and  C4_17
REMARK    4  A    between atoms: C4_17  and  O1_18
REMARK    5  A    between atoms: O1_18  and  C5_19
REMARK    6  A    between atoms: C5_19  and  C6_20
REMARK    7  A    between atoms: C6_20  and  N7_21
ROOT
HETATM    1  C1  UNL     1      23.812 -10.267  15.071  1.00  0.00     0.679 A
HETATM    2  N2  UNL     1      23.334  -9.106  14.541  1.00  0.00    -0.175 N
ATOM      3  H2  UNL     1      22.326  -8.947  14.524  1.00  0.00     0.186 HD
HETATM    4  C2  UNL     1      24.143  -8.172  14.044  1.00  0.00     0.147 A
HETATM    5  C3  UNL     1      25.527  -8.379  14.061  1.00  0.00     0.140 A
HETATM    6  N4  UNL     1      26.570  -7.638  13.644  1.00  0.00    -0.279 N
ATOM      7  H4  UNL     1      26.530  -6.719  13.204  1.00  0.00     0.189 HD
HETATM    8  N5  UNL     1      27.654  -8.340  13.918  1.00  0.00    -0.236 N
ATOM      9  H5  UNL     1      28.608  -8.038  13.718  1.00  0.00     0.208 HD
HETATM   10  N6  UNL     1      27.334  -9.480  14.486  1.00  0.00    -0.235 N
HETATM   11  C7  UNL     1      26.002  -9.552  14.598  1.00  0.00     0.173 A
HETATM   12  N8  UNL     1      25.141 -10.459  15.085  1.00  0.00    -0.173 N
ATOM     13  H8  UNL     1      25.509 -11.325  15.480  1.00  0.00     0.186 HD
ENDROOT
BRANCH  10  14
HETATM   14  C4  UNL     1      28.233 -10.559  14.951  1.00  0.00     0.319 C
BRANCH  14  15
HETATM   15  O1  UNL     1      28.207 -10.477  16.327  1.00  0.00    -0.369 OA
BRANCH  15  16
HETATM   16  C5  UNL     1      28.015 -11.683  16.957  1.00  0.00     0.197 C
BRANCH  16  17
HETATM   17  C6  UNL     1      28.584 -12.804  16.132  1.00  0.00     0.255 C
BRANCH  17  18
HETATM   18  N7  UNL     1      29.609 -13.462  16.918  1.00  0.00    -0.077 N
ATOM     19  H73 UNL     1      29.235 -13.921  17.749  1.00  0.00     0.274 HD
ATOM     20  H72 UNL     1      29.985 -14.292  16.461  1.00  0.00     0.274 HD
ATOM     21  H71 UNL     1      30.328 -12.772  17.138  1.00  0.00     0.274 HD
ENDBRANCH  17  18
ENDBRANCH  16  17
ENDBRANCH  15  16
ENDBRANCH  14  15
ENDBRANCH  10  14
BRANCH   4  22
HETATM   22  N3  UNL     1      23.702  -7.078  13.543  1.00  0.00    -0.383 N
ATOM     23  H32 UNL     1      22.695  -6.916  13.554  1.00  0.00     0.157 HD
ATOM     24  H31 UNL     1      24.321  -6.374  13.140  1.00  0.00     0.157 HD
ENDBRANCH   4  22
BRANCH   1  25
HETATM   25  N1  UNL     1      23.009 -11.153  15.545  1.00  0.00    -0.234 N
ATOM     26  H12 UNL     1      22.916 -12.068  15.104  1.00  0.00     0.174 HD
ATOM     27  H11 UNL     1      22.449 -10.958  16.374  1.00  0.00     0.174 HD
ENDBRANCH   1  25
TORSDOF 7
ENDMDL