MODEL 2
REMARK VINA RESULT: -7.468687262      1.619      2.024
REMARK  4 active torsions:
REMARK  status: ('A' for Active; 'I' for Inactive)
REMARK    1  A    between atoms: C1_4  and  C2_6
REMARK    2  A    between atoms: C3_9  and  C4_10
REMARK    3  A    between atoms: C4_10  and  N4_11
REMARK    4  A    between atoms: N4_11  and  C5_14
ROOT
HETATM    1  C2  UNL     1      28.253 -11.278  15.802  1.00  0.00     0.212 A
HETATM    2  N3  UNL     1      28.444 -10.075  15.237  1.00  0.00    -0.319 N
ATOM      3  H3  UNL     1      29.350  -9.655  15.034  1.00  0.00     0.169 HD
HETATM    4  C3  UNL     1      27.252  -9.516  14.983  1.00  0.00     0.130 A
HETATM    5  N8  UNL     1      26.336 -10.405  15.406  1.00  0.00    -0.245 N
ATOM      6  H8  UNL     1      25.323 -10.288  15.357  1.00  0.00     0.196 HD
HETATM    7  O1  UNL     1      26.961 -11.436  15.885  1.00  0.00    -0.215 OA
ENDROOT
BRANCH   4   8
HETATM    8  C4  UNL     1      26.987  -8.172  14.358  1.00  0.00     0.312 C
BRANCH   8   9
HETATM    9  N4  UNL     1      25.840  -8.297  13.517  1.00  0.00    -0.048 N
ATOM     10  H42 UNL     1      26.092  -8.114  12.546  1.00  0.00     0.279 HD
ATOM     11  H41 UNL     1      25.560  -9.275  13.445  1.00  0.00     0.279 HD
BRANCH   9  12
HETATM   12  C5  UNL     1      24.723  -7.488  13.902  1.00  0.00     0.311 C
HETATM   13  C6  UNL     1      24.459  -7.432  15.361  1.00  0.00     0.183 C
HETATM   14  N5  UNL     1      23.696  -8.609  15.619  1.00  0.00    -0.127 NA
HETATM   15  N6  UNL     1      23.444  -9.227  14.397  1.00  0.00    -0.038 NA
HETATM   16  N7  UNL     1      23.528  -8.188  13.435  1.00  0.00    -0.095 NA
ENDBRANCH   9  12
ENDBRANCH   8   9
ENDBRANCH   4   8
BRANCH   1  17
HETATM   17  C1  UNL     1      29.303 -12.211  16.232  1.00  0.00     0.163 C
HETATM   18  N1  UNL     1      28.985 -13.448  16.358  1.00  0.00    -0.384 N
ATOM     19  H12 UNL     1      29.715 -14.096  16.656  1.00  0.00     0.157 HD
ATOM     20  H11 UNL     1      28.042 -13.786  16.170  1.00  0.00     0.157 HD
HETATM   21  N2  UNL     1      30.609 -11.743  16.492  1.00  0.00    -0.079 NA
ENDBRANCH   1  17
TORSDOF 4
ENDMDL