MODEL 1
REMARK VINA RESULT: -5.445571453      0.000      0.000
REMARK  9 active torsions:
REMARK  status: ('A' for Active; 'I' for Inactive)
REMARK    1  A    between atoms: N1_1  and  C1_4
REMARK    2  A    between atoms: C2_7  and  N3_8
REMARK    3  A    between atoms: N4_11  and  C3_12
REMARK    4  A    between atoms: C4_14  and  N5_15
REMARK    5  A    between atoms: N6_19  and  C5_20
REMARK    6  A    between atoms: C5_20  and  C6_21
REMARK    7  A    between atoms: C6_21  and  C7_22
REMARK    8  A    between atoms: C7_22  and  C8_23
REMARK    9  A    between atoms: C8_23  and  N7_24
ROOT
HETATM    1  C1  UNL     1      24.863  -7.649  14.383  1.00  0.00     0.708 A
HETATM    2  N2  UNL     1      25.121  -8.137  13.134  1.00  0.00    -0.020 N
ATOM      3  H2  UNL     1      24.567  -7.993  12.289  1.00  0.00     0.203 HD
HETATM    4  C2  UNL     1      26.253  -8.844  13.248  1.00  0.00     0.710 A
HETATM    5  N4  UNL     1      26.703  -8.812  14.513  1.00  0.00    -0.073 N
HETATM    6  N6  UNL     1      25.846  -8.081  15.191  1.00  0.00    -0.104 N
ENDROOT
BRANCH   6   7
HETATM    7  C5  UNL     1      25.927  -7.795  16.591  1.00  0.00     0.169 C
BRANCH   7   8
HETATM    8  C6  UNL     1      27.097  -6.977  17.016  1.00  0.00     0.024 C
BRANCH   8   9
HETATM    9  C7  UNL     1      26.761  -5.628  17.595  1.00  0.00     0.029 C
BRANCH   9  10
HETATM   10  C8  UNL     1      28.097  -5.047  18.088  1.00  0.00     0.229 C
BRANCH  10  11
HETATM   11  N7  UNL     1      27.804  -3.733  18.636  1.00  0.00    -0.079 N
ATOM     12  H73 UNL     1      27.536  -3.051  17.927  1.00  0.00     0.274 HD
ATOM     13  H72 UNL     1      26.938  -3.705  19.174  1.00  0.00     0.274 HD
ATOM     14  H71 UNL     1      28.622  -3.451  19.176  1.00  0.00     0.274 HD
ENDBRANCH  10  11
ENDBRANCH   9  10
ENDBRANCH   8   9
ENDBRANCH   7   8
ENDBRANCH   6   7
BRANCH   1  15
HETATM   15  N1  UNL     1      23.830  -6.910  14.604  1.00  0.00    -0.233 N
ATOM     16  H12 UNL     1      22.839  -7.048  14.403  1.00  0.00     0.174 HD
ATOM     17  H11 UNL     1      23.924  -6.007  15.066  1.00  0.00     0.174 HD
ENDBRANCH   1  15
BRANCH   5  18
HETATM   18  C3  UNL     1      27.909  -9.497  14.917  1.00  0.00     0.322 A
HETATM   19  O1  UNL     1      28.357 -10.627  14.288  1.00  0.00    -0.324 OA
HETATM   20  C4  UNL     1      27.734 -10.832  15.515  1.00  0.00     0.372 A
BRANCH  20  21
HETATM   21  N5  UNL     1      28.557 -11.300  16.605  1.00  0.00    -0.048 N
ATOM     22  H53 UNL     1      29.147 -12.051  16.247  1.00  0.00     0.277 HD
ATOM     23  H52 UNL     1      29.240 -10.571  16.812  1.00  0.00     0.277 HD
ATOM     24  H51 UNL     1      28.159 -11.613  17.490  1.00  0.00     0.277 HD
ENDBRANCH  20  21
ENDBRANCH   5  18
BRANCH   4  25
HETATM   25  N3  UNL     1      26.808  -9.462  12.244  1.00  0.00    -0.233 N
ATOM     26  H32 UNL     1      26.887  -9.116  11.288  1.00  0.00     0.174 HD
ATOM     27  H31 UNL     1      27.230 -10.387  12.326  1.00  0.00     0.174 HD
ENDBRANCH   4  25
TORSDOF 9
ENDMDL