MODEL 3
REMARK VINA RESULT: -5.361664931      2.155      2.628
REMARK  9 active torsions:
REMARK  status: ('A' for Active; 'I' for Inactive)
REMARK    1  A    between atoms: N1_1  and  C1_4
REMARK    2  A    between atoms: C2_7  and  S1_8
REMARK    3  A    between atoms: S1_8  and  C3_9
REMARK    4  A    between atoms: C3_9  and  C4_10
REMARK    5  A    between atoms: C4_10  and  O1_11
REMARK    6  A    between atoms: O1_11  and  N3_12
REMARK    7  A    between atoms: N3_12  and  N4_13
REMARK    8  A    between atoms: N3_12  and  N5_16
REMARK    9  A    between atoms: C5_21  and  N7_22
ROOT
HETATM    1  C1  UNL     1      22.594  -8.554  16.173  1.00  0.00     0.692 A
HETATM    2  N2  UNL     1      23.686  -8.110  15.518  1.00  0.00    -0.170 N
ATOM      3  H2  UNL     1      23.918  -7.117  15.553  1.00  0.00     0.186 HD
HETATM    4  C2  UNL     1      24.470  -8.940  14.826  1.00  0.00     0.174 A
HETATM    5  N6  UNL     1      24.146 -10.238  14.793  1.00  0.00    -0.170 N
ATOM      6  H6  UNL     1      24.730 -10.889  14.269  1.00  0.00     0.186 HD
HETATM    7  C5  UNL     1      23.070 -10.690  15.436  1.00  0.00     0.692 A
HETATM    8  N8  UNL     1      22.287  -9.844  16.131  1.00  0.00    -0.023 N
ATOM      9  H8  UNL     1      21.464 -10.193  16.622  1.00  0.00     0.203 HD
ENDROOT
BRANCH   4  10
HETATM   10  S1  UNL     1      25.902  -8.340  13.971  1.00  0.00    -0.091 SA
BRANCH  10  11
HETATM   11  C3  UNL     1      27.381  -8.754  14.929  1.00  0.00     0.111 C
BRANCH  11  12
HETATM   12  C4  UNL     1      27.151  -8.456  16.405  1.00  0.00     0.216 C
BRANCH  12  13
HETATM   13  O1  UNL     1      27.979  -7.432  16.844  1.00  0.00    -0.244 OA
BRANCH  13  14
HETATM   14  N3  UNL     1      27.348  -6.307  17.134  1.00  0.00    -0.106 N
BRANCH  14  15
HETATM   15  N4  UNL     1      25.980  -6.391  17.240  1.00  0.00    -0.304 N
ATOM     16  H42 UNL     1      25.581  -7.314  17.067  1.00  0.00     0.180 HD
ATOM     17  H41 UNL     1      25.452  -5.605  16.862  1.00  0.00     0.180 HD
ENDBRANCH  14  15
BRANCH  14  18
HETATM   18  N5  UNL     1      27.966  -5.502  18.061  1.00  0.00    -0.304 N
ATOM     19  H52 UNL     1      27.635  -5.599  19.020  1.00  0.00     0.180 HD
ATOM     20  H51 UNL     1      28.974  -5.390  17.945  1.00  0.00     0.180 HD
ENDBRANCH  14  18
ENDBRANCH  13  14
ENDBRANCH  12  13
ENDBRANCH  11  12
ENDBRANCH  10  11
ENDBRANCH   4  10
BRANCH   1  21
HETATM   21  N1  UNL     1      21.857  -7.738  16.831  1.00  0.00    -0.234 N
ATOM     22  H12 UNL     1      21.868  -6.742  16.607  1.00  0.00     0.174 HD
ATOM     23  H11 UNL     1      21.257  -8.076  17.583  1.00  0.00     0.174 HD
ENDBRANCH   1  21
BRANCH   7  24
HETATM   24  N7  UNL     1      22.745 -11.939  15.414  1.00  0.00    -0.234 N
ATOM     25  H72 UNL     1      23.395 -12.611  15.822  1.00  0.00     0.174 HD
ATOM     26  H71 UNL     1      21.867 -12.255  15.003  1.00  0.00     0.174 HD
ENDBRANCH   7  24
TORSDOF 9
ENDMDL