MODEL 5
REMARK VINA RESULT: -8.383183788      3.529      5.614
REMARK  16 active torsions:
REMARK  status: ('A' for Active; 'I' for Inactive)
REMARK    1  A    between atoms: C2_2  and  O1_4
REMARK    2  A    between atoms: C2_2  and  C4_6
REMARK    3  A    between atoms: C4_6  and  O2_7
REMARK    4  A    between atoms: C7_13  and  N2_14
REMARK    5  A    between atoms: N2_14  and  N3_16
REMARK    6  A    between atoms: N3_16  and  C8_18
REMARK    7  A    between atoms: C8_18  and  C9_19
REMARK    8  A    between atoms: C8_18  and  C11_25
REMARK    9  A    between atoms: C9_19  and  O3_20
REMARK   10  A    between atoms: C9_19  and  C10_22
REMARK   11  A    between atoms: C10_22  and  O4_23
REMARK   12  A    between atoms: C11_25  and  O5_26
REMARK   13  A    between atoms: C11_25  and  C12_28
REMARK   14  A    between atoms: C12_28  and  N4_29
REMARK   15  A    between atoms: C14_35  and  C15_36
REMARK   16  A    between atoms: C17_39  and  N7_40
ROOT
HETATM    1  C8  UNL     1     -20.450  24.618   1.896  1.00  0.00     0.160 C
ENDROOT
BRANCH   1   2
HETATM    2  N3  UNL     1     -20.154  23.368   1.279  1.00  0.00    -0.324 N
ATOM      3  H3  UNL     1     -20.173  23.248   0.267  1.00  0.00     0.180 HD
BRANCH   2   4
HETATM    4  N2  UNL     1     -19.840  22.331   2.126  1.00  0.00    -0.274 N
ATOM      5  H2  UNL     1     -20.315  21.433   2.042  1.00  0.00     0.189 HD
BRANCH   4   6
HETATM    6  C7  UNL     1     -18.845  22.529   3.121  1.00  0.00     0.218 C
HETATM    7  N1  UNL     1     -18.898  22.458   4.404  1.00  0.00    -0.302 N
HETATM    8  C6  UNL     1     -17.596  22.753   4.911  1.00  0.00     0.287 C
ATOM      9  H1  UNL     1     -19.723  22.232   4.960  1.00  0.00     0.168 HD
HETATM   10  C5  UNL     1     -17.141  21.843   6.018  1.00  0.00     0.168 C
HETATM   11  O6  UNL     1     -16.697  22.568   3.839  1.00  0.00    -0.215 OA
HETATM   12  O7  UNL     1     -17.456  24.132   5.286  1.00  0.00    -0.238 OA
HETATM   13  C4  UNL     1     -15.854  22.321   6.603  1.00  0.00     0.210 C
HETATM   14  O9  UNL     1     -15.296  23.436   5.941  1.00  0.00    -0.257 OA
HETATM   15  C18 UNL     1     -16.141  24.495   5.641  1.00  0.00     0.413 C
HETATM   16  O8  UNL     1     -15.779  25.710   5.676  1.00  0.00    -0.229 OA
HETATM   17  N9  UNL     1     -17.491  22.875   2.791  1.00  0.00    -0.230 N
ATOM     18  H9  UNL     1     -17.180  23.286   1.911  1.00  0.00     0.197 HD
BRANCH  13  19
HETATM   19  C2  UNL     1     -14.827  21.214   6.677  1.00  0.00     0.107 C
HETATM   20  C1  UNL     1     -13.709  21.568   7.628  1.00  0.00     0.051 C
HETATM   21  C3  UNL     1     -15.487  19.964   7.218  1.00  0.00     0.051 C
BRANCH  19  22
HETATM   22  O1  UNL     1     -14.324  20.978   5.405  1.00  0.00    -0.385 OA
ATOM     23  H1  UNL     1     -14.641  20.146   5.072  1.00  0.00     0.210 HD
ENDBRANCH  19  22
ENDBRANCH  13  19
BRANCH  13  24
HETATM   24  O2  UNL     1     -16.093  22.732   7.935  1.00  0.00    -0.362 OA
ATOM     25  H2  UNL     1     -16.077  21.944   8.465  1.00  0.00     0.213 HD
ENDBRANCH  13  24
ENDBRANCH   4   6
ENDBRANCH   2   4
ENDBRANCH   1   2
BRANCH   1  26
HETATM   26  C9  UNL     1     -19.752  25.785   1.245  1.00  0.00     0.168 C
BRANCH  26  27
HETATM   27  O3  UNL     1     -20.543  26.512   0.391  1.00  0.00    -0.391 OA
ATOM     28  H3  UNL     1     -20.495  26.237  -0.516  1.00  0.00     0.210 HD
ENDBRANCH  26  27
BRANCH  26  29
HETATM   29  C10 UNL     1     -18.557  25.295   0.451  1.00  0.00     0.198 C
BRANCH  29  30
HETATM   30  O4  UNL     1     -18.886  25.423  -0.901  1.00  0.00    -0.398 OA
ATOM     31  H4  UNL     1     -18.237  25.998  -1.291  1.00  0.00     0.209 HD
ENDBRANCH  29  30
ENDBRANCH  26  29
ENDBRANCH   1  26
BRANCH   1  32
HETATM   32  C11 UNL     1     -21.937  24.863   2.051  1.00  0.00     0.164 C
BRANCH  32  33
HETATM   33  O5  UNL     1     -22.690  24.522   0.974  1.00  0.00    -0.392 OA
ATOM     34  H5  UNL     1     -23.628  24.613   1.095  1.00  0.00     0.210 HD
ENDBRANCH  32  33
BRANCH  32  35
HETATM   35  C12 UNL     1     -22.452  24.368   3.378  1.00  0.00     0.184 C
BRANCH  35  36
HETATM   36  N4  UNL     1     -23.131  25.403   4.104  1.00  0.00    -0.272 N
HETATM   37  N5  UNL     1     -23.118  26.671   3.611  1.00  0.00    -0.240 N
HETATM   38  N6  UNL     1     -23.807  27.466   4.386  1.00  0.00    -0.295 N
ATOM     39  H5  UNL     1     -22.638  26.959   2.758  1.00  0.00     0.208 HD
HETATM   40  C13 UNL     1     -24.264  26.702   5.384  1.00  0.00     0.142 A
ATOM     41  H6  UNL     1     -23.965  28.465   4.256  1.00  0.00     0.187 HD
HETATM   42  C14 UNL     1     -23.837  25.373   5.215  1.00  0.00     0.096 A
BRANCH  42  43
HETATM   43  C15 UNL     1     -24.089  24.243   6.150  1.00  0.00     0.070 A
HETATM   44  C16 UNL     1     -24.983  23.246   5.922  1.00  0.00     0.085 A
HETATM   45  S1  UNL     1     -24.834  22.264   7.338  1.00  0.00    -0.064 SA
HETATM   46  C17 UNL     1     -23.656  23.178   8.125  1.00  0.00     0.142 A
HETATM   47  N8  UNL     1     -23.416  24.181   7.301  1.00  0.00    -0.335 N
ATOM     48  H8  UNL     1     -22.730  24.897   7.539  1.00  0.00     0.168 HD
BRANCH  46  49
HETATM   49  N7  UNL     1     -23.107  22.938   9.287  1.00  0.00    -0.380 N
ATOM     50  H72 UNL     1     -23.142  23.510  10.131  1.00  0.00     0.158 HD
ATOM     51  H71 UNL     1     -22.543  22.131   9.553  1.00  0.00     0.158 HD
ENDBRANCH  46  49
ENDBRANCH  42  43
ENDBRANCH  35  36
ENDBRANCH  32  35
ENDBRANCH   1  32
TORSDOF 16
ENDMDL