MODEL 3
REMARK VINA RESULT: -8.023903109      1.054      1.348
REMARK  15 active torsions:
REMARK  status: ('A' for Active; 'I' for Inactive)
REMARK    1  A    between atoms: C2_2  and  O2_4
REMARK    2  A    between atoms: O2_4  and  C3_5
REMARK    3  A    between atoms: C3_5  and  C4_6
REMARK    4  A    between atoms: C3_5  and  C6_15
REMARK    5  A    between atoms: C6_15  and  N5_16
REMARK    6  A    between atoms: C6_15  and  C19_48
REMARK    7  A    between atoms: N5_16  and  C7_18
REMARK    8  A    between atoms: C8_19  and  O3_20
REMARK    9  A    between atoms: C10_23  and  N6_24
REMARK   10  A    between atoms: N6_24  and  C11_26
REMARK   11  A    between atoms: C14_35  and  C15_36
REMARK   12  A    between atoms: C15_36  and  O5_37
REMARK   13  A    between atoms: C15_36  and  O6_39
REMARK   14  A    between atoms: C19_48  and  O9_49
REMARK   15  A    between atoms: C19_48  and  O10_51
ROOT
HETATM    1  C7  UNL     1     -19.539  24.457   1.586  1.00  0.00     0.132 C
HETATM    2  C8  UNL     1     -18.781  23.280   1.651  1.00  0.00     0.113 C
HETATM    3  C9  UNL     1     -18.293  22.582   0.538  1.00  0.00     0.069 A
HETATM    4  C10 UNL     1     -18.178  21.223   0.447  1.00  0.00     0.160 A
HETATM    5  O4  UNL     1     -17.640  20.999  -0.732  1.00  0.00    -0.291 OA
HETATM    6  C14 UNL     1     -17.401  22.088  -1.414  1.00  0.00     0.126 A
HETATM    7  C16 UNL     1     -17.809  23.141  -0.633  1.00  0.00     0.084 A
HETATM    8  C17 UNL     1     -17.776  24.465  -0.956  1.00  0.00     0.262 C
HETATM    9  O7  UNL     1     -16.940  24.799  -1.789  1.00  0.00    -0.267 OA
HETATM   10  N10 UNL     1     -18.558  25.476  -0.472  1.00  0.00    -0.288 N
ATOM     11  H10 UNL     1     -18.467  26.388  -0.919  1.00  0.00     0.172 HD
HETATM   12  C18 UNL     1     -19.458  25.373   0.566  1.00  0.00     0.277 C
HETATM   13  O8  UNL     1     -20.322  26.290   0.525  1.00  0.00    -0.266 OA
ENDROOT
BRANCH   1  14
HETATM   14  N5  UNL     1     -20.422  24.682   2.641  1.00  0.00    -0.371 N
ATOM     15  H5  UNL     1     -20.059  25.224   3.425  1.00  0.00     0.160 HD
BRANCH  14  16
HETATM   16  C6  UNL     1     -21.776  24.243   2.752  1.00  0.00     0.174 C
BRANCH  16  17
HETATM   17  C3  UNL     1     -22.046  23.558   4.046  1.00  0.00     0.229 C
BRANCH  17  18
HETATM   18  O2  UNL     1     -20.879  22.994   4.621  1.00  0.00    -0.306 OA
BRANCH  18  19
HETATM   19  C2  UNL     1     -20.604  21.643   4.664  1.00  0.00     0.255 C
HETATM   20  C1  UNL     1     -20.238  20.942   5.931  1.00  0.00     0.126 C
HETATM   21  O1  UNL     1     -20.667  20.988   3.584  1.00  0.00    -0.266 OA
ENDBRANCH  18  19
ENDBRANCH  17  18
BRANCH  17  22
HETATM   22  C4  UNL     1     -22.823  24.327   5.038  1.00  0.00     0.147 A
HETATM   23  N1  UNL     1     -23.072  25.670   4.968  1.00  0.00    -0.270 N
HETATM   24  N2  UNL     1     -23.797  26.047   5.990  1.00  0.00    -0.227 N
ATOM     25  H1  UNL     1     -22.742  26.287   4.227  1.00  0.00     0.190 HD
HETATM   26  N3  UNL     1     -24.016  24.978   6.707  1.00  0.00    -0.225 N
ATOM     27  H2  UNL     1     -24.125  26.992   6.188  1.00  0.00     0.210 HD
HETATM   28  N4  UNL     1     -23.443  23.924   6.162  1.00  0.00    -0.266 N
ATOM     29  H3  UNL     1     -24.558  24.961   7.571  1.00  0.00     0.210 HD
HETATM   30  C5  UNL     1     -23.476  22.563   6.668  1.00  0.00     0.181 C
ENDBRANCH  17  22
ENDBRANCH  16  17
BRANCH  16  31
HETATM   31  C19 UNL     1     -22.315  23.561   1.531  1.00  0.00     0.279 C
BRANCH  31  32
HETATM   32  O9  UNL     1     -22.918  24.573   0.743  1.00  0.00    -0.369 OA
ATOM     33  H9  UNL     1     -23.819  24.304   0.605  1.00  0.00     0.212 HD
ENDBRANCH  31  32
BRANCH  31  34
HETATM   34  O10 UNL     1     -23.365  22.725   1.899  1.00  0.00    -0.369 OA
ATOM     35  H10 UNL     1     -23.089  21.820   1.815  1.00  0.00     0.212 HD
ENDBRANCH  31  34
ENDBRANCH  16  31
ENDBRANCH  14  16
ENDBRANCH   1  14
BRANCH   2  36
HETATM   36  O3  UNL     1     -18.469  22.737   2.853  1.00  0.00    -0.357 OA
ATOM     37  H3  UNL     1     -17.565  22.704   3.141  1.00  0.00     0.217 HD
ENDBRANCH   2  36
BRANCH   4  38
HETATM   38  N6  UNL     1     -18.571  20.253   1.420  1.00  0.00    -0.347 N
ATOM     39  H6  UNL     1     -18.409  20.442   2.409  1.00  0.00     0.163 HD
BRANCH  38  40
HETATM   40  C11 UNL     1     -19.195  19.010   1.028  1.00  0.00     0.203 A
HETATM   41  C12 UNL     1     -18.178  18.092   0.383  1.00  0.00     0.169 A
HETATM   42  N7  UNL     1     -18.162  16.929   1.241  1.00  0.00    -0.361 N
HETATM   43  C13 UNL     1     -19.126  17.120   2.243  1.00  0.00     0.185 A
ATOM     44  H7  UNL     1     -17.557  16.114   1.136  1.00  0.00     0.162 HD
HETATM   45  N8  UNL     1     -19.451  16.169   3.276  1.00  0.00    -0.064 NA
HETATM   46  N9  UNL     1     -19.703  18.265   2.136  1.00  0.00    -0.342 N
ATOM     47  H9  UNL     1     -20.434  18.599   2.764  1.00  0.00     0.164 HD
ENDBRANCH  38  40
ENDBRANCH   4  38
BRANCH   6  48
HETATM   48  C15 UNL     1     -16.800  22.167  -2.784  1.00  0.00     0.314 C
BRANCH  48  49
HETATM   49  O5  UNL     1     -17.802  22.832  -3.555  1.00  0.00    -0.365 OA
ATOM     50  H5  UNL     1     -18.027  23.589  -3.028  1.00  0.00     0.213 HD
ENDBRANCH  48  49
BRANCH  48  51
HETATM   51  O6  UNL     1     -16.663  20.922  -3.379  1.00  0.00    -0.365 OA
ATOM     52  H6  UNL     1     -15.858  20.841  -3.876  1.00  0.00     0.213 HD
ENDBRANCH  48  51
ENDBRANCH   6  48
TORSDOF 15
ENDMDL