MODEL 5
REMARK VINA RESULT: -7.699533996      1.955      2.536
REMARK  15 active torsions:
REMARK  status: ('A' for Active; 'I' for Inactive)
REMARK    1  A    between atoms: N1_1  and  C1_4
REMARK       I    between atoms: N3_9  and  C3_10
REMARK    2  A    between atoms: C3_10  and  C4_12
REMARK    3  A    between atoms: C4_12  and  C5_13
REMARK    4  A    between atoms: C6_14  and  N4_15
REMARK    5  A    between atoms: N4_15  and  N5_17
REMARK    6  A    between atoms: N5_17  and  C7_18
REMARK    7  A    between atoms: C7_18  and  C8_19
REMARK    8  A    between atoms: C8_19  and  C9_20
REMARK    9  A    between atoms: C8_19  and  N8_30
REMARK   10  A    between atoms: C9_20  and  C10_21
REMARK   11  A    between atoms: C10_21  and  N6_22
REMARK   12  A    between atoms: C10_21  and  N7_26
REMARK   13  A    between atoms: N8_30  and  O3_32
REMARK   14  A    between atoms: C15_42  and  N11_43
REMARK   15  A    between atoms: C16_50  and  S1_51
ROOT
HETATM    1  C5  UNL     1     -17.177  22.028   4.976  1.00  0.00     0.068 A
HETATM    2  C6  UNL     1     -18.107  22.293   3.965  1.00  0.00     0.163 A
HETATM    3  N9  UNL     1     -19.308  21.853   4.425  1.00  0.00    -0.230 N
HETATM    4  N10 UNL     1     -19.156  21.348   5.634  1.00  0.00    -0.250 N
HETATM    5  C11 UNL     1     -17.860  21.439   6.001  1.00  0.00     0.272 A
HETATM    6  O4  UNL     1     -17.334  21.062   7.088  1.00  0.00    -0.266 OA
HETATM    7  C12 UNL     1     -20.420  20.855   6.185  1.00  0.00     0.158 C
HETATM    8  C13 UNL     1     -21.432  21.540   5.310  1.00  0.00     0.088 C
HETATM    9  C14 UNL     1     -20.703  21.745   4.038  1.00  0.00     0.207 C
HETATM   10  O5  UNL     1     -21.088  23.048   3.599  1.00  0.00    -0.302 OA
HETATM   11  C15 UNL     1     -22.307  22.726   3.002  1.00  0.00     0.525 C
HETATM   12  N12 UNL     1     -22.046  21.538   2.205  1.00  0.00     0.002 N
ATOM     13 1H12 UNL     1     -21.850  21.733   1.223  1.00  0.00     0.284 HD
ATOM     14 2H12 UNL     1     -22.870  20.957   2.045  1.00  0.00     0.284 HD
HETATM   15  C16 UNL     1     -20.954  20.845   2.907  1.00  0.00     0.390 C
ENDROOT
BRANCH   2  16
HETATM   16  N4  UNL     1     -17.747  22.917   2.736  1.00  0.00    -0.217 N
ATOM     17  H4  UNL     1     -17.047  23.652   2.831  1.00  0.00     0.203 HD
BRANCH  16  18
HETATM   18  N5  UNL     1     -18.143  22.720   1.531  1.00  0.00    -0.335 NA
BRANCH  18  19
HETATM   19  C7  UNL     1     -18.585  22.500   0.453  1.00  0.00     0.236 C
BRANCH  19  20
HETATM   20  C8  UNL     1     -17.871  21.892  -0.701  1.00  0.00     0.066 C
BRANCH  20  21
HETATM   21  C9  UNL     1     -17.428  22.685  -1.852  1.00  0.00     0.123 C
BRANCH  21  22
HETATM   22  C10 UNL     1     -18.143  24.019  -1.933  1.00  0.00     0.383 C
BRANCH  22  23
HETATM   23  N6  UNL     1     -18.130  24.469  -3.306  1.00  0.00    -0.050 N
ATOM     24  H63 UNL     1     -17.245  24.904  -3.567  1.00  0.00     0.276 HD
ATOM     25  H62 UNL     1     -18.108  23.694  -3.970  1.00  0.00     0.276 HD
ATOM     26  H61 UNL     1     -18.928  25.086  -3.455  1.00  0.00     0.276 HD
ENDBRANCH  22  23
BRANCH  22  27
HETATM   27  N7  UNL     1     -17.495  25.009  -1.077  1.00  0.00    -0.050 N
ATOM     28  H73 UNL     1     -17.853  24.973  -0.122  1.00  0.00     0.276 HD
ATOM     29  H72 UNL     1     -16.524  24.764  -0.887  1.00  0.00     0.276 HD
ATOM     30  H71 UNL     1     -17.578  25.944  -1.476  1.00  0.00     0.276 HD
ENDBRANCH  22  27
ENDBRANCH  21  22
ENDBRANCH  20  21
BRANCH  20  31
HETATM   31  N8  UNL     1     -17.631  20.616  -0.694  1.00  0.00    -0.271 N
ATOM     32  H8  UNL     1     -17.257  20.195  -1.545  1.00  0.00     0.194 HD
BRANCH  31  33
HETATM   33  O3  UNL     1     -17.847  19.807   0.373  1.00  0.00    -0.290 OA
ATOM     34  H3  UNL     1     -18.624  19.273   0.488  1.00  0.00     0.244 HD
ENDBRANCH  31  33
ENDBRANCH  20  31
ENDBRANCH  19  20
ENDBRANCH  18  19
ENDBRANCH  16  18
ENDBRANCH   2  16
BRANCH   1  35
HETATM   35  C4  UNL     1     -15.712  22.313   4.944  1.00  0.00     0.153 C
BRANCH  35  36
HETATM   36  C3  UNL     1     -15.364  23.354   5.947  1.00  0.00     0.251 C
HETATM   37  N3  UNL     1     -14.433  23.137   6.995  1.00  0.00    -0.157 N
HETATM   38  C2  UNL     1     -14.088  24.044   7.913  1.00  0.00     0.363 A
HETATM   39  N13 UNL     1     -13.740  22.038   7.269  1.00  0.00    -0.119 N
HETATM   40  N2  UNL     1     -13.183  23.493   8.743  1.00  0.00    -0.139 N
HETATM   41  O1  UNL     1     -14.503  25.242   8.038  1.00  0.00    -0.244 OA
HETATM   42  C1  UNL     1     -12.969  22.233   8.334  1.00  0.00     0.695 A
ATOM     43  H2  UNL     1     -12.740  23.951   9.540  1.00  0.00     0.189 HD
ATOM     44  H13 UNL     1     -13.791  21.168   6.739  1.00  0.00     0.206 HD
HETATM   45  O2  UNL     1     -15.923  24.469   5.855  1.00  0.00    -0.271 OA
BRANCH  42  46
HETATM   46  N1  UNL     1     -12.164  21.444   8.914  1.00  0.00    -0.233 N
ATOM     47  H12 UNL     1     -12.006  21.280   9.908  1.00  0.00     0.174 HD
ATOM     48  H11 UNL     1     -11.526  20.830   8.409  1.00  0.00     0.174 HD
ENDBRANCH  42  46
ENDBRANCH  35  36
ENDBRANCH   1  35
BRANCH  15  49
HETATM   49  S1  UNL     1     -21.461  19.205   3.191  1.00  0.00     0.138 S
HETATM   50  O6  UNL     1     -21.557  18.559   1.786  1.00  0.00    -0.593 OA
HETATM   51  O7  UNL     1     -22.850  19.086   3.725  1.00  0.00    -0.593 OA
HETATM   52  O8  UNL     1     -20.348  18.275   4.036  1.00  0.00    -0.593 OA
ENDBRANCH  15  49
BRANCH  11  53
HETATM   53  N11 UNL     1     -22.645  23.796   2.094  1.00  0.00    -0.027 N
ATOM     54 3H11 UNL     1     -22.080  24.632   2.239  1.00  0.00     0.279 HD
ATOM     55 2H11 UNL     1     -22.361  23.606   1.133  1.00  0.00     0.279 HD
ATOM     56 1H11 UNL     1     -23.646  23.973   2.185  1.00  0.00     0.279 HD
ENDBRANCH  11  53
TORSDOF 15
ENDMDL