MODEL 5
REMARK VINA RESULT: -7.402714632      2.081      5.338
REMARK  18 active torsions:
REMARK  status: ('A' for Active; 'I' for Inactive)
REMARK    1  A    between atoms: N1_1  and  C1_4
REMARK    2  A    between atoms: C2_7  and  C3_8
REMARK    3  A    between atoms: C4_10  and  C5_11
REMARK    4  A    between atoms: C6_20  and  C7_21
REMARK    5  A    between atoms: N8_22  and  C8_24
REMARK    6  A    between atoms: C9_25  and  C10_26
REMARK    7  A    between atoms: C10_26  and  C11_27
REMARK    8  A    between atoms: C11_27  and  O1_28
REMARK    9  A    between atoms: C11_27  and  C12_30
REMARK   10  A    between atoms: C12_30  and  O2_31
REMARK   11  A    between atoms: N11_37  and  C13_38
REMARK   12  A    between atoms: C13_38  and  C14_39
REMARK   13  A    between atoms: C13_38  and  C15_44
REMARK   14  A    between atoms: C14_39  and  O3_40
REMARK   15  A    between atoms: C14_39  and  O4_42
REMARK   16  A    between atoms: C15_44  and  O5_45
REMARK   17  A    between atoms: C15_44  and  O6_47
REMARK   18  A    between atoms: C16_49  and  O7_50
ROOT
HETATM    1  C7  UNL     1     -20.044  20.998   2.160  1.00  0.00     0.120 C
HETATM    2  N8  UNL     1     -21.051  21.638   1.782  1.00  0.00    -0.347 N
ATOM      3  H8  UNL     1     -21.090  21.721   0.766  1.00  0.00     0.167 HD
ENDROOT
BRANCH   1   4
HETATM    4  C6  UNL     1     -19.056  20.453   1.169  1.00  0.00     0.068 A
HETATM    5  C3  UNL     1     -18.410  21.239   0.272  1.00  0.00     0.065 A
HETATM    6  S1  UNL     1     -17.595  19.988  -0.683  1.00  0.00    -0.064 SA
HETATM    7  C4  UNL     1     -18.156  18.631   0.159  1.00  0.00     0.122 A
HETATM    8  N7  UNL     1     -18.903  19.161   1.081  1.00  0.00    -0.345 N
ATOM      9  H7  UNL     1     -19.378  18.555   1.750  1.00  0.00     0.167 HD
BRANCH   5  10
HETATM   10  C2  UNL     1     -18.202  22.658   0.076  1.00  0.00     0.107 A
HETATM   11  N2  UNL     1     -18.179  23.034  -1.252  1.00  0.00    -0.188 N
HETATM   12  C1  UNL     1     -17.942  24.289  -1.647  1.00  0.00     0.679 A
ATOM     13  H2  UNL     1     -18.351  22.323  -1.963  1.00  0.00     0.184 HD
HETATM   14  N12 UNL     1     -17.706  25.283  -0.772  1.00  0.00    -0.154 N
HETATM   15  C17 UNL     1     -17.717  24.963   0.521  1.00  0.00     0.295 A
ATOM     16  H12 UNL     1     -17.528  26.237  -1.084  1.00  0.00     0.187 HD
HETATM   17  C16 UNL     1     -17.963  23.641   0.966  1.00  0.00     0.164 A
HETATM   18  O8  UNL     1     -17.500  25.869   1.367  1.00  0.00    -0.265 OA
BRANCH  12  19
HETATM   19  N1  UNL     1     -17.923  24.613  -2.900  1.00  0.00    -0.234 N
ATOM     20  H12 UNL     1     -18.345  23.945  -3.546  1.00  0.00     0.174 HD
ATOM     21  H11 UNL     1     -17.511  25.490  -3.219  1.00  0.00     0.174 HD
ENDBRANCH  12  19
BRANCH  17  22
HETATM   22  O7  UNL     1     -17.918  23.490   2.304  1.00  0.00    -0.354 OA
ATOM     23  H7  UNL     1     -17.830  22.662   2.761  1.00  0.00     0.218 HD
ENDBRANCH  17  22
ENDBRANCH   5  10
BRANCH   7  24
HETATM   24  C5  UNL     1     -17.928  17.195  -0.024  1.00  0.00     0.165 A
HETATM   25  N3  UNL     1     -17.195  16.371   0.739  1.00  0.00    -0.268 N
HETATM   26  N4  UNL     1     -17.238  15.138   0.246  1.00  0.00    -0.007 NA
ATOM     27  H3  UNL     1     -16.680  16.651   1.574  1.00  0.00     0.185 HD
HETATM   28  N5  UNL     1     -17.998  15.171  -0.833  1.00  0.00    -0.007 NA
HETATM   29  N6  UNL     1     -18.419  16.419  -1.000  1.00  0.00    -0.268 N
ATOM     30  H6  UNL     1     -19.024  16.740  -1.756  1.00  0.00     0.185 HD
ENDBRANCH   7  24
ENDBRANCH   1   4
BRANCH   2  31
HETATM   31  C8  UNL     1     -22.106  22.251   2.382  1.00  0.00     0.148 A
HETATM   32  C9  UNL     1     -23.274  21.718   2.861  1.00  0.00     0.075 A
HETATM   33  N9  UNL     1     -24.046  22.729   3.374  1.00  0.00    -0.286 N
HETATM   34  N10 UNL     1     -23.361  23.823   3.207  1.00  0.00    -0.238 N
ATOM     35  H9  UNL     1     -24.968  22.641   3.800  1.00  0.00     0.188 HD
HETATM   36  N11 UNL     1     -22.208  23.579   2.623  1.00  0.00    -0.246 N
ATOM     37  H10 UNL     1     -23.677  24.750   3.491  1.00  0.00     0.208 HD
BRANCH  32  38
HETATM   38  C10 UNL     1     -23.675  20.304   2.851  1.00  0.00     0.096 C
BRANCH  38  39
HETATM   39  C11 UNL     1     -22.922  19.475   3.864  1.00  0.00     0.147 C
BRANCH  39  40
HETATM   40  O1  UNL     1     -23.584  19.303   5.052  1.00  0.00    -0.393 OA
ATOM     41  H1  UNL     1     -23.056  18.914   5.739  1.00  0.00     0.210 HD
ENDBRANCH  39  40
BRANCH  39  42
HETATM   42  C12 UNL     1     -22.456  18.187   3.219  1.00  0.00     0.196 C
BRANCH  42  43
HETATM   43  O2  UNL     1     -22.018  18.539   1.932  1.00  0.00    -0.398 OA
ATOM     44  H2  UNL     1     -21.879  19.479   1.955  1.00  0.00     0.209 HD
ENDBRANCH  42  43
ENDBRANCH  39  42
ENDBRANCH  38  39
ENDBRANCH  32  38
BRANCH  36  45
HETATM   45  C13 UNL     1     -21.215  24.546   2.287  1.00  0.00     0.220 C
BRANCH  45  46
HETATM   46  C14 UNL     1     -21.837  25.614   1.414  1.00  0.00     0.283 C
BRANCH  46  47
HETATM   47  O3  UNL     1     -20.936  26.282   0.624  1.00  0.00    -0.369 OA
ATOM     48  H3  UNL     1     -20.921  25.987  -0.278  1.00  0.00     0.212 HD
ENDBRANCH  46  47
BRANCH  46  49
HETATM   49  O4  UNL     1     -22.820  25.060   0.568  1.00  0.00    -0.369 OA
ATOM     50  H4  UNL     1     -23.293  25.742   0.107  1.00  0.00     0.212 HD
ENDBRANCH  46  49
ENDBRANCH  45  46
BRANCH  45  51
HETATM   51  C15 UNL     1     -20.706  25.158   3.582  1.00  0.00     0.283 C
BRANCH  51  52
HETATM   52  O5  UNL     1     -19.558  25.888   3.421  1.00  0.00    -0.369 OA
ATOM     53  H5  UNL     1     -19.654  26.799   3.676  1.00  0.00     0.212 HD
ENDBRANCH  51  52
BRANCH  51  54
HETATM   54  O6  UNL     1     -21.695  25.870   4.237  1.00  0.00    -0.369 OA
ATOM     55  H6  UNL     1     -21.346  26.368   4.967  1.00  0.00     0.212 HD
ENDBRANCH  51  54
ENDBRANCH  45  51
ENDBRANCH  36  45
ENDBRANCH   2  31
TORSDOF 18
ENDMDL