MODEL 4
REMARK VINA RESULT: -8.512377559      5.742      8.993
REMARK  16 active torsions:
REMARK  status: ('A' for Active; 'I' for Inactive)
REMARK    1  A    between atoms: N1_1  and  C1_4
REMARK    2  A    between atoms: C3_9  and  N4_10
REMARK    3  A    between atoms: N6_15  and  C4_16
REMARK    4  A    between atoms: C5_19  and  C6_20
REMARK    5  A    between atoms: C6_20  and  O1_21
REMARK    6  A    between atoms: C6_20  and  O2_23
REMARK    7  A    between atoms: C7_26  and  C8_27
REMARK    8  A    between atoms: N12_37  and  C11_38
REMARK    9  A    between atoms: C11_38  and  C12_39
REMARK   10  A    between atoms: C12_39  and  C13_40
REMARK   11  A    between atoms: C13_40  and  O3_41
REMARK   12  A    between atoms: C13_40  and  C14_43
REMARK   13  A    between atoms: C14_43  and  N13_44
REMARK   14  A    between atoms: C16_46  and  O4_47
REMARK   15  A    between atoms: N14_49  and  N15_50
REMARK   16  A    between atoms: N16_54  and  N17_56
ROOT
HETATM    1  C1  UNL     1     -17.288  21.383  -1.947  1.00  0.00     0.705 A
HETATM    2  N2  UNL     1     -17.702  20.311  -1.279  1.00  0.00    -0.020 N
ATOM      3  H2  UNL     1     -17.627  19.387  -1.704  1.00  0.00     0.203 HD
HETATM    4  C2  UNL     1     -18.219  20.442  -0.047  1.00  0.00     0.731 A
HETATM    5  N3  UNL     1     -18.319  21.695   0.520  1.00  0.00     0.094 N
HETATM    6  C3  UNL     1     -17.904  22.756  -0.154  1.00  0.00     0.727 A
HETATM    7  N5  UNL     1     -17.381  22.604  -1.402  1.00  0.00    -0.020 N
ATOM      8  H5  UNL     1     -17.061  23.420  -1.923  1.00  0.00     0.203 HD
HETATM    9  N6  UNL     1     -18.876  21.882   1.773  1.00  0.00    -0.238 N
HETATM   10  C9  UNL     1     -18.959  20.663   2.614  1.00  0.00     0.173 C
HETATM   11  C10 UNL     1     -19.646  19.589   1.730  1.00  0.00     0.163 C
HETATM   12  N12 UNL     1     -18.642  19.303   0.688  1.00  0.00    -0.213 N
ENDROOT
BRANCH  12  13
HETATM   13  C11 UNL     1     -18.160  17.976   0.503  1.00  0.00     0.144 C
BRANCH  13  14
HETATM   14  C12 UNL     1     -19.193  16.966   0.251  1.00  0.00     0.054 C
BRANCH  14  15
HETATM   15  C13 UNL     1     -18.584  15.575  -0.020  1.00  0.00     0.138 C
BRANCH  15  16
HETATM   16  O3  UNL     1     -17.219  15.693   0.018  1.00  0.00    -0.394 OA
ATOM     17  H3  UNL     1     -16.875  14.975   0.537  1.00  0.00     0.210 HD
ENDBRANCH  15  16
BRANCH  15  18
HETATM   18  C14 UNL     1     -19.094  14.975  -1.297  1.00  0.00     0.178 C
BRANCH  18  19
HETATM   19  N13 UNL     1     -18.076  14.801  -2.306  1.00  0.00    -0.184 N
HETATM   20  C15 UNL     1     -17.470  13.672  -2.705  1.00  0.00     0.167 A
HETATM   21  C16 UNL     1     -16.571  13.960  -3.696  1.00  0.00     0.195 A
HETATM   22  N14 UNL     1     -16.621  15.299  -3.917  1.00  0.00    -0.067 N
HETATM   23  C17 UNL     1     -17.530  15.784  -3.073  1.00  0.00     0.721 A
HETATM   24  N16 UNL     1     -17.885  17.009  -2.955  1.00  0.00    -0.137 N
ATOM     25  H16 UNL     1     -18.596  17.252  -2.266  1.00  0.00     0.205 HD
BRANCH  21  26
HETATM   26  O4  UNL     1     -15.756  13.093  -4.367  1.00  0.00    -0.343 OA
ATOM     27  H4  UNL     1     -15.085  13.300  -5.006  1.00  0.00     0.219 HD
ENDBRANCH  21  26
BRANCH  22  28
HETATM   28  N15 UNL     1     -15.859  16.011  -4.865  1.00  0.00    -0.322 N
ATOM     29 2H15 UNL     1     -16.096  16.204  -5.838  1.00  0.00     0.178 HD
ATOM     30 1H15 UNL     1     -14.945  16.434  -4.703  1.00  0.00     0.178 HD
ENDBRANCH  22  28
BRANCH  24  31
HETATM   31  N17 UNL     1     -17.338  18.007  -3.725  1.00  0.00    -0.331 N
ATOM     32 2H17 UNL     1     -17.384  17.906  -4.739  1.00  0.00     0.177 HD
ATOM     33 1H17 UNL     1     -16.897  18.831  -3.316  1.00  0.00     0.177 HD
ENDBRANCH  24  31
ENDBRANCH  18  19
ENDBRANCH  15  18
ENDBRANCH  14  15
ENDBRANCH  13  14
ENDBRANCH  12  13
BRANCH   1  34
HETATM   34  N1  UNL     1     -16.779  21.272  -3.150  1.00  0.00    -0.234 N
ATOM     35  H12 UNL     1     -15.790  21.041  -3.242  1.00  0.00     0.174 HD
ATOM     36  H11 UNL     1     -17.357  21.411  -3.979  1.00  0.00     0.174 HD
ENDBRANCH   1  34
BRANCH   6  37
HETATM   37  N4  UNL     1     -17.972  23.939   0.361  1.00  0.00    -0.232 N
ATOM     38  H42 UNL     1     -18.681  24.134   1.067  1.00  0.00     0.174 HD
ATOM     39  H41 UNL     1     -17.335  24.679   0.063  1.00  0.00     0.174 HD
ENDBRANCH   6  37
BRANCH   9  40
HETATM   40  C4  UNL     1     -19.392  23.096   2.314  1.00  0.00     0.145 A
HETATM   41  N7  UNL     1     -20.503  23.601   1.808  1.00  0.00    -0.334 N
HETATM   42  C5  UNL     1     -21.037  24.670   2.321  1.00  0.00     0.108 A
ATOM     43  H7  UNL     1     -20.946  23.149   1.008  1.00  0.00     0.168 HD
HETATM   44  S1  UNL     1     -19.971  25.047   3.595  1.00  0.00    -0.064 SA
HETATM   45  C7  UNL     1     -18.849  23.742   3.379  1.00  0.00     0.099 A
BRANCH  42  46
HETATM   46  C6  UNL     1     -22.277  25.368   1.875  1.00  0.00     0.312 C
BRANCH  46  47
HETATM   47  O1  UNL     1     -23.312  25.129   2.797  1.00  0.00    -0.365 OA
ATOM     48  H1  UNL     1     -23.633  25.956   3.138  1.00  0.00     0.213 HD
ENDBRANCH  46  47
BRANCH  46  49
HETATM   49  O2  UNL     1     -22.644  25.071   0.589  1.00  0.00    -0.365 OA
ATOM     50  H2  UNL     1     -23.571  24.890   0.489  1.00  0.00     0.213 HD
ENDBRANCH  46  49
ENDBRANCH  42  46
BRANCH  45  51
HETATM   51  C8  UNL     1     -17.634  23.480   4.178  1.00  0.00     0.155 A
HETATM   52  N8  UNL     1     -16.444  24.044   4.168  1.00  0.00    -0.266 N
HETATM   53  N9  UNL     1     -15.720  23.436   5.096  1.00  0.00    -0.005 NA
ATOM     54  H8  UNL     1     -16.137  24.804   3.561  1.00  0.00     0.186 HD
HETATM   55  N10 UNL     1     -16.443  22.486   5.696  1.00  0.00    -0.225 N
HETATM   56  N11 UNL     1     -17.616  22.513   5.133  1.00  0.00    -0.270 N
ATOM     57  H10 UNL     1     -16.136  21.865   6.445  1.00  0.00     0.205 HD
ATOM     58  H11 UNL     1     -18.400  21.904   5.371  1.00  0.00     0.190 HD
ENDBRANCH  45  51
ENDBRANCH   9  40
TORSDOF 16
ENDMDL