MODEL 5
REMARK VINA RESULT: -9.412387021      1.921      2.995
REMARK  18 active torsions:
REMARK  status: ('A' for Active; 'I' for Inactive)
REMARK       I    between atoms: C1_4  and  N3_6
REMARK    1  A    between atoms: N3_6  and  C2_8
REMARK    2  A    between atoms: C2_8  and  O1_9
REMARK    3  A    between atoms: C2_8  and  N4_11
REMARK    4  A    between atoms: N4_11  and  C3_12
REMARK    5  A    between atoms: C3_12  and  C4_13
REMARK    6  A    between atoms: C5_14  and  O2_15
REMARK    7  A    between atoms: C7_18  and  N5_19
REMARK       I    between atoms: N5_19  and  C8_21
REMARK    8  A    between atoms: C8_21  and  C9_23
REMARK    9  A    between atoms: C9_23  and  N6_24
REMARK   10  A    between atoms: C10_28  and  C11_29
REMARK   11  A    between atoms: C11_29  and  C12_30
REMARK   12  A    between atoms: C12_30  and  O4_31
REMARK   13  A    between atoms: C12_30  and  C13_33
REMARK   14  A    between atoms: C13_33  and  N9_34
REMARK   15  A    between atoms: C15_39  and  N12_40
REMARK   16  A    between atoms: C16_45  and  N14_46
REMARK   17  A    between atoms: C18_54  and  O5_55
REMARK   18  A    between atoms: C19_57  and  O6_58
ROOT
HETATM    1  N6  UNL     1     -15.724  24.432   6.030  1.00  0.00    -0.208 N
HETATM    2  N7  UNL     1     -15.746  23.202   5.528  1.00  0.00    -0.003 NA
HETATM    3  N8  UNL     1     -16.297  23.286   4.329  1.00  0.00    -0.270 N
ATOM      4  H8  UNL     1     -16.449  22.496   3.701  1.00  0.00     0.185 HD
HETATM    5  C10 UNL     1     -16.630  24.558   4.057  1.00  0.00     0.112 A
HETATM    6  N16 UNL     1     -16.254  25.255   5.151  1.00  0.00    -0.272 N
ATOM      7  H16 UNL     1     -16.364  26.261   5.276  1.00  0.00     0.189 HD
ENDROOT
BRANCH   1   8
HETATM    8  C9  UNL     1     -15.203  24.782   7.319  1.00  0.00     0.270 C
BRANCH   8   9
HETATM    9  C8  UNL     1     -14.856  23.508   8.061  1.00  0.00     0.243 C
HETATM   10  N5  UNL     1     -13.679  22.856   7.687  1.00  0.00    -0.323 N
ATOM     11  H5  UNL     1     -13.131  23.284   6.940  1.00  0.00     0.169 HD
HETATM   12  O3  UNL     1     -15.640  23.133   8.948  1.00  0.00    -0.271 OA
BRANCH  10  13
HETATM   13  C7  UNL     1     -13.173  21.664   8.243  1.00  0.00     0.073 A
HETATM   14  C6  UNL     1     -12.790  21.524   9.552  1.00  0.00     0.070 A
HETATM   15  C5  UNL     1     -12.300  20.291  10.015  1.00  0.00     0.083 A
HETATM   16  C4  UNL     1     -12.182  19.198   9.207  1.00  0.00     0.061 A
HETATM   17  C19 UNL     1     -12.566  19.333   7.891  1.00  0.00     0.116 A
HETATM   18  C18 UNL     1     -13.049  20.527   7.414  1.00  0.00     0.127 A
BRANCH  15  19
HETATM   19  O2  UNL     1     -11.920  20.180  11.344  1.00  0.00    -0.360 OA
ATOM     20  H2  UNL     1     -11.139  20.635  11.634  1.00  0.00     0.217 HD
ENDBRANCH  15  19
BRANCH  16  21
HETATM   21  C3  UNL     1     -11.660  17.916   9.739  1.00  0.00     0.197 C
BRANCH  21  22
HETATM   22  N4  UNL     1     -11.845  17.460  10.821  1.00  0.00    -0.408 NA
BRANCH  22  23
HETATM   23  C2  UNL     1     -12.067  16.944  12.032  1.00  0.00     0.410 C
BRANCH  23  24
HETATM   24  N3  UNL     1     -11.435  15.629  12.242  1.00  0.00    -0.311 N
HETATM   25  C1  UNL     1     -10.022  15.524  12.348  1.00  0.00     0.185 C
HETATM   26  N1  UNL     1      -9.429  14.453  12.713  1.00  0.00    -0.374 N
HETATM   27  N2  UNL     1      -9.238  16.666  12.034  1.00  0.00    -0.064 NA
ATOM     28  H12 UNL     1      -8.415  14.378  12.789  1.00  0.00     0.158 HD
ATOM     29  H11 UNL     1      -9.992  13.633  12.938  1.00  0.00     0.158 HD
ATOM     30  H3  UNL     1     -12.013  14.792  12.311  1.00  0.00     0.167 HD
ENDBRANCH  23  24
BRANCH  23  31
HETATM   31  O1  UNL     1     -11.564  17.798  13.050  1.00  0.00    -0.349 OA
ATOM     32  H1  UNL     1     -11.778  18.685  12.787  1.00  0.00     0.215 HD
ENDBRANCH  23  31
ENDBRANCH  22  23
ENDBRANCH  21  22
ENDBRANCH  16  21
BRANCH  17  33
HETATM   33  O6  UNL     1     -12.469  18.261   7.024  1.00  0.00    -0.357 OA
ATOM     34  H6  UNL     1     -13.175  18.071   6.416  1.00  0.00     0.217 HD
ENDBRANCH  17  33
BRANCH  18  35
HETATM   35  O5  UNL     1     -13.427  20.655   6.105  1.00  0.00    -0.356 OA
ATOM     36  H5  UNL     1     -13.158  19.973   5.501  1.00  0.00     0.218 HD
ENDBRANCH  18  35
ENDBRANCH  10  13
ENDBRANCH   8   9
ENDBRANCH   1   8
BRANCH   5  37
HETATM   37  C11 UNL     1     -17.267  25.149   2.865  1.00  0.00     0.112 C
BRANCH  37  38
HETATM   38  C12 UNL     1     -18.749  25.016   2.948  1.00  0.00     0.144 C
BRANCH  38  39
HETATM   39  O4  UNL     1     -19.364  26.101   3.560  1.00  0.00    -0.394 OA
ATOM     40  H4  UNL     1     -19.646  26.769   2.946  1.00  0.00     0.210 HD
ENDBRANCH  38  39
BRANCH  38  41
HETATM   41  C13 UNL     1     -19.430  24.644   1.655  1.00  0.00     0.180 C
BRANCH  41  42
HETATM   42  N9  UNL     1     -18.904  23.436   1.054  1.00  0.00    -0.173 N
HETATM   43  C14 UNL     1     -18.833  22.228   1.666  1.00  0.00     0.219 A
HETATM   44  N10 UNL     1     -18.285  21.359   0.802  1.00  0.00    -0.260 N
HETATM   45  N11 UNL     1     -17.999  21.961  -0.348  1.00  0.00     0.092 N
ATOM     46  H10 UNL     1     -18.113  20.373   1.001  1.00  0.00     0.189 HD
HETATM   47  C15 UNL     1     -17.453  21.537  -1.500  1.00  0.00     0.727 A
HETATM   48  C17 UNL     1     -18.388  23.245  -0.174  1.00  0.00     0.736 A
HETATM   49  N13 UNL     1     -17.297  22.422  -2.493  1.00  0.00    -0.020 N
HETATM   50  C16 UNL     1     -17.678  23.706  -2.344  1.00  0.00     0.705 A
ATOM     51  H13 UNL     1     -16.884  22.120  -3.375  1.00  0.00     0.203 HD
HETATM   52  N15 UNL     1     -18.223  24.120  -1.188  1.00  0.00    -0.019 N
ATOM     53  H15 UNL     1     -18.510  25.093  -1.077  1.00  0.00     0.203 HD
BRANCH  47  54
HETATM   54  N12 UNL     1     -17.090  20.312  -1.644  1.00  0.00    -0.232 N
ATOM     55 2H12 UNL     1     -17.553  19.705  -2.321  1.00  0.00     0.174 HD
ATOM     56 1H12 UNL     1     -16.331  19.923  -1.085  1.00  0.00     0.174 HD
ENDBRANCH  47  54
BRANCH  50  57
HETATM   57  N14 UNL     1     -17.506  24.541  -3.345  1.00  0.00    -0.234 N
ATOM     58 2H14 UNL     1     -18.304  24.907  -3.864  1.00  0.00     0.174 HD
ATOM     59 1H14 UNL     1     -16.558  24.820  -3.597  1.00  0.00     0.174 HD
ENDBRANCH  50  57
ENDBRANCH  41  42
ENDBRANCH  38  41
ENDBRANCH  37  38
ENDBRANCH   5  37
TORSDOF 18
ENDMDL