MODEL 5
REMARK VINA RESULT: -9.212721928      2.617      3.896
REMARK  14 active torsions:
REMARK  status: ('A' for Active; 'I' for Inactive)
REMARK    1  A    between atoms: C2_2  and  C14_39
REMARK    2  A    between atoms: N1_3  and  N2_5
REMARK       I    between atoms: N2_5  and  C3_7
REMARK    3  A    between atoms: C3_7  and  C4_9
REMARK    4  A    between atoms: N3_11  and  C6_12
REMARK    5  A    between atoms: C6_12  and  C7_13
REMARK    6  A    between atoms: C7_13  and  O2_14
REMARK    7  A    between atoms: C7_13  and  C8_16
REMARK    8  A    between atoms: C8_16  and  O3_17
REMARK    9  A    between atoms: C8_16  and  C9_19
REMARK   10  A    between atoms: C10_22  and  C11_23
REMARK       I    between atoms: C11_23  and  N5_25
REMARK   11  A    between atoms: N5_25  and  N6_27
REMARK   12  A    between atoms: C13_31  and  O5_32
REMARK   13  A    between atoms: C15_40  and  O7_41
REMARK   14  A    between atoms: N10_43  and  C16_44
ROOT
HETATM    1  N6  UNL     1     -19.796  18.056   3.231  1.00  0.00    -0.234 N
ATOM      2  H6  UNL     1     -20.271  17.920   4.123  1.00  0.00     0.199 HD
HETATM    3  C12 UNL     1     -19.243  16.971   2.560  1.00  0.00     0.198 C
HETATM    4  N7  UNL     1     -18.762  16.076   2.002  1.00  0.00    -0.170 NA
ENDROOT
BRANCH   1   5
HETATM    5  N5  UNL     1     -19.697  19.332   2.677  1.00  0.00    -0.255 N
HETATM    6  C11 UNL     1     -20.744  20.251   2.840  1.00  0.00     0.292 C
HETATM    7  O4  UNL     1     -21.766  19.872   3.506  1.00  0.00    -0.264 OA
ATOM      8  H5  UNL     1     -18.864  19.597   2.153  1.00  0.00     0.191 HD
BRANCH   6   9
HETATM    9  C10 UNL     1     -20.759  21.595   2.315  1.00  0.00     0.163 A
HETATM   10  N4  UNL     1     -21.802  22.474   2.417  1.00  0.00    -0.329 N
HETATM   11  C9  UNL     1     -21.443  23.600   1.812  1.00  0.00     0.159 A
ATOM     12  H4  UNL     1     -22.696  22.295   2.875  1.00  0.00     0.168 HD
HETATM   13  O6  UNL     1     -20.230  23.456   1.342  1.00  0.00    -0.270 OA
HETATM   14  C13 UNL     1     -19.776  22.241   1.629  1.00  0.00     0.218 A
BRANCH  11  15
HETATM   15  C8  UNL     1     -22.303  24.833   1.692  1.00  0.00     0.223 C
BRANCH  15  16
HETATM   16  C7  UNL     1     -22.282  25.586   2.991  1.00  0.00     0.174 C
BRANCH  16  17
HETATM   17  C6  UNL     1     -21.130  26.506   3.190  1.00  0.00     0.184 C
BRANCH  17  18
HETATM   18  N3  UNL     1     -19.825  25.940   3.066  1.00  0.00    -0.284 N
HETATM   19  C5  UNL     1     -19.240  25.113   3.937  1.00  0.00     0.148 A
HETATM   20  C4  UNL     1     -17.995  24.801   3.436  1.00  0.00     0.136 A
HETATM   21  N9  UNL     1     -17.846  25.449   2.259  1.00  0.00    -0.280 N
HETATM   22  N8  UNL     1     -18.956  26.125   2.061  1.00  0.00    -0.240 N
ATOM     23  H9  UNL     1     -17.032  25.420   1.646  1.00  0.00     0.189 HD
ATOM     24  H8  UNL     1     -19.134  26.715   1.248  1.00  0.00     0.208 HD
BRANCH  20  25
HETATM   25  C3  UNL     1     -17.041  23.916   4.092  1.00  0.00     0.289 C
HETATM   26  N2  UNL     1     -16.246  24.451   5.163  1.00  0.00    -0.264 N
ATOM     27  H2  UNL     1     -16.366  25.426   5.440  1.00  0.00     0.190 HD
HETATM   28  O1  UNL     1     -16.927  22.735   3.723  1.00  0.00    -0.264 OA
BRANCH  26  29
HETATM   29  N1  UNL     1     -15.331  23.669   5.817  1.00  0.00    -0.301 N
HETATM   30  C2  UNL     1     -15.169  23.669   7.082  1.00  0.00     0.042 C
HETATM   31  C1  UNL     1     -15.993  24.545   7.942  1.00  0.00     0.071 C
ATOM     32  H1  UNL     1     -14.745  23.050   5.259  1.00  0.00     0.186 HD
BRANCH  30  33
HETATM   33  C14 UNL     1     -14.147  22.792   7.699  1.00  0.00     0.109 A
HETATM   34  C15 UNL     1     -14.119  21.436   7.836  1.00  0.00     0.181 A
HETATM   35  N10 UNL     1     -12.981  21.033   8.463  1.00  0.00    -0.208 N
HETATM   36  N14 UNL     1     -12.310  22.151   8.709  1.00  0.00    -0.255 N
HETATM   37  C18 UNL     1     -12.971  23.235   8.268  1.00  0.00     0.277 A
ATOM     38  H14 UNL     1     -11.403  22.185   9.176  1.00  0.00     0.191 HD
HETATM   39  O9  UNL     1     -12.634  24.445   8.332  1.00  0.00    -0.266 OA
BRANCH  34  40
HETATM   40  O7  UNL     1     -15.095  20.548   7.410  1.00  0.00    -0.344 OA
ATOM     41  H7  UNL     1     -15.558  19.921   7.952  1.00  0.00     0.219 HD
ENDBRANCH  34  40
BRANCH  35  42
HETATM   42  C16 UNL     1     -12.622  19.699   8.781  1.00  0.00     0.197 A
HETATM   43  N11 UNL     1     -12.383  18.698   7.927  1.00  0.00    -0.220 N
HETATM   44  O8  UNL     1     -12.073  17.616   8.617  1.00  0.00    -0.153 OA
ATOM     45  H11 UNL     1     -12.432  18.761   6.910  1.00  0.00     0.198 HD
HETATM   46  N12 UNL     1     -12.094  17.850   9.891  1.00  0.00    -0.222 N
HETATM   47  C17 UNL     1     -12.434  19.143  10.041  1.00  0.00     0.169 A
ATOM     48  H12 UNL     1     -11.893  17.183  10.636  1.00  0.00     0.198 HD
HETATM   49  N13 UNL     1     -12.560  19.737  11.143  1.00  0.00    -0.381 N
ATOM     50 2H13 UNL     1     -12.817  20.717  11.256  1.00  0.00     0.157 HD
ATOM     51 1H13 UNL     1     -12.421  19.328  12.067  1.00  0.00     0.157 HD
ENDBRANCH  35  42
ENDBRANCH  30  33
ENDBRANCH  26  29
ENDBRANCH  20  25
ENDBRANCH  17  18
ENDBRANCH  16  17
BRANCH  16  52
HETATM   52  O2  UNL     1     -22.446  24.654   4.028  1.00  0.00    -0.391 OA
ATOM     53  H2  UNL     1     -23.333  24.613   4.367  1.00  0.00     0.210 HD
ENDBRANCH  16  52
ENDBRANCH  15  16
BRANCH  15  54
HETATM   54  O3  UNL     1     -21.817  25.550   0.609  1.00  0.00    -0.385 OA
ATOM     55  H3  UNL     1     -21.911  25.107  -0.225  1.00  0.00     0.210 HD
ENDBRANCH  15  54
ENDBRANCH  11  15
BRANCH  14  56
HETATM   56  O5  UNL     1     -18.507  21.776   1.265  1.00  0.00    -0.339 OA
ATOM     57  H5  UNL     1     -18.097  20.943   1.467  1.00  0.00     0.220 HD
ENDBRANCH  14  56
ENDBRANCH   6   9
ENDBRANCH   1   5
TORSDOF 14
ENDMDL