MODEL 3
REMARK VINA RESULT: -9.153338255      1.774      2.297
REMARK  15 active torsions:
REMARK  status: ('A' for Active; 'I' for Inactive)
REMARK    1  A    between atoms: C2_2  and  N1_3
REMARK    2  A    between atoms: C2_2  and  C3_7
REMARK    3  A    between atoms: C3_7  and  N2_8
REMARK    4  A    between atoms: C3_7  and  N14_48
REMARK    5  A    between atoms: N2_8  and  N3_9
REMARK       I    between atoms: N3_9  and  C4_11
REMARK       I    between atoms: C4_11  and  N4_13
REMARK    6  A    between atoms: N4_13  and  C5_15
REMARK    7  A    between atoms: C5_15  and  C6_20
REMARK    8  A    between atoms: N5_16  and  O2_18
REMARK    9  A    between atoms: N6_22  and  C8_23
REMARK   10  A    between atoms: C11_29  and  N8_30
REMARK   11  A    between atoms: C13_32  and  C14_33
REMARK   12  A    between atoms: C14_33  and  N9_34
REMARK   13  A    between atoms: C15_41  and  O3_42
REMARK   14  A    between atoms: C16_53  and  C17_54
REMARK   15  A    between atoms: C18_59  and  O4_60
ROOT
HETATM    1  C5  UNL     1     -14.829  22.442   5.996  1.00  0.00     0.159 C
HETATM    2  N5  UNL     1     -14.433  23.612   6.487  1.00  0.00    -0.251 N
ATOM      3  H5  UNL     1     -14.799  24.491   6.119  1.00  0.00     0.196 HD
ENDROOT
BRANCH   1   4
HETATM    4  N4  UNL     1     -15.757  22.475   4.964  1.00  0.00    -0.290 N
HETATM    5  C4  UNL     1     -16.698  23.474   4.729  1.00  0.00     0.337 C
HETATM    6  N3  UNL     1     -17.602  23.352   3.609  1.00  0.00    -0.253 N
HETATM    7  O1  UNL     1     -16.849  24.531   5.432  1.00  0.00    -0.246 OA
ATOM      8  H3  UNL     1     -17.530  22.532   3.006  1.00  0.00     0.187 HD
ATOM      9  H4  UNL     1     -15.749  21.689   4.314  1.00  0.00     0.172 HD
BRANCH   6  10
HETATM   10  N2  UNL     1     -18.558  24.304   3.324  1.00  0.00    -0.107 NA
BRANCH  10  11
HETATM   11  C3  UNL     1     -19.452  23.811   2.291  1.00  0.00     0.254 C
BRANCH  11  12
HETATM   12  C2  UNL     1     -20.864  24.316   2.492  1.00  0.00     0.221 C
HETATM   13  C1  UNL     1     -21.814  23.234   2.027  1.00  0.00     0.043 C
BRANCH  12  14
HETATM   14  N1  UNL     1     -21.149  24.664   3.849  1.00  0.00    -0.072 N
ATOM     15  H13 UNL     1     -21.058  25.667   4.014  1.00  0.00     0.274 HD
ATOM     16  H12 UNL     1     -22.140  24.566   4.069  1.00  0.00     0.274 HD
ATOM     17  H11 UNL     1     -20.561  24.118   4.479  1.00  0.00     0.274 HD
ENDBRANCH  12  14
ENDBRANCH  11  12
BRANCH  11  18
HETATM   18  N14 UNL     1     -18.952  24.341   1.042  1.00  0.00    -0.230 N
HETATM   19  N15 UNL     1     -19.042  25.597   0.597  1.00  0.00    -0.236 N
HETATM   20  N16 UNL     1     -18.464  25.694  -0.585  1.00  0.00    -0.279 N
ATOM     21  H15 UNL     1     -19.490  26.366   1.097  1.00  0.00     0.208 HD
HETATM   22  C16 UNL     1     -17.973  24.492  -0.954  1.00  0.00     0.142 A
ATOM     23  H16 UNL     1     -18.399  26.548  -1.138  1.00  0.00     0.189 HD
HETATM   24  C18 UNL     1     -18.303  23.651   0.109  1.00  0.00     0.192 A
BRANCH  22  25
HETATM   25  C17 UNL     1     -17.266  24.171  -2.178  1.00  0.00     0.142 C
HETATM   26  N17 UNL     1     -16.679  25.107  -2.821  1.00  0.00    -0.386 N
ATOM     27 2H17 UNL     1     -16.712  26.064  -2.470  1.00  0.00     0.157 HD
ATOM     28 1H17 UNL     1     -16.181  24.881  -3.683  1.00  0.00     0.157 HD
HETATM   29  N18 UNL     1     -17.220  22.853  -2.662  1.00  0.00    -0.081 NA
ENDBRANCH  22  25
BRANCH  24  30
HETATM   30  O4  UNL     1     -17.950  22.302   0.087  1.00  0.00    -0.343 OA
ATOM     31  H4  UNL     1     -17.118  21.892   0.290  1.00  0.00     0.219 HD
ENDBRANCH  24  30
ENDBRANCH  11  18
ENDBRANCH  10  11
ENDBRANCH   6  10
ENDBRANCH   1   4
BRANCH   1  32
HETATM   32  C6  UNL     1     -14.220  21.287   6.632  1.00  0.00     0.112 A
HETATM   33  C7  UNL     1     -14.449  20.788   7.907  1.00  0.00     0.147 A
HETATM   34  N6  UNL     1     -13.650  19.737   8.109  1.00  0.00    -0.277 N
HETATM   35  N12 UNL     1     -12.931  19.570   6.997  1.00  0.00    -0.240 N
HETATM   36  N13 UNL     1     -13.273  20.483   6.137  1.00  0.00    -0.281 N
ATOM     37  H12 UNL     1     -12.229  18.846   6.846  1.00  0.00     0.208 HD
ATOM     38  H13 UNL     1     -12.870  20.575   5.204  1.00  0.00     0.188 HD
BRANCH  34  39
HETATM   39  C8  UNL     1     -13.490  18.876   9.237  1.00  0.00     0.171 C
HETATM   40  C9  UNL     1     -12.882  19.529  10.454  1.00  0.00     0.211 C
HETATM   41  C10 UNL     1     -12.107  20.765  10.179  1.00  0.00     0.042 C
HETATM   42  N7  UNL     1     -12.093  18.497  11.128  1.00  0.00    -0.044 N
HETATM   43  C11 UNL     1     -12.489  17.258  10.526  1.00  0.00     0.335 C
ATOM     44  H72 UNL     1     -11.087  18.664  11.097  1.00  0.00     0.280 HD
ATOM     45  H71 UNL     1     -12.187  18.508  12.143  1.00  0.00     0.280 HD
HETATM   46  C15 UNL     1     -12.565  17.707   9.045  1.00  0.00     0.196 C
BRANCH  43  47
HETATM   47  N8  UNL     1     -11.606  16.161  10.720  1.00  0.00    -0.251 N
HETATM   48  C12 UNL     1     -11.920  14.875  10.945  1.00  0.00     0.138 A
HETATM   49  C13 UNL     1     -10.753  14.158  11.069  1.00  0.00     0.066 A
HETATM   50  N10 UNL     1      -9.754  15.042  10.913  1.00  0.00    -0.285 N
HETATM   51  N11 UNL     1     -10.288  16.245  10.704  1.00  0.00    -0.018 NA
ATOM     52  H10 UNL     1      -8.757  14.830  10.950  1.00  0.00     0.184 HD
BRANCH  49  53
HETATM   53  C14 UNL     1     -10.565  12.706  11.320  1.00  0.00     0.288 C
BRANCH  53  54
HETATM   54  N9  UNL     1      -9.377  12.438  12.077  1.00  0.00    -0.074 N
ATOM     55  H93 UNL     1      -9.152  13.216  12.698  1.00  0.00     0.274 HD
ATOM     56  H92 UNL     1      -9.541  11.714  12.777  1.00  0.00     0.274 HD
ATOM     57  H91 UNL     1      -8.586  12.201  11.480  1.00  0.00     0.274 HD
ENDBRANCH  53  54
ENDBRANCH  49  53
ENDBRANCH  43  47
BRANCH  46  58
HETATM   58  O3  UNL     1     -11.283  18.077   8.624  1.00  0.00    -0.389 OA
ATOM     59  H3  UNL     1     -10.596  17.805   9.222  1.00  0.00     0.210 HD
ENDBRANCH  46  58
ENDBRANCH  34  39
ENDBRANCH   1  32
BRANCH   2  60
HETATM   60  O2  UNL     1     -13.527  23.596   7.496  1.00  0.00    -0.288 OA
ATOM     61  H2  UNL     1     -13.508  24.344   8.083  1.00  0.00     0.244 HD
ENDBRANCH   2  60
TORSDOF 15
ENDMDL