MODEL 1
REMARK VINA RESULT: -9.297283283      0.000      0.000
REMARK  16 active torsions:
REMARK  status: ('A' for Active; 'I' for Inactive)
REMARK    1  A    between atoms: N1_2  and  O1_3
REMARK    2  A    between atoms: N1_2  and  C2_5
REMARK    3  A    between atoms: N5_11  and  C3_12
REMARK    4  A    between atoms: C4_15  and  C5_16
REMARK    5  A    between atoms: C5_16  and  C6_17
REMARK    6  A    between atoms: C6_17  and  N7_18
REMARK    7  A    between atoms: N7_18  and  O2_19
REMARK       I    between atoms: N7_18  and  C7_24
REMARK    8  A    between atoms: O2_19  and  S1_20
REMARK    9  A    between atoms: C7_24  and  C8_26
REMARK   10  A    between atoms: C10_35  and  N11_36
REMARK   11  A    between atoms: C11_41  and  C12_42
REMARK   12  A    between atoms: C12_42  and  O7_43
REMARK   13  A    between atoms: C12_42  and  C13_45
REMARK   14  A    between atoms: C13_45  and  O8_46
REMARK   15  A    between atoms: C13_45  and  O9_48
REMARK   16  A    between atoms: C15_51  and  O10_52
ROOT
HETATM    1  C3  UNL     1     -21.181  23.637   3.351  1.00  0.00     0.178 A
HETATM    2  N6  UNL     1     -19.953  23.387   3.800  1.00  0.00    -0.341 N
ATOM      3  H6  UNL     1     -19.496  24.122   4.341  1.00  0.00     0.167 HD
HETATM    4  C4  UNL     1     -19.252  22.238   3.600  1.00  0.00     0.021 A
HETATM    5  C11 UNL     1     -19.866  21.241   2.870  1.00  0.00     0.001 A
HETATM    6  C14 UNL     1     -21.160  21.421   2.360  1.00  0.00     0.052 A
HETATM    7  C15 UNL     1     -21.787  22.616   2.612  1.00  0.00     0.112 A
ENDROOT
BRANCH   4   8
HETATM    8  C5  UNL     1     -17.909  22.073   4.166  1.00  0.00     0.080 C
BRANCH   8   9
HETATM    9  C6  UNL     1     -17.779  21.897   5.629  1.00  0.00     0.167 C
BRANCH   9  10
HETATM   10  N7  UNL     1     -16.387  22.104   6.082  1.00  0.00    -0.199 N
HETATM   11  C7  UNL     1     -15.817  20.939   6.691  1.00  0.00     0.313 C
HETATM   12  O6  UNL     1     -16.489  19.856   6.777  1.00  0.00    -0.262 OA
BRANCH  10  13
HETATM   13  O2  UNL     1     -15.683  23.174   5.891  1.00  0.00    -0.126 OA
BRANCH  13  14
HETATM   14  S1  UNL     1     -15.743  24.527   6.757  1.00  0.00     0.274 S
HETATM   15  O3  UNL     1     -14.370  25.071   7.162  1.00  0.00    -0.571 OA
HETATM   16  O4  UNL     1     -16.403  24.323   8.143  1.00  0.00    -0.571 OA
HETATM   17  O5  UNL     1     -16.652  25.712   6.017  1.00  0.00    -0.571 OA
ENDBRANCH  13  14
ENDBRANCH  10  13
BRANCH  11  18
HETATM   18  C8  UNL     1     -14.461  20.912   7.246  1.00  0.00     0.206 A
HETATM   19  N8  UNL     1     -13.695  19.841   7.269  1.00  0.00    -0.170 N
HETATM   20  C9  UNL     1     -12.469  19.824   7.738  1.00  0.00     0.692 A
ATOM     21  H8  UNL     1     -14.078  18.971   6.898  1.00  0.00     0.186 HD
HETATM   22  N9  UNL     1     -11.685  18.770   7.759  1.00  0.00    -0.234 N
HETATM   23  N10 UNL     1     -11.942  20.991   8.235  1.00  0.00    -0.023 N
ATOM     24  H92 UNL     1     -12.077  17.904   7.390  1.00  0.00     0.174 HD
ATOM     25  H91 UNL     1     -10.732  18.757   8.123  1.00  0.00     0.174 HD
HETATM   26  C10 UNL     1     -12.674  22.109   8.235  1.00  0.00     0.692 A
ATOM     27  H10 UNL     1     -10.992  21.005   8.605  1.00  0.00     0.203 HD
HETATM   28  N12 UNL     1     -13.920  22.070   7.747  1.00  0.00    -0.170 N
ATOM     29  H12 UNL     1     -14.480  22.921   7.748  1.00  0.00     0.186 HD
BRANCH  26  30
HETATM   30  N11 UNL     1     -12.180  23.237   8.715  1.00  0.00    -0.234 N
ATOM     31 2H11 UNL     1     -11.171  23.363   8.801  1.00  0.00     0.174 HD
ATOM     32 1H11 UNL     1     -12.799  23.995   9.000  1.00  0.00     0.174 HD
ENDBRANCH  26  30
ENDBRANCH  11  18
ENDBRANCH   9  10
ENDBRANCH   8   9
ENDBRANCH   4   8
BRANCH   5  33
HETATM   33  C12 UNL     1     -19.201  19.975   2.550  1.00  0.00     0.208 C
BRANCH  33  34
HETATM   34  O7  UNL     1     -19.895  18.849   2.933  1.00  0.00    -0.386 OA
ATOM     35  H7  UNL     1     -19.353  18.143   3.265  1.00  0.00     0.210 HD
ENDBRANCH  33  34
BRANCH  33  36
HETATM   36  C13 UNL     1     -18.872  19.807   1.064  1.00  0.00     0.287 C
BRANCH  36  37
HETATM   37  O8  UNL     1     -17.921  20.831   0.765  1.00  0.00    -0.369 OA
ATOM     38  H8  UNL     1     -17.565  20.607  -0.086  1.00  0.00     0.212 HD
ENDBRANCH  36  37
BRANCH  36  39
HETATM   39  O9  UNL     1     -18.150  18.619   0.845  1.00  0.00    -0.369 OA
ATOM     40  H9  UNL     1     -18.699  17.964   0.433  1.00  0.00     0.212 HD
ENDBRANCH  36  39
ENDBRANCH  33  36
ENDBRANCH   5  33
BRANCH   1  41
HETATM   41  N5  UNL     1     -21.904  24.838   3.578  1.00  0.00    -0.047 N
HETATM   42  C2  UNL     1     -22.202  25.772   2.701  1.00  0.00     0.740 A
HETATM   43  N2  UNL     1     -22.893  26.750   3.347  1.00  0.00    -0.116 N
HETATM   44  N3  UNL     1     -23.006  26.402   4.599  1.00  0.00    -0.211 N
ATOM     45  H2  UNL     1     -23.258  27.604   2.926  1.00  0.00     0.207 HD
HETATM   46  N4  UNL     1     -22.405  25.235   4.741  1.00  0.00     0.018 NA
ATOM     47  H3  UNL     1     -23.472  26.935   5.333  1.00  0.00     0.206 HD
BRANCH  42  48
HETATM   48  N1  UNL     1     -21.909  25.860   1.332  1.00  0.00    -0.092 N
HETATM   49  C1  UNL     1     -20.697  26.527   0.892  1.00  0.00     0.205 C
BRANCH  48  50
HETATM   50  O1  UNL     1     -22.728  25.345   0.413  1.00  0.00    -0.274 OA
ATOM     51  H1  UNL     1     -22.387  24.699  -0.193  1.00  0.00     0.245 HD
ENDBRANCH  48  50
ENDBRANCH  42  48
ENDBRANCH   1  41
BRANCH   7  52
HETATM   52  O10 UNL     1     -23.055  22.852   2.132  1.00  0.00    -0.357 OA
ATOM     53  H10 UNL     1     -23.467  22.157   1.633  1.00  0.00     0.218 HD
ENDBRANCH   7  52
TORSDOF 16
ENDMDL