MODEL 1
REMARK VINA RESULT: -9.281605588      0.000      0.000
REMARK  15 active torsions:
REMARK  status: ('A' for Active; 'I' for Inactive)
REMARK    1  A    between atoms: C2_2  and  O2_4
REMARK    2  A    between atoms: O2_4  and  C3_5
REMARK    3  A    between atoms: C4_6  and  C5_7
REMARK    4  A    between atoms: C5_7  and  S1_8
REMARK    5  A    between atoms: S1_8  and  C6_9
REMARK    6  A    between atoms: C6_9  and  C7_10
REMARK    7  A    between atoms: C7_10  and  C8_11
REMARK    8  A    between atoms: C8_11  and  N1_12
REMARK    9  A    between atoms: C8_11  and  N6_22
REMARK   10  A    between atoms: N1_12  and  N2_14
REMARK   11  A    between atoms: C11_29  and  O3_30
REMARK   12  A    between atoms: C12_32  and  N10_33
REMARK   13  A    between atoms: C13_40  and  N12_41
REMARK   14  A    between atoms: C15_45  and  N14_46
REMARK   15  A    between atoms: C16_51  and  N16_52
ROOT
HETATM    1  C3  UNL     1     -18.730  22.892   3.124  1.00  0.00     0.192 A
HETATM    2  C4  UNL     1     -18.891  21.523   3.778  1.00  0.00     0.086 A
HETATM    3  C12 UNL     1     -19.849  20.822   2.897  1.00  0.00     0.390 A
HETATM    4  N11 UNL     1     -20.225  21.653   1.786  1.00  0.00    -0.021 N
ATOM      5 1H11 UNL     1     -21.236  21.750   1.696  1.00  0.00     0.282 HD
ATOM      6 2H11 UNL     1     -20.046  21.205   0.887  1.00  0.00     0.282 HD
HETATM    7  C13 UNL     1     -19.566  22.911   1.909  1.00  0.00     0.341 A
ENDROOT
BRANCH   2   8
HETATM    8  C5  UNL     1     -19.280  21.649   5.208  1.00  0.00     0.085 C
BRANCH   8   9
HETATM    9  S1  UNL     1     -18.144  20.885   6.327  1.00  0.00    -0.168 SA
BRANCH   9  10
HETATM   10  C6  UNL     1     -16.672  21.752   6.777  1.00  0.00     0.077 C
BRANCH  10  11
HETATM   11  C7  UNL     1     -15.471  21.271   5.931  1.00  0.00     0.060 C
BRANCH  11  12
HETATM   12  C8  UNL     1     -14.205  21.519   6.689  1.00  0.00     0.229 C
BRANCH  12  13
HETATM   13  N1  UNL     1     -14.426  22.550   7.675  1.00  0.00    -0.274 N
ATOM     14  H1  UNL     1     -15.216  22.418   8.306  1.00  0.00     0.186 HD
BRANCH  13  15
HETATM   15  N2  UNL     1     -13.673  23.702   7.850  1.00  0.00    -0.118 N
HETATM   16  N3  UNL     1     -14.130  24.951   7.634  1.00  0.00    -0.258 N
HETATM   17  C9  UNL     1     -13.148  25.821   7.878  1.00  0.00     0.219 A
ATOM     18  H3  UNL     1     -15.074  25.193   7.332  1.00  0.00     0.191 HD
HETATM   19  N4  UNL     1     -12.102  25.072   8.243  1.00  0.00    -0.278 N
HETATM   20  N5  UNL     1     -12.418  23.772   8.227  1.00  0.00    -0.205 N
ATOM     21  H4  UNL     1     -11.186  25.442   8.500  1.00  0.00     0.189 HD
ATOM     22  H5  UNL     1     -11.805  22.990   8.461  1.00  0.00     0.212 HD
ENDBRANCH  13  15
ENDBRANCH  12  13
BRANCH  12  23
HETATM   23  N6  UNL     1     -13.685  20.349   7.349  1.00  0.00    -0.228 N
HETATM   24  N7  UNL     1     -14.462  19.275   7.567  1.00  0.00    -0.235 N
HETATM   25  N8  UNL     1     -13.774  18.339   8.187  1.00  0.00    -0.269 N
ATOM     26  H7  UNL     1     -15.442  19.197   7.294  1.00  0.00     0.208 HD
HETATM   27  C10 UNL     1     -12.526  18.772   8.392  1.00  0.00     0.184 A
ATOM     28  H8  UNL     1     -14.136  17.428   8.467  1.00  0.00     0.190 HD
HETATM   29  N9  UNL     1     -11.437  18.122   9.014  1.00  0.00    -0.076 NA
HETATM   30  C11 UNL     1     -12.494  20.051   7.852  1.00  0.00     0.204 A
BRANCH  30  31
HETATM   31  O3  UNL     1     -11.382  20.898   7.835  1.00  0.00    -0.342 OA
ATOM     32  H3  UNL     1     -10.567  20.735   8.295  1.00  0.00     0.219 HD
ENDBRANCH  30  31
ENDBRANCH  12  23
ENDBRANCH  11  12
ENDBRANCH  10  11
ENDBRANCH   9  10
ENDBRANCH   8   9
ENDBRANCH   2   8
BRANCH   1  33
HETATM   33  O2  UNL     1     -17.372  23.225   2.931  1.00  0.00    -0.312 OA
BRANCH  33  34
HETATM   34  C2  UNL     1     -16.776  24.377   3.423  1.00  0.00     0.255 C
HETATM   35  C1  UNL     1     -16.677  24.669   4.888  1.00  0.00     0.126 C
HETATM   36  O1  UNL     1     -16.317  25.177   2.556  1.00  0.00    -0.266 OA
ENDBRANCH  33  34
ENDBRANCH   1  33
BRANCH   3  37
HETATM   37  N10 UNL     1     -19.246  19.624   2.301  1.00  0.00    -0.050 N
ATOM     38 3H10 UNL     1     -18.248  19.753   2.130  1.00  0.00     0.276 HD
ATOM     39 2H10 UNL     1     -19.193  18.858   2.972  1.00  0.00     0.276 HD
ATOM     40 1H10 UNL     1     -19.738  19.345   1.452  1.00  0.00     0.276 HD
ENDBRANCH   3  37
BRANCH   7  41
HETATM   41  N12 UNL     1     -18.874  23.307   0.691  1.00  0.00    -0.237 N
HETATM   42  C14 UNL     1     -18.254  22.630  -0.290  1.00  0.00     0.172 A
HETATM   43  N13 UNL     1     -17.820  21.510  -0.910  1.00  0.00    -0.173 N
HETATM   44  C17 UNL     1     -17.974  23.825  -0.891  1.00  0.00     0.141 A
HETATM   45  C15 UNL     1     -17.139  21.548  -2.069  1.00  0.00     0.679 A
ATOM     46  H13 UNL     1     -18.016  20.604  -0.484  1.00  0.00     0.186 HD
HETATM   47  N15 UNL     1     -16.856  22.739  -2.673  1.00  0.00    -0.175 N
HETATM   48  C16 UNL     1     -17.273  23.869  -2.085  1.00  0.00     0.147 A
ATOM     49  H15 UNL     1     -16.339  22.768  -3.552  1.00  0.00     0.186 HD
HETATM   50  N17 UNL     1     -18.609  24.457   0.122  1.00  0.00    -0.284 N
HETATM   51  C18 UNL     1     -18.821  25.875   0.334  1.00  0.00     0.178 C
BRANCH  45  52
HETATM   52  N14 UNL     1     -16.737  20.466  -2.637  1.00  0.00    -0.234 N
ATOM     53 2H14 UNL     1     -16.196  19.801  -2.084  1.00  0.00     0.174 HD
ATOM     54 1H14 UNL     1     -16.954  20.275  -3.616  1.00  0.00     0.174 HD
ENDBRANCH  45  52
BRANCH  48  55
HETATM   55  N16 UNL     1     -17.012  24.989  -2.646  1.00  0.00    -0.383 N
ATOM     56 2H16 UNL     1     -16.337  25.043  -3.408  1.00  0.00     0.157 HD
ATOM     57 1H16 UNL     1     -17.491  25.827  -2.317  1.00  0.00     0.157 HD
ENDBRANCH  48  55
ENDBRANCH   7  41
TORSDOF 15
ENDMDL