MODEL 4
REMARK VINA RESULT: -8.239811645      1.135      1.717
REMARK  10 active torsions:
REMARK  status: ('A' for Active; 'I' for Inactive)
REMARK    1  A    between atoms: C2_5  and  C3_6
REMARK    2  A    between atoms: N3_8  and  C5_9
REMARK    3  A    between atoms: C6_10  and  C7_11
REMARK    4  A    between atoms: C7_11  and  O1_12
REMARK    5  A    between atoms: C7_11  and  O2_14
REMARK    6  A    between atoms: C8_16  and  C9_17
REMARK       I    between atoms: C9_17  and  N4_19
REMARK    7  A    between atoms: C12_27  and  N8_28
REMARK    8  A    between atoms: C14_39  and  C15_40
REMARK    9  A    between atoms: C15_40  and  N12_41
REMARK   10  A    between atoms: C15_40  and  O4_45
ROOT
HETATM    1  C9  UNL     1      11.000  82.133  -3.896  1.00  0.00     0.283 C
HETATM    2  O3  UNL     1      11.322  82.915  -4.874  1.00  0.00    -0.265 OA
HETATM    3  N4  UNL     1       9.615  82.060  -3.657  1.00  0.00    -0.258 N
ATOM      4  H4  UNL     1       9.268  81.457  -2.911  1.00  0.00     0.181 HD
HETATM    5  C10 UNL     1       8.702  82.801  -4.424  1.00  0.00     0.184 C
HETATM    6  N5  UNL     1       7.926  83.423  -5.052  1.00  0.00    -0.172 NA
ENDROOT
BRANCH   1   7
HETATM    7  C8  UNL     1      12.028  81.437  -3.179  1.00  0.00     0.132 A
HETATM    8  C6  UNL     1      12.665  81.717  -2.018  1.00  0.00     0.076 A
HETATM    9  C5  UNL     1      13.522  80.653  -1.725  1.00  0.00     0.158 A
HETATM   10  N7  UNL     1      13.381  79.762  -2.721  1.00  0.00    -0.279 N
HETATM   11  N6  UNL     1      12.498  80.220  -3.586  1.00  0.00    -0.291 N
HETATM   12  C11 UNL     1      14.118  78.494  -2.778  1.00  0.00     0.179 C
ATOM     13  H6  UNL     1      12.207  79.736  -4.436  1.00  0.00     0.187 HD
BRANCH   8  14
HETATM   14  C7  UNL     1      12.563  82.909  -1.154  1.00  0.00     0.294 C
BRANCH  14  15
HETATM   15  O1  UNL     1      11.325  83.036  -0.519  1.00  0.00    -0.367 OA
ATOM     16  H1  UNL     1      10.731  83.633  -0.959  1.00  0.00     0.213 HD
ENDBRANCH  14  15
BRANCH  14  17
HETATM   17  O2  UNL     1      12.812  84.101  -1.809  1.00  0.00    -0.367 OA
ATOM     18  H2  UNL     1      12.077  84.703  -1.807  1.00  0.00     0.213 HD
ENDBRANCH  14  17
ENDBRANCH   8  14
BRANCH   9  19
HETATM   19  N3  UNL     1      14.384  80.509  -0.605  1.00  0.00    -0.140 N
HETATM   20  C4  UNL     1      15.580  81.087  -0.530  1.00  0.00     0.136 A
HETATM   21  C3  UNL     1      16.377  80.917   0.602  1.00  0.00     0.070 A
HETATM   22  C13 UNL     1      15.904  80.143   1.637  1.00  0.00     0.130 A
HETATM   23  N9  UNL     1      14.666  79.554   1.542  1.00  0.00    -0.176 N
HETATM   24  N10 UNL     1      16.549  79.936   2.690  1.00  0.00    -0.384 N
HETATM   25  C12 UNL     1      13.956  79.753   0.441  1.00  0.00     0.685 A
ATOM     26  H9  UNL     1      14.302  78.978   2.301  1.00  0.00     0.186 HD
ATOM     27 2H10 UNL     1      17.468  80.374   2.761  1.00  0.00     0.157 HD
ATOM     28 1H10 UNL     1      16.198  79.363   3.456  1.00  0.00     0.157 HD
BRANCH  21  29
HETATM   29  C2  UNL     1      17.685  81.584   0.613  1.00  0.00     0.137 A
HETATM   30  N2  UNL     1      18.469  81.800   1.693  1.00  0.00    -0.281 N
HETATM   31  N1  UNL     1      19.584  82.432   1.325  1.00  0.00    -0.279 N
ATOM     32  H2  UNL     1      18.242  81.520   2.647  1.00  0.00     0.189 HD
HETATM   33  C1  UNL     1      20.680  82.842   2.206  1.00  0.00     0.179 C
HETATM   34  C14 UNL     1      19.525  82.625   0.010  1.00  0.00     0.156 A
HETATM   35  N11 UNL     1      18.367  82.105  -0.402  1.00  0.00    -0.325 N
ATOM     36  H11 UNL     1      18.048  82.108  -1.371  1.00  0.00     0.169 HD
BRANCH  34  37
HETATM   37  C15 UNL     1      20.542  83.294  -0.873  1.00  0.00     0.386 C
BRANCH  37  38
HETATM   38  N12 UNL     1      19.883  83.531  -2.167  1.00  0.00    -0.046 N
ATOM     39 3H12 UNL     1      20.450  83.247  -2.965  1.00  0.00     0.277 HD
ATOM     40 2H12 UNL     1      19.097  82.905  -2.340  1.00  0.00     0.277 HD
ATOM     41 1H12 UNL     1      19.625  84.518  -2.185  1.00  0.00     0.277 HD
ENDBRANCH  37  38
BRANCH  37  42
HETATM   42  O4  UNL     1      21.581  82.391  -1.049  1.00  0.00    -0.364 OA
ATOM     43  H4  UNL     1      22.018  82.305  -0.210  1.00  0.00     0.212 HD
ENDBRANCH  37  42
ENDBRANCH  34  37
ENDBRANCH  21  29
BRANCH  25  44
HETATM   44  N8  UNL     1      12.768  79.189   0.357  1.00  0.00    -0.234 N
ATOM     45  H82 UNL     1      12.267  78.991   1.224  1.00  0.00     0.174 HD
ATOM     46  H81 UNL     1      12.398  78.978  -0.570  1.00  0.00     0.174 HD
ENDBRANCH  25  44
ENDBRANCH   9  19
ENDBRANCH   1   7
TORSDOF 10
ENDMDL