MODEL 4
REMARK VINA RESULT: -7.059637304      2.374      3.093
REMARK  13 active torsions:
REMARK  status: ('A' for Active; 'I' for Inactive)
REMARK       I    between atoms: N1_2  and  C2_4
REMARK    1  A    between atoms: C2_4  and  C3_6
REMARK    2  A    between atoms: C4_9  and  C5_10
REMARK    3  A    between atoms: C8_15  and  N4_16
REMARK    4  A    between atoms: N6_21  and  N7_22
REMARK    5  A    between atoms: N7_22  and  O2_24
REMARK    6  A    between atoms: N8_26  and  C10_27
REMARK    7  A    between atoms: C10_27  and  C11_28
REMARK    8  A    between atoms: C10_27  and  C12_31
REMARK    9  A    between atoms: C11_28  and  O3_29
REMARK   10  A    between atoms: C12_31  and  O4_32
REMARK   11  A    between atoms: C12_31  and  O5_34
REMARK   12  A    between atoms: C13_36  and  O6_37
REMARK   13  A    between atoms: C14_41  and  N10_42
ROOT
HETATM    1  C5  UNL     1      15.546  80.499  -4.441  1.00  0.00     0.142 A
HETATM    2  N3  UNL     1      16.536  79.981  -5.292  1.00  0.00    -0.323 N
ATOM      3  H3  UNL     1      17.374  80.542  -5.441  1.00  0.00     0.169 HD
HETATM    4  C6  UNL     1      16.457  78.826  -5.909  1.00  0.00     0.161 A
HETATM    5  C7  UNL     1      15.353  78.063  -5.728  1.00  0.00     0.166 A
HETATM    6  C8  UNL     1      14.350  78.553  -4.878  1.00  0.00     0.137 A
HETATM    7  N5  UNL     1      14.478  79.769  -4.245  1.00  0.00    -0.320 N
HETATM    8  C9  UNL     1      13.528  79.990  -3.165  1.00  0.00     0.159 C
HETATM    9  N6  UNL     1      15.892  77.168  -6.550  1.00  0.00    -0.165 N
HETATM   10  N8  UNL     1      16.969  77.882  -6.744  1.00  0.00    -0.239 N
ENDROOT
BRANCH   1  11
HETATM   11  C4  UNL     1      15.913  81.773  -3.852  1.00  0.00     0.129 A
HETATM   12  N2  UNL     1      16.604  81.664  -2.670  1.00  0.00    -0.342 N
HETATM   13  C3  UNL     1      17.185  82.644  -1.983  1.00  0.00     0.145 A
ATOM     14  H2  UNL     1      16.681  80.726  -2.275  1.00  0.00     0.166 HD
HETATM   15  C14 UNL     1      17.074  83.901  -2.531  1.00  0.00     0.133 A
HETATM   16  N9  UNL     1      16.410  84.066  -3.690  1.00  0.00    -0.320 N
HETATM   17  C13 UNL     1      15.831  83.020  -4.355  1.00  0.00     0.173 A
ATOM     18  H9  UNL     1      16.335  85.003  -4.085  1.00  0.00     0.169 HD
BRANCH  13  19
HETATM   19  C2  UNL     1      17.873  82.315  -0.739  1.00  0.00     0.271 C
HETATM   20  N1  UNL     1      17.314  81.650   0.343  1.00  0.00    -0.360 N
HETATM   21  C1  UNL     1      18.168  81.408   1.525  1.00  0.00     0.149 C
ATOM     22  H1  UNL     1      16.343  81.338   0.324  1.00  0.00     0.162 HD
HETATM   23  O1  UNL     1      19.090  82.676  -0.680  1.00  0.00    -0.266 OA
ENDBRANCH  13  19
BRANCH  15  24
HETATM   24  N10 UNL     1      17.662  84.903  -1.997  1.00  0.00    -0.383 N
ATOM     25 2H10 UNL     1      17.574  85.058  -0.993  1.00  0.00     0.157 HD
ATOM     26 1H10 UNL     1      18.164  85.581  -2.570  1.00  0.00     0.157 HD
ENDBRANCH  15  24
BRANCH  17  27
HETATM   27  O6  UNL     1      15.215  83.354  -5.537  1.00  0.00    -0.344 OA
ATOM     28  H6  UNL     1      14.900  84.222  -5.761  1.00  0.00     0.219 HD
ENDBRANCH  17  27
ENDBRANCH   1  11
BRANCH   6  29
HETATM   29  N4  UNL     1      13.314  77.839  -4.758  1.00  0.00    -0.383 N
ATOM     30  H42 UNL     1      13.290  77.013  -4.162  1.00  0.00     0.157 HD
ATOM     31  H41 UNL     1      12.486  78.151  -5.267  1.00  0.00     0.157 HD
ENDBRANCH   6  29
BRANCH  10  32
HETATM   32  C10 UNL     1      18.217  77.823  -7.487  1.00  0.00     0.190 C
BRANCH  32  33
HETATM   33  C11 UNL     1      19.323  77.244  -6.654  1.00  0.00     0.196 C
BRANCH  33  34
HETATM   34  O3  UNL     1      19.067  77.203  -5.305  1.00  0.00    -0.399 OA
ATOM     35  H3  UNL     1      18.165  77.004  -5.078  1.00  0.00     0.209 HD
ENDBRANCH  33  34
ENDBRANCH  32  33
BRANCH  32  36
HETATM   36  C12 UNL     1      18.070  77.103  -8.809  1.00  0.00     0.280 C
BRANCH  36  37
HETATM   37  O4  UNL     1      16.834  77.500  -9.358  1.00  0.00    -0.369 OA
ATOM     38  H4  UNL     1      16.792  77.140 -10.236  1.00  0.00     0.212 HD
ENDBRANCH  36  37
BRANCH  36  39
HETATM   39  O5  UNL     1      17.981  75.746  -8.597  1.00  0.00    -0.369 OA
ATOM     40  H5  UNL     1      17.142  75.424  -8.906  1.00  0.00     0.212 HD
ENDBRANCH  36  39
ENDBRANCH  32  36
ENDBRANCH  10  32
BRANCH   9  41
HETATM   41  N7  UNL     1      15.427  75.930  -7.004  1.00  0.00    -0.188 N
ATOM     42  H7  UNL     1      15.564  75.109  -6.415  1.00  0.00     0.218 HD
BRANCH  41  43
HETATM   43  O2  UNL     1      14.847  75.793  -8.104  1.00  0.00    -0.273 OA
ATOM     44  H2  UNL     1      15.308  75.537  -8.895  1.00  0.00     0.246 HD
ENDBRANCH  41  43
ENDBRANCH   9  41
TORSDOF 13
ENDMDL