MODEL 4
REMARK VINA RESULT: -8.939082701      1.241      1.399
REMARK  9 active torsions:
REMARK  status: ('A' for Active; 'I' for Inactive)
REMARK    1  A    between atoms: C2_2  and  C13_39
REMARK    2  A    between atoms: N1_3  and  N2_5
REMARK    3  A    between atoms: N2_5  and  O1_6
REMARK       I    between atoms: N2_5  and  C3_8
REMARK    4  A    between atoms: C3_8  and  C4_10
REMARK    5  A    between atoms: C6_12  and  N3_13
REMARK    6  A    between atoms: N3_13  and  C7_15
REMARK    7  A    between atoms: C7_15  and  O3_16
REMARK    8  A    between atoms: C7_15  and  C8_18
REMARK    9  A    between atoms: C10_30  and  N9_31
ROOT
HETATM    1  C4  UNL     1      14.392  79.552  -4.054  1.00  0.00     0.108 A
HETATM    2  C5  UNL     1      15.080  79.550  -2.836  1.00  0.00     0.067 A
HETATM    3  C6  UNL     1      14.590  80.263  -1.771  1.00  0.00     0.064 A
HETATM    4  C9  UNL     1      13.406  80.975  -1.948  1.00  0.00     0.120 A
HETATM    5  N8  UNL     1      12.702  81.744  -1.112  1.00  0.00    -0.186 N
ATOM      6  H8  UNL     1      12.958  81.934  -0.143  1.00  0.00     0.184 HD
HETATM    7  C10 UNL     1      11.597  82.239  -1.734  1.00  0.00     0.680 A
HETATM    8  N10 UNL     1      11.630  81.756  -2.987  1.00  0.00    -0.170 N
HETATM    9  C11 UNL     1      10.667  81.999  -4.041  1.00  0.00     0.177 C
HETATM   10  C12 UNL     1      12.731  80.977  -3.143  1.00  0.00     0.153 A
HETATM   11  N11 UNL     1      13.245  80.267  -4.154  1.00  0.00    -0.335 N
ATOM     12  H11 UNL     1      12.748  80.263  -5.046  1.00  0.00     0.168 HD
ENDROOT
BRANCH   1  13
HETATM   13  C3  UNL     1      14.924  78.793  -5.170  1.00  0.00     0.313 C
HETATM   14  N2  UNL     1      15.914  79.337  -6.021  1.00  0.00    -0.120 N
HETATM   15  O2  UNL     1      14.507  77.641  -5.391  1.00  0.00    -0.262 OA
BRANCH  14  16
HETATM   16  N1  UNL     1      16.421  78.602  -7.093  1.00  0.00    -0.272 N
HETATM   17  C2  UNL     1      17.439  77.841  -6.932  1.00  0.00     0.070 C
HETATM   18  C1  UNL     1      18.063  77.756  -5.594  1.00  0.00     0.074 C
ATOM     19  H1  UNL     1      15.979  78.672  -8.010  1.00  0.00     0.189 HD
BRANCH  17  20
HETATM   20  C13 UNL     1      17.974  77.071  -8.048  1.00  0.00     0.155 C
HETATM   21  N12 UNL     1      18.654  77.477  -9.055  1.00  0.00    -0.269 N
HETATM   22  N13 UNL     1      18.987  76.441  -9.915  1.00  0.00    -0.007 NA
ATOM     23  H12 UNL     1      18.920  78.450  -9.207  1.00  0.00     0.185 HD
HETATM   24  N14 UNL     1      18.711  75.232  -9.256  1.00  0.00    -0.007 NA
HETATM   25  N15 UNL     1      17.833  75.660  -8.235  1.00  0.00    -0.269 N
ATOM     26  H15 UNL     1      17.198  75.056  -7.713  1.00  0.00     0.185 HD
ENDBRANCH  17  20
ENDBRANCH  14  16
BRANCH  14  27
HETATM   27  O1  UNL     1      16.397  80.598  -5.810  1.00  0.00    -0.265 OA
ATOM     28  H1  UNL     1      16.408  80.935  -4.922  1.00  0.00     0.247 HD
ENDBRANCH  14  27
ENDBRANCH   1  13
BRANCH   3  29
HETATM   29  N3  UNL     1      15.218  80.315  -0.505  1.00  0.00    -0.356 N
ATOM     30  H3  UNL     1      14.768  79.883   0.302  1.00  0.00     0.162 HD
BRANCH  29  31
HETATM   31  C7  UNL     1      16.484  80.970  -0.349  1.00  0.00     0.290 C
BRANCH  31  32
HETATM   32  O3  UNL     1      16.447  82.335  -0.620  1.00  0.00    -0.369 OA
ATOM     33  H3  UNL     1      15.975  82.555  -1.415  1.00  0.00     0.212 HD
ENDBRANCH  31  32
BRANCH  31  34
HETATM   34  C8  UNL     1      17.024  80.830   1.036  1.00  0.00     0.162 A
HETATM   35  N4  UNL     1      16.434  80.163   2.043  1.00  0.00    -0.269 N
HETATM   36  N5  UNL     1      17.192  80.250   3.110  1.00  0.00    -0.227 N
ATOM     37  H4  UNL     1      15.543  79.669   1.986  1.00  0.00     0.190 HD
HETATM   38  N6  UNL     1      18.258  80.958   2.818  1.00  0.00    -0.227 N
ATOM     39  H5  UNL     1      16.986  79.835   4.018  1.00  0.00     0.210 HD
HETATM   40  N7  UNL     1      18.160  81.314   1.555  1.00  0.00    -0.269 N
ATOM     41  H6  UNL     1      19.022  81.190   3.454  1.00  0.00     0.210 HD
ATOM     42  H7  UNL     1      18.846  81.874   1.048  1.00  0.00     0.190 HD
ENDBRANCH  31  34
ENDBRANCH  29  31
ENDBRANCH   3  29
BRANCH   7  43
HETATM   43  N9  UNL     1      10.695  83.014  -1.235  1.00  0.00    -0.234 N
ATOM     44  H92 UNL     1      10.613  83.301  -0.260  1.00  0.00     0.174 HD
ATOM     45  H91 UNL     1       9.922  83.464  -1.725  1.00  0.00     0.174 HD
ENDBRANCH   7  43
TORSDOF 9
ENDMDL