MODEL 3
REMARK VINA RESULT: -9.049021674      3.417      6.032
REMARK  9 active torsions:
REMARK  status: ('A' for Active; 'I' for Inactive)
REMARK    1  A    between atoms: C2_2  and  C3_4
REMARK    2  A    between atoms: C3_4  and  C8_27
REMARK    3  A    between atoms: N1_5  and  N2_7
REMARK    4  A    between atoms: N2_7  and  C4_9
REMARK    5  A    between atoms: C5_12  and  N4_13
REMARK    6  A    between atoms: N4_13  and  N5_15
REMARK       I    between atoms: N5_15  and  C6_17
REMARK    7  A    between atoms: C9_30  and  C10_31
REMARK    8  A    between atoms: C14_40  and  N13_41
REMARK    9  A    between atoms: N14_44  and  N15_45
ROOT
HETATM    1  C3  UNL     1      14.657  80.354  -3.344  1.00  0.00     0.139 C
HETATM    2  N1  UNL     1      14.686  79.319  -4.109  1.00  0.00    -0.295 N
ATOM      3  H1  UNL     1      13.807  78.817  -4.231  1.00  0.00     0.187 HD
ENDROOT
BRANCH   1   4
HETATM    4  C2  UNL     1      15.828  81.157  -3.083  1.00  0.00     0.177 C
HETATM    5  C1  UNL     1      16.158  82.301  -3.944  1.00  0.00     0.098 C
HETATM    6  O1  UNL     1      16.558  80.850  -2.097  1.00  0.00    -0.291 OA
ENDBRANCH   1   4
BRANCH   1   7
HETATM    7  C8  UNL     1      13.326  80.647  -2.760  1.00  0.00     0.161 A
HETATM    8  N10 UNL     1      12.437  81.455  -3.346  1.00  0.00    -0.335 N
HETATM    9  C9  UNL     1      11.234  81.744  -2.854  1.00  0.00     0.090 A
ATOM     10  H10 UNL     1      12.700  81.882  -4.234  1.00  0.00     0.168 HD
HETATM   11  C13 UNL     1      10.839  81.188  -1.657  1.00  0.00     0.084 A
HETATM   12  C14 UNL     1      11.734  80.350  -1.029  1.00  0.00     0.124 A
HETATM   13  N14 UNL     1      12.937  80.103  -1.584  1.00  0.00    -0.228 N
BRANCH   9  14
HETATM   14  C10 UNL     1      10.325  82.649  -3.582  1.00  0.00     0.191 A
HETATM   15  N11 UNL     1      10.369  83.993  -3.534  1.00  0.00    -0.276 N
HETATM   16  N12 UNL     1       9.383  84.441  -4.327  1.00  0.00    -0.281 N
ATOM     17  H11 UNL     1      11.025  84.562  -2.999  1.00  0.00     0.189 HD
HETATM   18  C11 UNL     1       8.745  83.381  -4.851  1.00  0.00     0.136 A
ATOM     19  H12 UNL     1       9.158  85.420  -4.502  1.00  0.00     0.189 HD
HETATM   20  C12 UNL     1       7.588  83.421  -5.785  1.00  0.00     0.099 C
HETATM   21  O2  UNL     1       9.341  82.328  -4.378  1.00  0.00    -0.276 OA
ENDBRANCH   9  14
BRANCH  12  22
HETATM   22  N13 UNL     1      11.458  79.778   0.103  1.00  0.00    -0.384 N
ATOM     23 2H13 UNL     1      10.529  79.923   0.497  1.00  0.00     0.157 HD
ATOM     24 1H13 UNL     1      12.139  79.197   0.592  1.00  0.00     0.157 HD
ENDBRANCH  12  22
BRANCH  13  25
HETATM   25  N15 UNL     1      13.814  79.244  -0.910  1.00  0.00    -0.335 N
ATOM     26 2H15 UNL     1      14.769  79.158  -1.259  1.00  0.00     0.177 HD
ATOM     27 1H15 UNL     1      13.477  78.734  -0.093  1.00  0.00     0.177 HD
ENDBRANCH  13  25
ENDBRANCH   1   7
BRANCH   2  28
HETATM   28  N2  UNL     1      15.779  78.820  -4.779  1.00  0.00    -0.294 N
ATOM     29  H2  UNL     1      16.659  79.337  -4.773  1.00  0.00     0.184 HD
BRANCH  28  30
HETATM   30  C4  UNL     1      15.684  77.548  -5.501  1.00  0.00     0.320 A
HETATM   31  N3  UNL     1      16.916  77.229  -6.171  1.00  0.00    -0.185 N
HETATM   32  C5  UNL     1      17.081  77.083  -7.433  1.00  0.00     0.696 A
ATOM     33  H3  UNL     1      17.740  77.108  -5.582  1.00  0.00     0.181 HD
HETATM   34  N8  UNL     1      15.973  77.239  -8.300  1.00  0.00    -0.187 N
HETATM   35  C7  UNL     1      14.803  77.523  -7.854  1.00  0.00     0.196 A
ATOM     36  H8  UNL     1      16.107  77.123  -9.304  1.00  0.00     0.185 HD
HETATM   37  N9  UNL     1      14.622  77.685  -6.467  1.00  0.00    -0.347 N
ATOM     38  H9  UNL     1      13.688  77.912  -6.127  1.00  0.00     0.164 HD
BRANCH  32  39
HETATM   39  N4  UNL     1      18.359  76.764  -7.999  1.00  0.00    -0.130 N
ATOM     40  H4  UNL     1      18.398  76.141  -8.805  1.00  0.00     0.205 HD
BRANCH  39  41
HETATM   41  N5  UNL     1      19.546  77.272  -7.490  1.00  0.00    -0.260 N
HETATM   42  C6  UNL     1      20.736  76.500  -7.698  1.00  0.00     0.201 C
HETATM   43  N6  UNL     1      21.918  77.023  -7.642  1.00  0.00    -0.372 N
HETATM   44  N7  UNL     1      20.657  75.108  -7.978  1.00  0.00    -0.062 NA
ATOM     45  H62 UNL     1      21.974  78.022  -7.441  1.00  0.00     0.158 HD
ATOM     46  H61 UNL     1      22.764  76.474  -7.789  1.00  0.00     0.158 HD
ATOM     47  H5  UNL     1      19.571  78.160  -6.988  1.00  0.00     0.190 HD
ENDBRANCH  39  41
ENDBRANCH  32  39
ENDBRANCH  28  30
ENDBRANCH   2  28
TORSDOF 9
ENDMDL