MODEL 1
REMARK VINA RESULT: -8.273770226      0.000      0.000
REMARK  11 active torsions:
REMARK  status: ('A' for Active; 'I' for Inactive)
REMARK    1  A    between atoms: N1_2  and  C2_4
REMARK    2  A    between atoms: C3_7  and  N3_8
REMARK    3  A    between atoms: C4_13  and  O1_14
REMARK    4  A    between atoms: C6_16  and  C7_17
REMARK    5  A    between atoms: C8_22  and  C9_23
REMARK    6  A    between atoms: C9_23  and  N7_24
REMARK    7  A    between atoms: C9_23  and  N8_28
REMARK    8  A    between atoms: N8_28  and  N9_29
REMARK    9  A    between atoms: C12_36  and  N11_37
REMARK   10  A    between atoms: C13_44  and  N15_45
REMARK   11  A    between atoms: N15_45  and  O2_47
ROOT
HETATM    1  C7  UNL     1      14.987  81.546  -1.514  1.00  0.00     0.096 A
HETATM    2  N5  UNL     1      14.860  82.877  -1.430  1.00  0.00    -0.297 N
ATOM      3  H5  UNL     1      14.584  83.313  -0.551  1.00  0.00     0.187 HD
HETATM    4  N6  UNL     1      15.092  83.603  -2.477  1.00  0.00    -0.299 N
ATOM      5  H6  UNL     1      14.986  84.612  -2.374  1.00  0.00     0.186 HD
HETATM    6  C8  UNL     1      15.462  83.142  -3.693  1.00  0.00     0.103 A
HETATM    7  C10 UNL     1      15.597  81.776  -3.795  1.00  0.00     0.108 A
HETATM    8  C11 UNL     1      15.356  80.955  -2.690  1.00  0.00     0.108 A
HETATM    9  N10 UNL     1      15.567  79.667  -3.071  1.00  0.00    -0.184 N
ATOM     10  H10 UNL     1      15.471  78.839  -2.483  1.00  0.00     0.184 HD
HETATM   11  C12 UNL     1      15.925  79.688  -4.363  1.00  0.00     0.723 A
HETATM   12  N16 UNL     1      15.947  80.973  -4.816  1.00  0.00    -0.181 N
HETATM   13  C14 UNL     1      16.286  81.419  -6.125  1.00  0.00     0.176 C
ENDROOT
BRANCH   1  14
HETATM   14  C6  UNL     1      14.741  80.664  -0.370  1.00  0.00     0.090 A
HETATM   15  C2  UNL     1      13.527  80.020  -0.256  1.00  0.00     0.133 A
HETATM   16  N2  UNL     1      13.309  79.208   0.798  1.00  0.00    -0.176 N
HETATM   17  C3  UNL     1      14.306  79.070   1.692  1.00  0.00     0.679 A
ATOM     18  H2  UNL     1      12.422  78.717   0.914  1.00  0.00     0.186 HD
HETATM   19  N4  UNL     1      15.493  79.690   1.592  1.00  0.00    -0.170 N
HETATM   20  C4  UNL     1      15.759  80.520   0.548  1.00  0.00     0.173 A
ATOM     21  H4  UNL     1      16.202  79.538   2.309  1.00  0.00     0.186 HD
BRANCH  15  22
HETATM   22  N1  UNL     1      12.592  80.179  -1.136  1.00  0.00    -0.379 N
HETATM   23  C1  UNL     1      11.336  80.774  -0.774  1.00  0.00     0.147 C
ATOM     24  H1  UNL     1      12.749  79.878  -2.097  1.00  0.00     0.160 HD
ENDBRANCH  15  22
BRANCH  17  25
HETATM   25  N3  UNL     1      14.099  78.287   2.709  1.00  0.00    -0.234 N
ATOM     26  H32 UNL     1      13.795  78.703   3.589  1.00  0.00     0.174 HD
ATOM     27  H31 UNL     1      14.254  77.288   2.575  1.00  0.00     0.174 HD
ENDBRANCH  17  25
BRANCH  20  28
HETATM   28  O1  UNL     1      16.989  81.157   0.453  1.00  0.00    -0.340 OA
HETATM   29  C5  UNL     1      17.911  81.021   1.499  1.00  0.00     0.211 C
ENDBRANCH  20  28
ENDBRANCH   1  14
BRANCH   6  30
HETATM   30  C9  UNL     1      15.656  84.116  -4.743  1.00  0.00     0.348 C
BRANCH  30  31
HETATM   31  N7  UNL     1      14.491  85.052  -4.628  1.00  0.00    -0.054 N
ATOM     32  H73 UNL     1      14.250  85.521  -5.501  1.00  0.00     0.276 HD
ATOM     33  H72 UNL     1      13.595  84.582  -4.496  1.00  0.00     0.276 HD
ATOM     34  H71 UNL     1      14.737  85.691  -3.871  1.00  0.00     0.276 HD
ENDBRANCH  30  31
BRANCH  30  35
HETATM   35  N8  UNL     1      16.785  84.957  -4.370  1.00  0.00    -0.108 NA
BRANCH  35  36
HETATM   36  N9  UNL     1      17.996  84.331  -4.681  1.00  0.00    -0.346 N
ATOM     37  H92 UNL     1      18.079  83.549  -5.330  1.00  0.00     0.172 HD
ATOM     38  H91 UNL     1      18.768  84.761  -4.172  1.00  0.00     0.172 HD
ENDBRANCH  35  36
ENDBRANCH  30  35
ENDBRANCH   6  30
BRANCH  11  39
HETATM   39  N11 UNL     1      16.249  78.576  -5.209  1.00  0.00     0.109 N
HETATM   40  N12 UNL     1      17.390  78.377  -5.841  1.00  0.00    -0.191 N
HETATM   41  N13 UNL     1      17.335  77.252  -6.527  1.00  0.00    -0.212 N
ATOM     42  H12 UNL     1      18.195  79.000  -5.804  1.00  0.00     0.211 HD
HETATM   43  N14 UNL     1      16.165  76.709  -6.353  1.00  0.00    -0.112 N
ATOM     44  H13 UNL     1      18.087  76.869  -7.101  1.00  0.00     0.210 HD
HETATM   45  C13 UNL     1      15.474  77.523  -5.531  1.00  0.00     0.755 A
ATOM     46  H14 UNL     1      15.833  75.834  -6.760  1.00  0.00     0.207 HD
BRANCH  45  47
HETATM   47  N15 UNL     1      14.153  77.295  -5.090  1.00  0.00    -0.095 N
ATOM     48  H15 UNL     1      14.004  76.761  -4.233  1.00  0.00     0.213 HD
BRANCH  47  49
HETATM   49  O2  UNL     1      13.069  77.763  -5.772  1.00  0.00    -0.276 OA
ATOM     50  H2  UNL     1      12.349  77.198  -6.025  1.00  0.00     0.245 HD
ENDBRANCH  47  49
ENDBRANCH  45  47
ENDBRANCH  11  39
TORSDOF 11
ENDMDL