MODEL 2
REMARK VINA RESULT: -7.839041015      4.659      9.191
REMARK  11 active torsions:
REMARK  status: ('A' for Active; 'I' for Inactive)
REMARK    1  A    between atoms: N1_1  and  C1_5
REMARK    2  A    between atoms: C1_5  and  O1_6
REMARK    3  A    between atoms: C1_5  and  C2_8
REMARK    4  A    between atoms: C4_10  and  O2_11
REMARK    5  A    between atoms: C5_13  and  N2_14
REMARK    6  A    between atoms: N3_16  and  N4_18
REMARK       I    between atoms: N4_18  and  C6_20
REMARK    7  A    between atoms: C6_20  and  C7_22
REMARK    8  A    between atoms: N6_26  and  O5_27
REMARK    9  A    between atoms: C8_29  and  O6_30
REMARK   10  A    between atoms: O6_30  and  N7_31
REMARK   11  A    between atoms: C9_38  and  N12_39
ROOT
HETATM    1  N2  UNL     1      21.206  77.838  -7.993  1.00  0.00    -0.280 N
ATOM      2  H2  UNL     1      22.183  77.937  -7.715  1.00  0.00     0.188 HD
HETATM    3  N3  UNL     1      20.334  77.911  -7.082  1.00  0.00    -0.239 N
ATOM      4  H3  UNL     1      20.628  78.065  -6.117  1.00  0.00     0.208 HD
ENDROOT
BRANCH   3   5
HETATM    5  N4  UNL     1      18.953  77.783  -7.378  1.00  0.00    -0.250 N
HETATM    6  C6  UNL     1      18.073  77.462  -6.340  1.00  0.00     0.294 C
HETATM    7  O3  UNL     1      18.551  77.292  -5.164  1.00  0.00    -0.264 OA
ATOM      8  H4  UNL     1      18.609  77.922  -8.329  1.00  0.00     0.192 HD
BRANCH   6   9
HETATM    9  C7  UNL     1      16.654  77.309  -6.513  1.00  0.00     0.183 A
HETATM   10  N5  UNL     1      16.042  76.539  -7.478  1.00  0.00    -0.229 N
HETATM   11  O4  UNL     1      14.760  76.632  -7.336  1.00  0.00    -0.125 OA
ATOM     12  H5  UNL     1      16.521  75.985  -8.189  1.00  0.00     0.197 HD
HETATM   13  N6  UNL     1      14.484  77.416  -6.342  1.00  0.00    -0.073 N
HETATM   14  C8  UNL     1      15.647  77.874  -5.781  1.00  0.00     0.261 A
BRANCH  13  15
HETATM   15  O5  UNL     1      13.221  77.757  -5.889  1.00  0.00    -0.259 OA
ATOM     16  H5  UNL     1      13.007  78.135  -5.043  1.00  0.00     0.247 HD
ENDBRANCH  13  15
BRANCH  14  17
HETATM   17  O6  UNL     1      15.683  78.730  -4.691  1.00  0.00    -0.173 OA
BRANCH  17  18
HETATM   18  N7  UNL     1      14.644  78.750  -3.759  1.00  0.00    -0.059 N
HETATM   19  N8  UNL     1      14.309  77.838  -2.871  1.00  0.00    -0.184 N
HETATM   20  N9  UNL     1      13.261  78.267  -2.193  1.00  0.00     0.012 NA
ATOM     21  H8  UNL     1      14.782  76.945  -2.730  1.00  0.00     0.209 HD
HETATM   22  N10 UNL     1      12.923  79.476  -2.659  1.00  0.00     0.012 NA
HETATM   23  N11 UNL     1      13.794  79.743  -3.621  1.00  0.00    -0.184 N
ATOM     24  H11 UNL     1      13.803  80.598  -4.177  1.00  0.00     0.209 HD
ENDBRANCH  17  18
ENDBRANCH  14  17
ENDBRANCH   6   9
ENDBRANCH   3   5
BRANCH   1  25
HETATM   25  C5  UNL     1      20.940  77.630  -9.362  1.00  0.00     0.133 A
HETATM   26  C4  UNL     1      21.323  78.512 -10.342  1.00  0.00     0.099 A
HETATM   27  C3  UNL     1      21.045  78.277 -11.671  1.00  0.00     0.068 A
HETATM   28  C2  UNL     1      20.372  77.134 -12.016  1.00  0.00     0.069 A
HETATM   29  N13 UNL     1      20.008  76.290 -11.047  1.00  0.00    -0.335 N
HETATM   30  C9  UNL     1      20.266  76.493  -9.738  1.00  0.00     0.205 A
ATOM     31  H13 UNL     1      19.507  75.442 -11.312  1.00  0.00     0.167 HD
BRANCH  26  32
HETATM   32  O2  UNL     1      22.012  79.667  -9.930  1.00  0.00    -0.358 OA
ATOM     33  H2  UNL     1      21.897  80.497 -10.377  1.00  0.00     0.217 HD
ENDBRANCH  26  32
BRANCH  28  34
HETATM   34  C1  UNL     1      20.047  76.834 -13.447  1.00  0.00     0.367 C
BRANCH  34  35
HETATM   35  N1  UNL     1      20.827  77.747 -14.261  1.00  0.00    -0.047 N
ATOM     36  H13 UNL     1      21.798  77.808 -13.953  1.00  0.00     0.277 HD
ATOM     37  H12 UNL     1      20.996  77.383 -15.199  1.00  0.00     0.277 HD
ATOM     38  H11 UNL     1      20.368  78.657 -14.276  1.00  0.00     0.277 HD
ENDBRANCH  34  35
BRANCH  34  39
HETATM   39  O1  UNL     1      20.380  75.542 -13.776  1.00  0.00    -0.365 OA
ATOM     40  H1  UNL     1      19.585  75.048 -13.941  1.00  0.00     0.212 HD
ENDBRANCH  34  39
ENDBRANCH  28  34
BRANCH  30  41
HETATM   41  N12 UNL     1      19.821  75.511  -8.819  1.00  0.00    -0.095 N
HETATM   42  O7  UNL     1      18.651  75.113  -8.890  1.00  0.00    -0.530 OA
HETATM   43  O8  UNL     1      20.738  75.061  -7.897  1.00  0.00    -0.530 OA
ENDBRANCH  30  41
ENDBRANCH   1  25
TORSDOF 11
ENDMDL