MODEL 1
REMARK VINA RESULT: -8.973173744      0.000      0.000
REMARK  8 active torsions:
REMARK  status: ('A' for Active; 'I' for Inactive)
REMARK    1  A    between atoms: O1_2  and  C2_3
REMARK    2  A    between atoms: C2_3  and  O2_5
REMARK    3  A    between atoms: O2_5  and  C4_6
REMARK    4  A    between atoms: C6_12  and  N3_13
REMARK    5  A    between atoms: N3_13  and  N4_15
REMARK    6  A    between atoms: N5_17  and  C7_19
REMARK    7  A    between atoms: C9_23  and  N7_24
REMARK    8  A    between atoms: C13_40  and  N12_41
ROOT
HETATM    1  C7  UNL     1      15.167  81.387  -3.132  1.00  0.00     0.173 A
HETATM    2  N6  UNL     1      16.172  81.581  -2.230  1.00  0.00    -0.333 N
ATOM      3  H6  UNL     1      17.016  82.086  -2.502  1.00  0.00     0.168 HD
HETATM    4  C8  UNL     1      16.043  81.101  -0.975  1.00  0.00     0.111 A
HETATM    5  C9  UNL     1      17.159  81.398  -0.217  1.00  0.00     0.144 C
HETATM    6  N8  UNL     1      17.413  81.134   1.091  1.00  0.00    -0.175 N
ATOM      7  H8  UNL     1      18.249  81.573   1.475  1.00  0.00     0.186 HD
HETATM    8  C10 UNL     1      16.711  80.373   1.950  1.00  0.00     0.680 C
HETATM    9  N9  UNL     1      17.170  80.211   3.146  1.00  0.00    -0.234 N
ATOM     10  H91 UNL     1      16.638  79.634   3.798  1.00  0.00     0.174 HD
ATOM     11  H92 UNL     1      18.050  80.696   3.322  1.00  0.00     0.174 HD
HETATM   12  N10 UNL     1      15.539  79.727   1.715  1.00  0.00    -0.154 N
ATOM     13  H10 UNL     1      15.280  79.029   2.412  1.00  0.00     0.187 HD
HETATM   14  C11 UNL     1      14.667  79.873   0.697  1.00  0.00     0.288 C
HETATM   15  O3  UNL     1      13.495  79.484   0.880  1.00  0.00    -0.265 OA
HETATM   16  C12 UNL     1      14.924  80.415  -0.558  1.00  0.00     0.134 A
HETATM   17  N11 UNL     1      13.931  80.222  -1.441  1.00  0.00    -0.328 N
ATOM     18  H11 UNL     1      13.091  79.717  -1.162  1.00  0.00     0.168 HD
HETATM   19  C13 UNL     1      14.048  80.701  -2.715  1.00  0.00     0.220 A
ENDROOT
BRANCH   1  20
HETATM   20  N5  UNL     1      15.253  81.869  -4.460  1.00  0.00    -0.267 N
HETATM   21  N4  UNL     1      15.679  81.118  -5.375  1.00  0.00    -0.227 N
ATOM     22  H4  UNL     1      15.744  81.460  -6.334  1.00  0.00     0.209 HD
ATOM     23  H5  UNL     1      14.970  82.825  -4.674  1.00  0.00     0.190 HD
BRANCH  21  24
HETATM   24  N3  UNL     1      16.060  79.817  -5.068  1.00  0.00    -0.116 N
ATOM     25  H3  UNL     1      16.546  79.611  -4.195  1.00  0.00     0.207 HD
BRANCH  24  26
HETATM   26  C6  UNL     1      15.763  78.781  -5.989  1.00  0.00     0.710 C
HETATM   27  N2  UNL     1      14.879  77.882  -5.722  1.00  0.00    -0.135 N
HETATM   28  N1  UNL     1      14.634  76.887  -6.676  1.00  0.00    -0.318 N
ATOM     29  H2  UNL     1      14.372  77.895  -4.837  1.00  0.00     0.205 HD
HETATM   30  C5  UNL     1      15.761  76.415  -7.436  1.00  0.00     0.194 C
ATOM     31  H1  UNL     1      13.697  76.513  -6.825  1.00  0.00     0.180 HD
HETATM   32  C4  UNL     1      16.622  77.521  -7.958  1.00  0.00     0.260 C
HETATM   33  N13 UNL     1      16.450  78.747  -7.219  1.00  0.00    -0.195 N
ATOM     34  H13 UNL     1      16.836  79.613  -7.596  1.00  0.00     0.180 HD
BRANCH  32  35
HETATM   35  O2  UNL     1      17.962  77.155  -7.880  1.00  0.00    -0.335 OA
BRANCH  35  36
HETATM   36  C2  UNL     1      18.374  76.427  -8.994  1.00  0.00     0.257 C
HETATM   37  C3  UNL     1      19.076  77.285 -10.016  1.00  0.00     0.071 C
BRANCH  36  38
HETATM   38  O1  UNL     1      19.119  75.315  -8.632  1.00  0.00    -0.366 OA
HETATM   39  C1  UNL     1      20.230  75.666  -7.869  1.00  0.00     0.204 C
ENDBRANCH  36  38
ENDBRANCH  35  36
ENDBRANCH  32  35
ENDBRANCH  24  26
ENDBRANCH  21  24
ENDBRANCH   1  20
BRANCH  19  40
HETATM   40  N12 UNL     1      12.995  80.499  -3.655  1.00  0.00    -0.094 N
HETATM   41  O4  UNL     1      12.962  79.443  -4.347  1.00  0.00    -0.530 OA
HETATM   42  O5  UNL     1      11.978  81.391  -3.875  1.00  0.00    -0.530 OA
ENDBRANCH  19  40
BRANCH   5  43
HETATM   43  N7  UNL     1      18.127  82.013  -0.796  1.00  0.00    -0.383 N
ATOM     44  H72 UNL     1      18.704  81.392  -1.363  1.00  0.00     0.157 HD
ATOM     45  H71 UNL     1      18.214  83.016  -0.635  1.00  0.00     0.157 HD
ENDBRANCH   5  43
TORSDOF 8
ENDMDL