MODEL 2
REMARK VINA RESULT: -7.958757561      1.096      1.512
REMARK  13 active torsions:
REMARK  status: ('A' for Active; 'I' for Inactive)
REMARK    1  A    between atoms: N1_1  and  C1_4
REMARK    2  A    between atoms: C2_7  and  N3_8
REMARK    3  A    between atoms: N3_8  and  N4_10
REMARK    4  A    between atoms: N5_12  and  N6_14
REMARK    5  A    between atoms: N6_14  and  O1_15
REMARK    6  A    between atoms: N6_14  and  N7_17
REMARK    7  A    between atoms: N7_17  and  O2_21
REMARK    8  A    between atoms: C3_23  and  O3_24
REMARK    9  A    between atoms: O3_24  and  C4_25
REMARK       I    between atoms: C4_25  and  N9_27
REMARK   10  A    between atoms: C5_30  and  C6_31
REMARK   11  A    between atoms: C6_31  and  O5_32
REMARK   12  A    between atoms: C6_31  and  O6_34
REMARK   13  A    between atoms: C8_39  and  N11_40
ROOT
HETATM    1  C1  UNL     1      10.142  82.222  -3.048  1.00  0.00     0.679 A
HETATM    2  N2  UNL     1      10.641  80.996  -3.322  1.00  0.00    -0.173 N
ATOM      3  H2  UNL     1      10.046  80.287  -3.749  1.00  0.00     0.186 HD
HETATM    4  C2  UNL     1      11.919  80.712  -3.031  1.00  0.00     0.174 A
HETATM    5  C3  UNL     1      12.698  81.687  -2.456  1.00  0.00     0.170 A
HETATM    6  C8  UNL     1      12.173  82.927  -2.187  1.00  0.00     0.153 A
HETATM    7  N12 UNL     1      10.876  83.195  -2.488  1.00  0.00    -0.174 N
ATOM      8  H12 UNL     1      10.472  84.111  -2.294  1.00  0.00     0.186 HD
ENDROOT
BRANCH   4   9
HETATM    9  N3  UNL     1      12.483  79.450  -3.297  1.00  0.00    -0.267 N
ATOM     10  H3  UNL     1      12.176  78.653  -2.740  1.00  0.00     0.190 HD
BRANCH   9  11
HETATM   11  N4  UNL     1      13.442  79.241  -4.286  1.00  0.00    -0.227 N
HETATM   12  N5  UNL     1      13.562  78.130  -4.888  1.00  0.00    -0.202 N
ATOM     13  H5  UNL     1      12.926  77.375  -4.628  1.00  0.00     0.208 HD
ATOM     14  H4  UNL     1      14.069  80.007  -4.535  1.00  0.00     0.209 HD
BRANCH  12  15
HETATM   15  N6  UNL     1      14.493  77.877  -5.870  1.00  0.00     0.054 NA
BRANCH  15  16
HETATM   16  O1  UNL     1      14.259  76.635  -6.374  1.00  0.00    -0.272 OA
ATOM     17  H1  UNL     1      14.857  76.488  -7.097  1.00  0.00     0.241 HD
ENDBRANCH  15  16
BRANCH  15  18
HETATM   18  N7  UNL     1      15.809  77.920  -5.409  1.00  0.00    -0.077 N
HETATM   19  N8  UNL     1      16.691  77.121  -5.888  1.00  0.00    -0.304 N
ATOM     20  H82 UNL     1      16.381  76.468  -6.607  1.00  0.00     0.180 HD
ATOM     21  H81 UNL     1      17.653  77.153  -5.550  1.00  0.00     0.180 HD
BRANCH  18  22
HETATM   22  O2  UNL     1      16.223  78.794  -4.446  1.00  0.00    -0.255 OA
ATOM     23  H2  UNL     1      16.778  79.541  -4.636  1.00  0.00     0.248 HD
ENDBRANCH  18  22
ENDBRANCH  15  18
ENDBRANCH  12  15
ENDBRANCH   9  11
ENDBRANCH   4   9
BRANCH   5  24
HETATM   24  O3  UNL     1      14.029  81.470  -2.127  1.00  0.00    -0.252 OA
BRANCH  24  25
HETATM   25  C4  UNL     1      14.437  80.906  -0.942  1.00  0.00     0.393 C
HETATM   26  O4  UNL     1      13.604  80.169  -0.357  1.00  0.00    -0.236 OA
HETATM   27  N9  UNL     1      15.763  81.153  -0.399  1.00  0.00    -0.180 N
HETATM   28  N10 UNL     1      16.132  80.625   0.701  1.00  0.00    -0.281 N
HETATM   29  C7  UNL     1      16.633  81.942  -1.042  1.00  0.00     0.171 A
HETATM   30  C5  UNL     1      17.339  80.860   1.177  1.00  0.00     0.124 A
ATOM     31  H10 UNL     1      15.493  80.018   1.215  1.00  0.00     0.188 HD
HETATM   32  S1  UNL     1      17.992  81.895  -0.012  1.00  0.00    -0.039 SA
HETATM   33  S2  UNL     1      16.402  82.739  -2.474  1.00  0.00    -0.050 SA
BRANCH  30  34
HETATM   34  C6  UNL     1      17.930  80.317   2.457  1.00  0.00     0.314 C
BRANCH  34  35
HETATM   35  O5  UNL     1      16.859  80.118   3.325  1.00  0.00    -0.365 OA
ATOM     36  H5  UNL     1      16.198  79.651   2.827  1.00  0.00     0.213 HD
ENDBRANCH  34  35
BRANCH  34  37
HETATM   37  O6  UNL     1      18.730  81.303   3.025  1.00  0.00    -0.365 OA
ATOM     38  H6  UNL     1      19.493  81.426   2.472  1.00  0.00     0.213 HD
ENDBRANCH  34  37
ENDBRANCH  30  34
ENDBRANCH  24  25
ENDBRANCH   5  24
BRANCH   1  39
HETATM   39  N1  UNL     1       8.889  82.450  -3.352  1.00  0.00    -0.234 N
ATOM     40  H12 UNL     1       8.321  81.700  -3.745  1.00  0.00     0.174 HD
ATOM     41  H11 UNL     1       8.523  83.386  -3.178  1.00  0.00     0.174 HD
ENDBRANCH   1  39
BRANCH   6  42
HETATM   42  N11 UNL     1      12.860  83.869  -1.651  1.00  0.00    -0.383 N
ATOM     43 2H11 UNL     1      13.664  84.216  -2.173  1.00  0.00     0.157 HD
ATOM     44 1H11 UNL     1      12.629  84.271  -0.742  1.00  0.00     0.157 HD
ENDBRANCH   6  42
TORSDOF 13
ENDMDL