MODEL 3
REMARK VINA RESULT: -7.308059135      0.979      1.106
REMARK  9 active torsions:
REMARK  status: ('A' for Active; 'I' for Inactive)
REMARK    1  A    between atoms: C2_2  and  C3_4
REMARK    2  A    between atoms: C3_4  and  N1_5
REMARK    3  A    between atoms: C3_4  and  C4_9
REMARK    4  A    between atoms: C5_14  and  C6_15
REMARK    5  A    between atoms: C7_16  and  O2_17
REMARK    6  A    between atoms: C8_19  and  O3_20
REMARK    7  A    between atoms: C10_24  and  N5_25
REMARK       I    between atoms: N5_25  and  C11_27
REMARK       I    between atoms: C11_27  and  N6_28
REMARK       I    between atoms: C11_27  and  N7_32
REMARK    8  A    between atoms: N8_36  and  C12_37
REMARK    9  A    between atoms: C13_43  and  N11_44
ROOT
HETATM    1  C6  UNL     1      13.485  81.605  -1.422  1.00  0.00     0.113 A
HETATM    2  C7  UNL     1      12.967  80.599  -0.573  1.00  0.00     0.131 A
HETATM    3  C8  UNL     1      13.731  79.959   0.351  1.00  0.00     0.129 A
HETATM    4  C9  UNL     1      15.078  80.341   0.433  1.00  0.00     0.126 A
HETATM    5  N4  UNL     1      15.823  79.625   1.425  1.00  0.00    -0.095 NA
HETATM    6  C10 UNL     1      15.598  81.312  -0.378  1.00  0.00     0.140 A
HETATM    7  N8  UNL     1      14.756  81.913  -1.289  1.00  0.00    -0.272 N
ENDROOT
BRANCH   1   8
HETATM    8  C5  UNL     1      12.559  82.174  -2.411  1.00  0.00     0.154 A
HETATM    9  N3  UNL     1      11.762  83.221  -2.062  1.00  0.00    -0.291 N
HETATM   10  N2  UNL     1      10.953  83.772  -2.944  1.00  0.00    -0.280 N
ATOM     11  H3  UNL     1      11.791  83.581  -1.108  1.00  0.00     0.187 HD
HETATM   12  C4  UNL     1      10.860  83.354  -4.215  1.00  0.00     0.180 A
ATOM     13  H2  UNL     1      10.371  84.555  -2.647  1.00  0.00     0.189 HD
HETATM   14  O6  UNL     1      11.618  82.350  -4.569  1.00  0.00    -0.256 OA
HETATM   15  C14 UNL     1      12.450  81.763  -3.708  1.00  0.00     0.320 A
HETATM   16  O5  UNL     1      13.127  80.817  -4.156  1.00  0.00    -0.257 OA
BRANCH  12  17
HETATM   17  C3  UNL     1       9.922  84.012  -5.187  1.00  0.00     0.327 C
BRANCH  17  18
HETATM   18  C2  UNL     1       8.576  83.413  -5.112  1.00  0.00     0.161 C
HETATM   19  C1  UNL     1       7.608  83.629  -6.215  1.00  0.00     0.093 C
HETATM   20  O1  UNL     1       8.210  82.727  -4.160  1.00  0.00    -0.296 OA
ENDBRANCH  17  18
BRANCH  17  21
HETATM   21  N1  UNL     1      10.415  83.971  -6.517  1.00  0.00    -0.061 N
ATOM     22  H13 UNL     1      10.069  83.157  -7.024  1.00  0.00     0.275 HD
ATOM     23  H12 UNL     1      10.000  84.700  -7.097  1.00  0.00     0.275 HD
ATOM     24  H11 UNL     1      11.434  84.016  -6.524  1.00  0.00     0.275 HD
ENDBRANCH  17  21
ENDBRANCH  12  17
ENDBRANCH   1   8
BRANCH   2  25
HETATM   25  O2  UNL     1      11.627  80.295  -0.732  1.00  0.00    -0.356 OA
ATOM     26  H2  UNL     1      11.388  79.383  -0.618  1.00  0.00     0.218 HD
ENDBRANCH   2  25
BRANCH   7  27
HETATM   27  C12 UNL     1      15.340  82.894  -2.163  1.00  0.00     0.182 A
HETATM   28  N9  UNL     1      15.369  84.239  -1.913  1.00  0.00    -0.221 N
HETATM   29  O4  UNL     1      15.956  84.807  -2.910  1.00  0.00    -0.153 OA
ATOM     30  H9  UNL     1      14.995  84.708  -1.089  1.00  0.00     0.198 HD
HETATM   31  N10 UNL     1      16.316  83.960  -3.792  1.00  0.00    -0.222 N
HETATM   32  C13 UNL     1      15.954  82.743  -3.375  1.00  0.00     0.168 A
ATOM     33  H10 UNL     1      16.797  84.174  -4.667  1.00  0.00     0.198 HD
BRANCH  32  34
HETATM   34  N11 UNL     1      16.180  81.661  -4.029  1.00  0.00    -0.381 N
ATOM     35 2H11 UNL     1      15.897  81.510  -4.996  1.00  0.00     0.157 HD
ATOM     36 1H11 UNL     1      16.665  80.819  -3.718  1.00  0.00     0.157 HD
ENDBRANCH  32  34
ENDBRANCH   7  27
BRANCH   3  37
HETATM   37  O3  UNL     1      13.229  78.976   1.182  1.00  0.00    -0.356 OA
ATOM     38  H3  UNL     1      13.679  78.154   1.334  1.00  0.00     0.218 HD
ENDBRANCH   3  37
BRANCH   6  39
HETATM   39  N5  UNL     1      16.802  81.650  -0.316  1.00  0.00    -0.325 N
HETATM   40  C11 UNL     1      17.977  81.152   0.232  1.00  0.00     0.481 C
HETATM   41  N6  UNL     1      19.158  81.850  -0.342  1.00  0.00    -0.033 N
HETATM   42  N7  UNL     1      18.078  81.476   1.670  1.00  0.00    -0.033 N
ATOM     43  H63 UNL     1      19.166  81.805  -1.361  1.00  0.00     0.278 HD
ATOM     44  H62 UNL     1      19.090  82.862  -0.235  1.00  0.00     0.278 HD
ATOM     45  H61 UNL     1      20.021  81.484   0.061  1.00  0.00     0.278 HD
ATOM     46  H73 UNL     1      17.984  82.478   1.836  1.00  0.00     0.278 HD
ATOM     47  H72 UNL     1      17.259  81.153   2.185  1.00  0.00     0.278 HD
ATOM     48  H71 UNL     1      18.941  81.110   2.073  1.00  0.00     0.278 HD
ATOM     49  H5  UNL     1      16.965  82.533  -0.801  1.00  0.00     0.165 HD
ENDBRANCH   6  39
TORSDOF 9
ENDMDL