MODEL 5
REMARK VINA RESULT: -8.914973272      2.259      8.534
REMARK  8 active torsions:
REMARK  status: ('A' for Active; 'I' for Inactive)
REMARK    1  A    between atoms: C2_10  and  C3_11
REMARK    2  A    between atoms: C4_14  and  C5_15
REMARK    3  A    between atoms: C6_18  and  N5_19
REMARK       I    between atoms: N5_19  and  C7_21
REMARK    4  A    between atoms: C7_21  and  C8_23
REMARK    5  A    between atoms: C9_26  and  C10_27
REMARK    6  A    between atoms: C11_35  and  C12_36
REMARK    7  A    between atoms: C12_36  and  O5_37
REMARK    8  A    between atoms: C12_36  and  O6_39
ROOT
HETATM    1  N5  UNL     1      15.797  79.150  -5.001  1.00  0.00    -0.325 N
ATOM      2  H5  UNL     1      16.774  79.185  -4.711  1.00  0.00     0.165 HD
HETATM    3  C7  UNL     1      14.843  79.518  -4.036  1.00  0.00     0.295 C
HETATM    4  O4  UNL     1      13.609  79.517  -4.275  1.00  0.00    -0.264 OA
ENDROOT
BRANCH   1   5
HETATM    5  C6  UNL     1      15.548  78.738  -6.326  1.00  0.00     0.265 C
HETATM    6  C4  UNL     1      15.271  77.282  -6.530  1.00  0.00     0.234 C
HETATM    7  N4  UNL     1      16.625  76.781  -6.655  1.00  0.00    -0.351 N
HETATM    8  C3  UNL     1      17.385  77.740  -7.056  1.00  0.00     0.174 C
ATOM      9  H4  UNL     1      16.926  75.825  -6.459  1.00  0.00     0.162 HD
HETATM   10  O8  UNL     1      16.628  78.910  -7.222  1.00  0.00    -0.305 OA
BRANCH   6  11
HETATM   11  C5  UNL     1      14.518  76.998  -7.749  1.00  0.00     0.201 C
HETATM   12  O2  UNL     1      14.398  75.824  -8.158  1.00  0.00    -0.646 OA
HETATM   13  O3  UNL     1      13.922  78.014  -8.472  1.00  0.00    -0.646 OA
ENDBRANCH   6  11
BRANCH   8  14
HETATM   14  C2  UNL     1      18.821  77.575  -7.287  1.00  0.00     0.152 A
HETATM   15  C1  UNL     1      19.473  77.521  -8.497  1.00  0.00     0.154 A
HETATM   16  N1  UNL     1      18.988  77.598  -9.681  1.00  0.00    -0.382 N
HETATM   17  N2  UNL     1      20.793  77.360  -8.164  1.00  0.00    -0.224 N
ATOM     18  H12 UNL     1      19.472  77.558 -10.578  1.00  0.00     0.157 HD
ATOM     19  H11 UNL     1      18.006  77.718  -9.929  1.00  0.00     0.157 HD
HETATM   20  O1  UNL     1      20.944  77.320  -6.896  1.00  0.00    -0.155 OA
ATOM     21  H2  UNL     1      21.554  77.282  -8.839  1.00  0.00     0.198 HD
HETATM   22  N3  UNL     1      19.775  77.447  -6.347  1.00  0.00    -0.234 N
ATOM     23  H3  UNL     1      19.604  77.451  -5.341  1.00  0.00     0.197 HD
ENDBRANCH   8  14
ENDBRANCH   1   5
BRANCH   3  24
HETATM   24  C8  UNL     1      15.237  79.928  -2.692  1.00  0.00     0.218 A
HETATM   25  N6  UNL     1      14.767  79.511  -1.505  1.00  0.00    -0.327 N
HETATM   26  C9  UNL     1      15.411  80.151  -0.496  1.00  0.00     0.116 A
ATOM     27  H6  UNL     1      14.033  78.813  -1.381  1.00  0.00     0.168 HD
HETATM   28  C11 UNL     1      16.303  80.983  -1.119  1.00  0.00     0.140 A
HETATM   29  O7  UNL     1      16.148  80.802  -2.419  1.00  0.00    -0.286 OA
BRANCH  26  30
HETATM   30  C10 UNL     1      15.118  79.924   0.918  1.00  0.00     0.164 A
HETATM   31  N7  UNL     1      13.885  79.617   1.418  1.00  0.00    -0.270 N
HETATM   32  N8  UNL     1      13.961  79.491   2.704  1.00  0.00    -0.225 N
ATOM     33  H7  UNL     1      13.035  79.504   0.865  1.00  0.00     0.190 HD
HETATM   34  N9  UNL     1      15.207  79.704   3.093  1.00  0.00    -0.005 NA
ATOM     35  H8  UNL     1      13.181  79.263   3.321  1.00  0.00     0.205 HD
HETATM   36  N10 UNL     1      15.902  79.966   2.000  1.00  0.00    -0.265 N
ATOM     37  H10 UNL     1      16.900  80.173   1.984  1.00  0.00     0.186 HD
ENDBRANCH  26  30
BRANCH  28  38
HETATM   38  C12 UNL     1      17.258  81.904  -0.467  1.00  0.00     0.315 C
BRANCH  38  39
HETATM   39  O5  UNL     1      18.180  81.297   0.366  1.00  0.00    -0.365 OA
ATOM     40  H5  UNL     1      19.051  81.200  -0.002  1.00  0.00     0.213 HD
ENDBRANCH  38  39
BRANCH  38  41
HETATM   41  O6  UNL     1      17.965  82.661  -1.393  1.00  0.00    -0.365 OA
ATOM     42  H6  UNL     1      17.924  83.590  -1.198  1.00  0.00     0.213 HD
ENDBRANCH  38  41
ENDBRANCH  28  38
ENDBRANCH   3  24
TORSDOF 8
ENDMDL