MODEL 5
REMARK VINA RESULT: -6.395650356      2.706      2.756
REMARK  2 active torsions:
REMARK  status: ('A' for Active; 'I' for Inactive)
REMARK    1  A    between atoms: C7_8  and  S1_9
REMARK    2  A    between atoms: S1_9  and  C8_10
ROOT
HETATM    1  C8  UNL     1      90.865   9.020  36.793  1.00  0.00     0.130 A
HETATM    2  N1  UNL     1      90.506   9.412  38.020  1.00  0.00    -0.286 N
ATOM      3  H1  UNL     1      89.834  10.170  38.135  1.00  0.00     0.188 HD
HETATM    4  N2  UNL     1      90.996   8.850  39.030  1.00  0.00    -0.279 N
ATOM      5  H2  UNL     1      90.720   9.150  39.965  1.00  0.00     0.189 HD
HETATM    6  C9  UNL     1      91.880   7.857  38.879  1.00  0.00     0.159 A
HETATM    7  N3  UNL     1      92.497   7.153  39.792  1.00  0.00    -0.379 N
ATOM      8  H31 UNL     1      93.170   6.395  39.676  1.00  0.00     0.158 HD
ATOM      9  H32 UNL     1      92.445   7.202  40.809  1.00  0.00     0.158 HD
HETATM   10  S2  UNL     1      91.967   7.774  37.175  1.00  0.00    -0.027 SA
ENDROOT
BRANCH   1  11
HETATM   11  S1  UNL     1      90.175   9.729  35.352  1.00  0.00    -0.098 SA
BRANCH  11  12
HETATM   12  C7  UNL     1      90.294  11.434  35.078  1.00  0.00     0.065 C
HETATM   13  C2  UNL     1      90.356  11.795  33.633  1.00  0.00    -0.004 C
HETATM   14  C1  UNL     1      89.222  11.267  32.850  1.00  0.00     0.019 C
HETATM   15  C3  UNL     1      91.704  11.304  33.112  1.00  0.00     0.019 C
HETATM   16  C4  UNL     1      90.318  13.308  33.703  1.00  0.00     0.179 C
HETATM   17  F1  UNL     1      89.918  13.836  32.489  1.00  0.00    -0.249 F
HETATM   18  C5  UNL     1      89.271  13.554  34.758  1.00  0.00     0.039 C
HETATM   19  C6  UNL     1      89.100  12.262  35.525  1.00  0.00     0.019 C
ENDBRANCH  11  12
ENDBRANCH   1  11
TORSDOF 2
ENDMDL