MODEL 5
REMARK VINA RESULT: -6.302309595      4.318      5.975
REMARK  5 active torsions:
REMARK  status: ('A' for Active; 'I' for Inactive)
REMARK    1  A    between atoms: C2_2  and  N2_7
REMARK    2  A    between atoms: N1_3  and  O1_5
REMARK    3  A    between atoms: C7_12  and  C8_13
REMARK    4  A    between atoms: C8_13  and  C9_15
REMARK    5  A    between atoms: C11_18  and  O3_19
ROOT
HETATM    1  N2  UNL     1      90.025  13.956  34.068  1.00  0.00    -0.283 N
HETATM    2  C3  UNL     1      89.138  13.265  34.765  1.00  0.00     0.023 A
HETATM    3  C4  UNL     1      88.513  11.951  34.380  1.00  0.00     0.069 C
HETATM    4  C5  UNL     1      88.825  13.918  35.955  1.00  0.00    -0.021 A
HETATM    5  C6  UNL     1      87.878  13.404  36.940  1.00  0.00     0.051 C
HETATM    6  C7  UNL     1      89.571  15.070  35.970  1.00  0.00     0.072 A
HETATM    7  C11 UNL     1      90.308  15.050  34.765  1.00  0.00     0.163 A
ENDROOT
BRANCH   1   8
HETATM    8  C2  UNL     1      90.596  13.629  32.810  1.00  0.00     0.106 C
HETATM    9  C1  UNL     1      91.802  12.770  32.743  1.00  0.00     0.091 C
HETATM   10  N1  UNL     1      90.055  14.085  31.748  1.00  0.00    -0.257 N
ATOM     11  H1  UNL     1      89.228  14.671  31.864  1.00  0.00     0.195 HD
BRANCH  10  12
HETATM   12  O1  UNL     1      90.480  13.863  30.480  1.00  0.00    -0.288 OA
ATOM     13  H1  UNL     1      89.924  13.743  29.719  1.00  0.00     0.244 HD
ENDBRANCH  10  12
ENDBRANCH   1   8
BRANCH   7  14
HETATM   14  O3  UNL     1      91.212  16.047  34.365  1.00  0.00    -0.345 OA
ATOM     15  H3  UNL     1      90.968  16.920  34.080  1.00  0.00     0.219 HD
ENDBRANCH   7  14
BRANCH   6  16
HETATM   16  C8  UNL     1      89.634  16.113  36.970  1.00  0.00     0.197 C
HETATM   17  O2  UNL     1      90.797  16.580  37.241  1.00  0.00    -0.289 OA
BRANCH  16  18
HETATM   18  C9  UNL     1      88.525  16.690  37.702  1.00  0.00     0.240 C
HETATM   19  C10 UNL     1      88.805  16.686  39.227  1.00  0.00     0.053 C
HETATM   20  F1  UNL     1      88.344  18.046  37.404  1.00  0.00    -0.241 F
ENDBRANCH  16  18
ENDBRANCH   6  16
TORSDOF 5
ENDMDL