MODEL 4
REMARK VINA RESULT: -6.792260866      2.523      3.268
REMARK  5 active torsions:
REMARK  status: ('A' for Active; 'I' for Inactive)
REMARK    1  A    between atoms: C2_5  and  C3_6
REMARK    2  A    between atoms: C3_6  and  C4_7
REMARK    3  A    between atoms: C4_7  and  C5_8
REMARK    4  A    between atoms: C6_10  and  N2_11
REMARK    5  A    between atoms: N2_11  and  N3_13
ROOT
HETATM    1  O1  UNL     1      92.232   5.964  36.397  1.00  0.00    -0.238 OA
HETATM    2  C1  UNL     1      91.513   6.941  36.063  1.00  0.00     0.372 A
HETATM    3  N1  UNL     1      91.732   7.705  35.003  1.00  0.00    -0.291 N
ATOM      4  H1  UNL     1      92.494   7.606  34.333  1.00  0.00     0.172 HD
HETATM    5  C2  UNL     1      90.768   8.628  34.977  1.00  0.00     0.144 A
HETATM    6  C6  UNL     1      89.926   8.418  36.068  1.00  0.00     0.203 A
HETATM    7  O2  UNL     1      90.453   7.365  36.682  1.00  0.00    -0.239 OA
ENDROOT
BRANCH   6   8
HETATM    8  N2  UNL     1      88.777   9.157  36.431  1.00  0.00    -0.277 N
ATOM      9  H2  UNL     1      87.875   8.958  35.998  1.00  0.00     0.189 HD
BRANCH   8  10
HETATM   10  N3  UNL     1      88.893  10.150  37.380  1.00  0.00    -0.307 N
HETATM   11  C7  UNL     1      88.668  11.391  37.194  1.00  0.00     0.004 C
HETATM   12  C8  UNL     1      88.824  12.371  38.284  1.00  0.00     0.054 C
HETATM   13  C12 UNL     1      88.243  11.844  35.860  1.00  0.00     0.054 C
HETATM   14  C9  UNL     1      87.966  13.576  37.913  1.00  0.00     0.006 C
HETATM   15  C10 UNL     1      88.606  14.197  36.693  1.00  0.00     0.001 C
HETATM   16  C11 UNL     1      88.598  13.252  35.538  1.00  0.00     0.006 C
ATOM     17  H3  UNL     1      89.186   9.867  38.315  1.00  0.00     0.186 HD
ENDBRANCH   8  10
ENDBRANCH   6   8
BRANCH   5  18
HETATM   18  C3  UNL     1      90.549   9.690  34.038  1.00  0.00    -0.042 C
BRANCH  18  19
HETATM   19  C4  UNL     1      90.361  10.594  33.268  1.00  0.00    -0.068 C
BRANCH  19  20
HETATM   20  C5  UNL     1      90.120  11.712  32.334  1.00  0.00     0.316 C
HETATM   21  F1  UNL     1      88.762  11.954  32.266  1.00  0.00    -0.242 F
ENDBRANCH  19  20
ENDBRANCH  18  19
ENDBRANCH   5  18
TORSDOF 5
ENDMDL