MODEL 4
REMARK VINA RESULT: -6.417600737      4.881      6.330
REMARK  3 active torsions:
REMARK  status: ('A' for Active; 'I' for Inactive)
REMARK    1  A    between atoms: N1_1  and  C1_4
REMARK    2  A    between atoms: C2_9  and  S1_10
REMARK    3  A    between atoms: S1_10  and  C3_11
ROOT
HETATM    1  C1  UNL     1      91.647   7.369  39.334  1.00  0.00     0.159 A
HETATM    2  N2  UNL     1      91.126   8.536  38.940  1.00  0.00    -0.279 N
ATOM      3  H2  UNL     1      91.077   9.326  39.583  1.00  0.00     0.189 HD
HETATM    4  N3  UNL     1      90.695   8.641  37.751  1.00  0.00    -0.286 N
ATOM      5  H3  UNL     1      90.297   9.524  37.432  1.00  0.00     0.188 HD
HETATM    6  C2  UNL     1      90.760   7.612  36.923  1.00  0.00     0.134 A
HETATM    7  S2  UNL     1      91.486   6.426  37.916  1.00  0.00    -0.026 SA
ENDROOT
BRANCH   6   8
HETATM    8  S1  UNL     1      90.203   7.564  35.211  1.00  0.00    -0.075 SA
BRANCH   8   9
HETATM    9  C3  UNL     1      91.433   8.408  34.233  1.00  0.00     0.058 C
HETATM   10  C4  UNL     1      91.090   9.351  33.379  1.00  0.00    -0.040 C
HETATM   11  C5  UNL     1      89.676   9.768  33.178  1.00  0.00     0.037 C
HETATM   12  C9  UNL     1      92.083  10.088  32.537  1.00  0.00     0.199 C
HETATM   13  C6  UNL     1      89.530  11.233  32.919  1.00  0.00     0.004 C
HETATM   14  C7  UNL     1      90.697  12.077  33.207  1.00  0.00     0.003 C
HETATM   15  C8  UNL     1      92.040  11.515  32.990  1.00  0.00     0.042 C
HETATM   16  F1  UNL     1      93.345   9.583  32.795  1.00  0.00    -0.245 F
ENDBRANCH   8   9
ENDBRANCH   6   8
BRANCH   1  17
HETATM   17  N1  UNL     1      92.141   7.063  40.510  1.00  0.00    -0.379 N
ATOM     18  H12 UNL     1      92.418   6.163  40.898  1.00  0.00     0.158 HD
ATOM     19  H11 UNL     1      92.345   7.693  41.286  1.00  0.00     0.158 HD
ENDBRANCH   1  17
TORSDOF 3
ENDMDL