MODEL 3
REMARK VINA RESULT: -5.292625639      5.727      7.212
REMARK  3 active torsions:
REMARK  status: ('A' for Active; 'I' for Inactive)
REMARK       I    between atoms: C1_2  and  N2_4
REMARK    1  A    between atoms: N2_4  and  N3_6
REMARK    2  A    between atoms: C2_8  and  C3_9
REMARK    3  A    between atoms: C5_12  and  S2_13
ROOT
HETATM    1  N3  UNL     1      91.440   8.248  39.201  1.00  0.00    -0.307 N
ATOM      2  H3  UNL     1      90.703   8.836  39.591  1.00  0.00     0.186 HD
HETATM    3  C2  UNL     1      91.679   8.352  37.950  1.00  0.00     0.126 C
ENDROOT
BRANCH   3   4
HETATM    4  C3  UNL     1      90.914   9.288  37.111  1.00  0.00     0.025 A
HETATM    5  C4  UNL     1      90.856   9.276  35.733  1.00  0.00     0.067 A
HETATM    6  S1  UNL     1      89.858  10.530  35.143  1.00  0.00    -0.112 SA
HETATM    7  C5  UNL     1      89.235  11.416  36.451  1.00  0.00     0.195 A
HETATM    8  S3  UNL     1      89.960  10.559  37.730  1.00  0.00    -0.100 SA
BRANCH   7   9
HETATM    9  S2  UNL     1      88.255  12.688  36.513  1.00  0.00    -0.032 SA
HETATM   10 CL1  UNL     1      89.093  14.238  35.402  1.00  0.00    -0.042 Cl
ENDBRANCH   7   9
ENDBRANCH   3   4
BRANCH   1  11
HETATM   11  N2  UNL     1      92.107   7.398  40.065  1.00  0.00    -0.254 N
HETATM   12  C1  UNL     1      91.547   6.116  40.321  1.00  0.00     0.347 C
HETATM   13  N1  UNL     1      92.214   5.223  41.206  1.00  0.00    -0.038 NA
HETATM   14  O1  UNL     1      90.482   5.714  39.807  1.00  0.00    -0.249 OA
ATOM     15  H2  UNL     1      92.980   7.684  40.508  1.00  0.00     0.191 HD
ENDBRANCH   1  11
TORSDOF 3
ENDMDL