MODEL 4
REMARK VINA RESULT: -6.598337586      1.126      1.401
REMARK  5 active torsions:
REMARK  status: ('A' for Active; 'I' for Inactive)
REMARK    1  A    between atoms: C2_2  and  C3_3
REMARK    2  A    between atoms: C2_2  and  N1_5
REMARK    3  A    between atoms: N1_5  and  N2_7
REMARK    4  A    between atoms: N2_7  and  C4_9
REMARK    5  A    between atoms: N4_13  and  C6_14
ROOT
HETATM    1  C4  UNL     1      90.149   9.016  34.351  1.00  0.00     0.134 A
HETATM    2  C5  UNL     1      91.318   8.536  33.775  1.00  0.00     0.144 A
HETATM    3  N3  UNL     1      91.831   7.632  34.619  1.00  0.00    -0.304 N
ATOM      4  H3  UNL     1      92.695   7.116  34.451  1.00  0.00     0.186 HD
HETATM    5  N4  UNL     1      91.083   7.492  35.695  1.00  0.00    -0.251 N
HETATM    6  C11 UNL     1      90.044   8.335  35.548  1.00  0.00     0.291 A
HETATM    7  O1  UNL     1      89.114   8.469  36.399  1.00  0.00    -0.264 OA
ENDROOT
BRANCH   1   8
HETATM    8  N2  UNL     1      89.239   9.984  33.858  1.00  0.00    -0.294 N
ATOM      9  H2  UNL     1      88.656   9.771  33.049  1.00  0.00     0.187 HD
BRANCH   8  10
HETATM   10  N1  UNL     1      89.150  11.113  34.422  1.00  0.00    -0.304 N
ATOM     11  H1  UNL     1      89.073  11.173  35.438  1.00  0.00     0.186 HD
BRANCH  10  12
HETATM   12  C2  UNL     1      89.156  12.288  33.640  1.00  0.00     0.033 C
HETATM   13  C1  UNL     1      88.756  12.246  32.224  1.00  0.00     0.070 C
BRANCH  12  14
HETATM   14  C3  UNL     1      89.529  13.419  34.211  1.00  0.00     0.110 C
HETATM   15 CL1  UNL     1      88.787  13.902  35.699  1.00  0.00    -0.095 Cl
ENDBRANCH  12  14
ENDBRANCH  10  12
ENDBRANCH   8  10
ENDBRANCH   1   8
BRANCH   5  16
HETATM   16  C6  UNL     1      91.373   6.597  36.780  1.00  0.00     0.111 C
HETATM   17  C7  UNL     1      92.283   5.480  36.318  1.00  0.00     0.027 C
HETATM   18  C8  UNL     1      92.984   5.121  37.634  1.00  0.00     0.002 C
HETATM   19  C9  UNL     1      93.400   6.509  38.105  1.00  0.00     0.002 C
HETATM   20  C10 UNL     1      92.081   7.261  37.933  1.00  0.00     0.027 C
ENDBRANCH   5  16
TORSDOF 5
ENDMDL