MODEL 5
REMARK VINA RESULT: -5.376343416      5.551      6.478
REMARK  4 active torsions:
REMARK  status: ('A' for Active; 'I' for Inactive)
REMARK    1  A    between atoms: O1_1  and  N1_3
REMARK    2  A    between atoms: C1_5  and  O2_6
REMARK    3  A    between atoms: C1_5  and  C2_8
REMARK    4  A    between atoms: C3_9  and  C4_10
ROOT
HETATM    1  C2  UNL     1      89.837  11.752  32.984  1.00  0.00     0.059 C
HETATM    2  C3  UNL     1      89.956  10.438  32.868  1.00  0.00     0.023 C
ENDROOT
BRANCH   1   3
HETATM    3  C1  UNL     1      89.486  12.594  31.843  1.00  0.00     0.159 C
HETATM    4  N1  UNL     1      90.374  13.406  31.320  1.00  0.00    -0.248 N
ATOM      5  H1  UNL     1      91.318  13.461  31.703  1.00  0.00     0.196 HD
BRANCH   4   6
HETATM    6  O1  UNL     1      90.013  14.170  30.264  1.00  0.00    -0.288 OA
ATOM      7  H1  UNL     1      89.815  15.088  30.411  1.00  0.00     0.244 HD
ENDBRANCH   4   6
BRANCH   3   8
HETATM    8  O2  UNL     1      88.205  12.530  31.313  1.00  0.00    -0.345 OA
ATOM      9  H2  UNL     1      87.946  11.786  30.782  1.00  0.00     0.219 HD
ENDBRANCH   3   8
ENDBRANCH   1   3
BRANCH   2  10
HETATM   10  C4  UNL     1      90.314   9.668  34.080  1.00  0.00     0.006 A
HETATM   11  C5  UNL     1      90.724   8.367  34.169  1.00  0.00     0.038 A
HETATM   12  C6  UNL     1      90.995   7.886  35.386  1.00  0.00     0.018 A
HETATM   13 BR1  UNL     1      91.588   6.067  35.720  1.00  0.00    -0.051 Br
HETATM   14  C7  UNL     1      90.840   8.734  36.449  1.00  0.00     0.069 A
HETATM   15  S1  UNL     1      90.321  10.179  35.707  1.00  0.00    -0.101 SA
ENDBRANCH   2  10
TORSDOF 4
ENDMDL