MODEL 2
REMARK VINA RESULT: -5.616630697      1.651      1.681
REMARK  4 active torsions:
REMARK  status: ('A' for Active; 'I' for Inactive)
REMARK    1  A    between atoms: C2_2  and  C3_4
REMARK    2  A    between atoms: C3_4  and  S2_6
REMARK    3  A    between atoms: S2_6  and  C4_7
REMARK    4  A    between atoms: C4_7  and  C5_8
ROOT
HETATM    1  C5  UNL     1      90.792   9.389  33.495  1.00  0.00     0.151 A
HETATM    2  N1  UNL     1      89.878   8.488  33.159  1.00  0.00    -0.279 N
ATOM      3  H1  UNL     1      89.763   8.115  32.217  1.00  0.00     0.189 HD
HETATM    4  N2  UNL     1      89.138   8.130  34.189  1.00  0.00    -0.263 N
ATOM      5  H2  UNL     1      88.372   7.457  34.192  1.00  0.00     0.190 HD
HETATM    6  C6  UNL     1      89.602   8.836  35.232  1.00  0.00     0.238 A
HETATM    7  N3  UNL     1      89.162   8.798  36.463  1.00  0.00    -0.364 N
ATOM      8  H31 UNL     1      89.515   9.334  37.256  1.00  0.00     0.159 HD
ATOM      9  H32 UNL     1      88.394   8.217  36.802  1.00  0.00     0.159 HD
HETATM   10  O1  UNL     1      90.589   9.581  34.796  1.00  0.00    -0.263 OA
ENDROOT
BRANCH   1  11
HETATM   11  C4  UNL     1      91.860  10.120  32.756  1.00  0.00     0.166 C
BRANCH  11  12
HETATM   12  S2  UNL     1      91.913  11.843  33.011  1.00  0.00    -0.109 SA
BRANCH  12  13
HETATM   13  C3  UNL     1      90.442  12.749  32.996  1.00  0.00     0.088 C
HETATM   14  S1  UNL     1      89.954  13.225  31.435  1.00  0.00    -0.071 SA
BRANCH  13  15
HETATM   15  C2  UNL     1      89.588  13.186  34.057  1.00  0.00     0.052 C
HETATM   16  C1  UNL     1      88.582  12.568  34.616  1.00  0.00     0.039 C
HETATM   17 CL1  UNL     1      89.940  14.824  34.723  1.00  0.00    -0.083 Cl
ENDBRANCH  13  15
ENDBRANCH  12  13
ENDBRANCH  11  12
ENDBRANCH   1  11
TORSDOF 4
ENDMDL