MODEL 4
REMARK VINA RESULT: -6.004266621      4.210      6.428
REMARK  4 active torsions:
REMARK  status: ('A' for Active; 'I' for Inactive)
REMARK    1  A    between atoms: C2_2  and  C4_4
REMARK    2  A    between atoms: C4_4  and  N1_5
REMARK    3  A    between atoms: C8_12  and  O1_14
REMARK    4  A    between atoms: N2_16  and  O2_17
ROOT
HETATM    1  N1  UNL     1      91.762   7.954  34.702  1.00  0.00    -0.368 N
ATOM      2  H1  UNL     1      92.204   7.444  33.937  1.00  0.00     0.161 HD
HETATM    3  C5  UNL     1      91.797   7.473  35.895  1.00  0.00     0.170 C
HETATM    4  S1  UNL     1      91.080   8.210  37.394  1.00  0.00    -0.051 SA
HETATM    5  C6  UNL     1      91.835   7.052  38.538  1.00  0.00     0.054 C
HETATM    6  C7  UNL     1      91.436   6.896  39.779  1.00  0.00     0.104 C
HETATM    7 CL1  UNL     1      92.208   5.738  40.882  1.00  0.00    -0.096 Cl
HETATM    8  C8  UNL     1      92.896   6.438  37.715  1.00  0.00     0.192 C
HETATM    9  C9  UNL     1      93.430   5.146  38.257  1.00  0.00     0.080 C
HETATM   10  N2  UNL     1      92.385   6.268  36.366  1.00  0.00    -0.198 N
ENDROOT
BRANCH   1  11
HETATM   11  C4  UNL     1      91.108   9.201  34.442  1.00  0.00     0.125 C
BRANCH  11  12
HETATM   12  C2  UNL     1      90.998   9.508  32.976  1.00  0.00    -0.005 C
HETATM   13  C1  UNL     1      92.219  10.362  32.614  1.00  0.00     0.011 C
HETATM   14  C3  UNL     1      89.769  10.326  32.652  1.00  0.00     0.011 C
ENDBRANCH  11  12
ENDBRANCH   1  11
BRANCH  10  15
HETATM   15  O2  UNL     1      92.439   5.120  35.603  1.00  0.00    -0.282 OA
ATOM     16  H2  UNL     1      93.106   4.455  35.726  1.00  0.00     0.245 HD
ENDBRANCH  10  15
BRANCH   8  17
HETATM   17  O1  UNL     1      93.969   7.335  37.639  1.00  0.00    -0.365 OA
ATOM     18  H1  UNL     1      93.704   8.152  38.046  1.00  0.00     0.213 HD
ENDBRANCH   8  17
TORSDOF 4
ENDMDL