MODEL 4
REMARK VINA RESULT: -6.154134744      3.946      4.944
REMARK  3 active torsions:
REMARK  status: ('A' for Active; 'I' for Inactive)
REMARK    1  A    between atoms: C3_3  and  C4_4
REMARK    2  A    between atoms: C4_4  and  C5_5
REMARK    3  A    between atoms: N1_7  and  O1_9
ROOT
HETATM    1  C1  UNL     1      87.872  12.999  36.014  1.00  0.00     0.068 C
HETATM    2  C2  UNL     1      89.182  13.387  35.513  1.00  0.00     0.014 C
HETATM    3  C3  UNL     1      89.794  12.908  34.428  1.00  0.00     0.023 C
HETATM    4  C6  UNL     1      91.113  13.515  34.158  1.00  0.00     0.087 C
HETATM    5  C7  UNL     1      90.821  14.938  33.654  1.00  0.00     0.051 C
HETATM    6  C8  UNL     1      91.986  12.800  33.163  1.00  0.00     0.051 C
HETATM    7  O2  UNL     1      91.933  13.665  35.271  1.00  0.00    -0.347 OA
HETATM    8  C9  UNL     1      91.358  14.203  36.368  1.00  0.00     0.128 C
HETATM    9  C10 UNL     1      92.050  15.515  36.713  1.00  0.00     0.070 C
HETATM   10  C11 UNL     1      91.578  13.304  37.600  1.00  0.00     0.070 C
HETATM   11  N2  UNL     1      89.930  14.395  36.229  1.00  0.00    -0.362 N
ATOM     12  H2  UNL     1      89.466  15.214  36.624  1.00  0.00     0.162 HD
ENDROOT
BRANCH   3  13
HETATM   13  C4  UNL     1      89.149  11.889  33.614  1.00  0.00     0.056 C
HETATM   14  N1  UNL     1      89.421  10.700  33.983  1.00  0.00    -0.272 N
ATOM     15  H1  UNL     1      90.047  10.681  34.788  1.00  0.00     0.194 HD
BRANCH  13  16
HETATM   16  C5  UNL     1      88.268  12.023  32.461  1.00  0.00     0.174 C
HETATM   17 CL1  UNL     1      89.085  12.983  31.158  1.00  0.00    -0.124 Cl
ENDBRANCH  13  16
BRANCH  14  18
HETATM   18  O1  UNL     1      89.096   9.501  33.582  1.00  0.00    -0.290 OA
ATOM     19  H1  UNL     1      88.708   9.129  32.798  1.00  0.00     0.244 HD
ENDBRANCH  14  18
ENDBRANCH   3  13
TORSDOF 3
ENDMDL