MODEL 4
REMARK VINA RESULT: -5.634304891      2.752      5.153
REMARK  11 active torsions:
REMARK  status: ('A' for Active; 'I' for Inactive)
REMARK    1  A    between atoms: N1_1  and  C1_5
REMARK    2  A    between atoms: C1_5  and  C2_6
REMARK    3  A    between atoms: C2_6  and  C3_7
REMARK    4  A    between atoms: C3_7  and  C4_8
REMARK    5  A    between atoms: C4_8  and  C5_9
REMARK    6  A    between atoms: C5_9  and  C6_10
REMARK    7  A    between atoms: C6_10  and  N2_11
REMARK    8  A    between atoms: N2_11  and  N3_13
REMARK    9  A    between atoms: N3_13  and  N4_14
REMARK   10  A    between atoms: N3_13  and  C7_17
REMARK   11  A    between atoms: C13_28  and  N7_29
ROOT
HETATM    1  C7  UNL     1      76.933  34.163  61.945  1.00  0.00     0.105 C
HETATM    2  C8  UNL     1      76.468  35.298  62.366  1.00  0.00     0.061 C
HETATM    3  C9  UNL     1      75.659  35.508  63.594  1.00  0.00     0.267 C
HETATM    4  O1  UNL     1      75.670  34.821  64.621  1.00  0.00    -0.266 OA
HETATM    5  N5  UNL     1      74.880  36.685  63.292  1.00  0.00    -0.269 N
ATOM      6  H5  UNL     1      74.186  37.106  63.910  1.00  0.00     0.185 HD
HETATM    7  N6  UNL     1      75.225  37.161  62.014  1.00  0.00    -0.128 NA
HETATM    8  C10 UNL     1      76.572  36.654  61.827  1.00  0.00     0.141 C
HETATM    9  C11 UNL     1      77.129  36.867  60.494  1.00  0.00     0.038 C
HETATM   10  C12 UNL     1      76.394  36.206  59.356  1.00  0.00     0.078 C
HETATM   11  S1  UNL     1      76.989  34.505  59.204  1.00  0.00    -0.130 SA
HETATM   12  C13 UNL     1      77.756  33.916  60.716  1.00  0.00     0.298 C
ENDROOT
BRANCH   1  13
HETATM   13  N3  UNL     1      76.652  33.009  62.716  1.00  0.00    -0.208 N
BRANCH  13  14
HETATM   14  N2  UNL     1      77.496  32.574  63.709  1.00  0.00    -0.316 N
ATOM     15  H2  UNL     1      78.412  33.000  63.855  1.00  0.00     0.182 HD
BRANCH  14  16
HETATM   16  C6  UNL     1      77.031  31.501  64.527  1.00  0.00     0.141 C
BRANCH  16  17
HETATM   17  C5  UNL     1      77.205  31.821  66.016  1.00  0.00     0.021 C
BRANCH  17  18
HETATM   18  C4  UNL     1      78.305  32.859  66.143  1.00  0.00     0.002 C
BRANCH  18  19
HETATM   19  C3  UNL     1      78.230  33.598  67.450  1.00  0.00     0.002 C
BRANCH  19  20
HETATM   20  C2  UNL     1      76.802  33.997  67.746  1.00  0.00     0.027 C
BRANCH  20  21
HETATM   21  C1  UNL     1      76.532  34.009  69.239  1.00  0.00     0.229 C
BRANCH  21  22
HETATM   22  N1  UNL     1      75.369  34.826  69.541  1.00  0.00    -0.079 N
ATOM     23  H13 UNL     1      75.607  35.616  70.141  1.00  0.00     0.274 HD
ATOM     24  H12 UNL     1      75.047  35.346  68.724  1.00  0.00     0.274 HD
ATOM     25  H11 UNL     1      74.624  34.256  69.943  1.00  0.00     0.274 HD
ENDBRANCH  21  22
ENDBRANCH  20  21
ENDBRANCH  19  20
ENDBRANCH  18  19
ENDBRANCH  17  18
ENDBRANCH  16  17
ENDBRANCH  14  16
ENDBRANCH  13  14
BRANCH  13  26
HETATM   26  N4  UNL     1      75.449  32.335  62.504  1.00  0.00    -0.324 N
ATOM     27  H42 UNL     1      75.475  31.394  62.110  1.00  0.00     0.178 HD
ATOM     28  H41 UNL     1      74.571  32.813  62.701  1.00  0.00     0.178 HD
ENDBRANCH  13  26
ENDBRANCH   1  13
BRANCH  12  29
HETATM   29  N7  UNL     1      79.137  34.292  60.875  1.00  0.00    -0.061 N
ATOM     30  H73 UNL     1      79.215  35.236  61.252  1.00  0.00     0.276 HD
ATOM     31  H72 UNL     1      79.569  33.771  61.638  1.00  0.00     0.276 HD
ATOM     32  H71 UNL     1      79.679  34.196  60.016  1.00  0.00     0.276 HD
ENDBRANCH  12  29
TORSDOF 11
ENDMDL