MODEL 3
REMARK VINA RESULT: -6.151215452      3.504      7.863
REMARK  11 active torsions:
REMARK  status: ('A' for Active; 'I' for Inactive)
REMARK    1  A    between atoms: C2_2  and  C3_3
REMARK    2  A    between atoms: C3_3  and  C4_4
REMARK    3  A    between atoms: C4_4  and  N1_5
REMARK    4  A    between atoms: N1_5  and  C5_7
REMARK    5  A    between atoms: C7_9  and  N2_10
REMARK    6  A    between atoms: C8_14  and  C9_15
REMARK    7  A    between atoms: C9_15  and  O1_16
REMARK    8  A    between atoms: O1_16  and  C10_17
REMARK    9  A    between atoms: C14_23  and  N4_24
REMARK   10  A    between atoms: C15_28  and  O2_29
REMARK   11  A    between atoms: C16_31  and  O3_32
ROOT
HETATM    1  C5  UNL     1      77.182  32.828  64.206  1.00  0.00     0.110 C
HETATM    2  C6  UNL     1      78.372  33.376  63.528  1.00  0.00     0.065 C
HETATM    3  C7  UNL     1      78.337  34.719  62.929  1.00  0.00     0.219 C
HETATM    4  C8  UNL     1      77.016  35.268  62.540  1.00  0.00     0.003 C
HETATM    5  C15 UNL     1      75.866  34.321  62.819  1.00  0.00     0.181 C
HETATM    6  C16 UNL     1      76.053  33.901  64.250  1.00  0.00     0.173 C
ENDROOT
BRANCH   4   7
HETATM    7  C9  UNL     1      76.931  35.972  61.209  1.00  0.00     0.145 C
BRANCH   7   8
HETATM    8  O1  UNL     1      76.846  35.434  60.107  1.00  0.00    -0.335 OA
BRANCH   8   9
HETATM    9  C10 UNL     1      76.760  34.877  58.972  1.00  0.00     0.256 C
HETATM   10  N3  UNL     1      75.460  34.604  58.455  1.00  0.00    -0.375 N
HETATM   11  C11 UNL     1      75.431  33.810  57.315  1.00  0.00     0.058 C
ATOM     12  H3  UNL     1      74.612  34.964  58.892  1.00  0.00     0.161 HD
HETATM   13  C12 UNL     1      76.268  34.329  56.167  1.00  0.00     0.046 C
HETATM   14  C13 UNL     1      77.598  34.823  56.652  1.00  0.00     0.042 C
HETATM   15  C14 UNL     1      77.537  35.644  57.872  1.00  0.00     0.232 C
BRANCH  15  16
HETATM   16  N4  UNL     1      76.999  36.945  57.624  1.00  0.00    -0.071 N
ATOM     17  H43 UNL     1      76.244  36.906  56.939  1.00  0.00     0.274 HD
ATOM     18  H42 UNL     1      76.472  37.283  58.430  1.00  0.00     0.274 HD
ATOM     19  H41 UNL     1      77.712  37.618  57.345  1.00  0.00     0.274 HD
ENDBRANCH  15  16
ENDBRANCH   8   9
ENDBRANCH   7   8
ENDBRANCH   4   7
BRANCH   3  20
HETATM   20  N2  UNL     1      79.325  34.749  61.824  1.00  0.00    -0.071 N
ATOM     21  H23 UNL     1      80.265  34.496  62.126  1.00  0.00     0.275 HD
ATOM     22  H22 UNL     1      79.191  33.992  61.153  1.00  0.00     0.275 HD
ATOM     23  H21 UNL     1      79.283  35.673  61.392  1.00  0.00     0.275 HD
ENDBRANCH   3  20
BRANCH   5  24
HETATM   24  O2  UNL     1      75.831  33.193  62.048  1.00  0.00    -0.388 OA
ATOM     25  H2  UNL     1      74.971  32.932  61.742  1.00  0.00     0.210 HD
ENDBRANCH   5  24
BRANCH   6  26
HETATM   26  O3  UNL     1      74.888  33.339  64.699  1.00  0.00    -0.391 OA
ATOM     27  H3  UNL     1      74.603  33.772  65.495  1.00  0.00     0.210 HD
ENDBRANCH   6  26
BRANCH   1  28
HETATM   28  N1  UNL     1      77.382  32.387  65.579  1.00  0.00    -0.414 N
ATOM     29  H1  UNL     1      76.699  31.811  66.069  1.00  0.00     0.153 HD
BRANCH  28  30
HETATM   30  C4  UNL     1      78.584  32.810  66.188  1.00  0.00     0.114 C
BRANCH  30  31
HETATM   31  C3  UNL     1      78.238  33.639  67.421  1.00  0.00     0.019 C
BRANCH  31  32
HETATM   32  C2  UNL     1      76.771  33.664  67.728  1.00  0.00    -0.003 C
HETATM   33  C1  UNL     1      76.366  34.392  68.954  1.00  0.00     0.005 C
ENDBRANCH  31  32
ENDBRANCH  30  31
ENDBRANCH  28  30
ENDBRANCH   1  28
TORSDOF 11
ENDMDL