MODEL 4
REMARK VINA RESULT: -6.005538779      0.995      2.156
REMARK  11 active torsions:
REMARK  status: ('A' for Active; 'I' for Inactive)
REMARK    1  A    between atoms: O1_1  and  C1_3
REMARK    2  A    between atoms: C2_6  and  C3_7
REMARK    3  A    between atoms: C3_7  and  N2_8
REMARK    4  A    between atoms: N2_8  and  C4_10
REMARK    5  A    between atoms: C4_10  and  C5_11
REMARK    6  A    between atoms: C5_11  and  C6_12
REMARK    7  A    between atoms: C6_12  and  C7_13
REMARK    8  A    between atoms: C7_13  and  N3_14
REMARK    9  A    between atoms: C13_20  and  O2_21
REMARK   10  A    between atoms: C14_23  and  O3_24
REMARK   11  A    between atoms: C15_26  and  O4_27
ROOT
HETATM    1  C1  UNL     1      74.992  35.880  62.967  1.00  0.00     0.245 C
HETATM    2  N1  UNL     1      74.884  35.180  61.718  1.00  0.00    -0.386 N
ATOM      3  H1  UNL     1      74.197  34.441  61.570  1.00  0.00     0.156 HD
HETATM    4  C2  UNL     1      75.795  35.581  60.698  1.00  0.00     0.128 C
HETATM    5  C13 UNL     1      76.257  36.991  60.756  1.00  0.00     0.173 C
HETATM    6  C14 UNL     1      75.551  37.915  61.669  1.00  0.00     0.181 C
HETATM    7  C15 UNL     1      74.684  37.326  62.724  1.00  0.00     0.197 C
ENDROOT
BRANCH   4   8
HETATM    8  C3  UNL     1      77.030  34.671  60.724  1.00  0.00     0.146 C
BRANCH   8   9
HETATM    9  N2  UNL     1      76.692  33.305  60.529  1.00  0.00    -0.400 N
ATOM     10  H2  UNL     1      76.128  33.011  59.733  1.00  0.00     0.158 HD
BRANCH   9  11
HETATM   11  C4  UNL     1      77.157  32.380  61.460  1.00  0.00     0.055 C
BRANCH  11  12
HETATM   12  C5  UNL     1      76.191  31.587  62.247  1.00  0.00     0.046 C
BRANCH  12  13
HETATM   13  C6  UNL     1      75.694  32.199  63.515  1.00  0.00     0.025 C
BRANCH  13  14
HETATM   14  C7  UNL     1      76.451  31.554  64.688  1.00  0.00     0.127 C
BRANCH  14  15
HETATM   15  N3  UNL     1      77.255  32.436  65.402  1.00  0.00    -0.374 N
HETATM   16  C8  UNL     1      78.509  32.817  64.908  1.00  0.00     0.063 C
HETATM   17  C9  UNL     1      79.632  32.777  65.915  1.00  0.00     0.045 C
HETATM   18  C10 UNL     1      79.218  33.034  67.322  1.00  0.00     0.010 C
HETATM   19  C11 UNL     1      77.887  33.724  67.380  1.00  0.00     0.045 C
HETATM   20  C12 UNL     1      76.816  32.944  66.636  1.00  0.00     0.063 C
ENDBRANCH  14  15
ENDBRANCH  13  14
ENDBRANCH  12  13
ENDBRANCH  11  12
ENDBRANCH   9  11
ENDBRANCH   8   9
ENDBRANCH   4   8
BRANCH   5  21
HETATM   21  O2  UNL     1      76.135  37.523  59.444  1.00  0.00    -0.391 OA
ATOM     22  H2  UNL     1      76.648  38.322  59.419  1.00  0.00     0.210 HD
ENDBRANCH   5  21
BRANCH   1  23
HETATM   23  O1  UNL     1      76.243  35.725  63.575  1.00  0.00    -0.374 OA
ATOM     24  H1  UNL     1      76.264  36.044  64.469  1.00  0.00     0.212 HD
ENDBRANCH   1  23
BRANCH   6  25
HETATM   25  O3  UNL     1      74.818  38.887  60.951  1.00  0.00    -0.390 OA
ATOM     26  H3  UNL     1      75.291  39.710  60.903  1.00  0.00     0.210 HD
ENDBRANCH   6  25
BRANCH   7  27
HETATM   27  O4  UNL     1      74.791  38.029  63.945  1.00  0.00    -0.389 OA
ATOM     28  H4  UNL     1      75.603  38.523  63.947  1.00  0.00     0.210 HD
ENDBRANCH   7  27
TORSDOF 11
ENDMDL