MODEL 4
REMARK VINA RESULT: -6.197785921      2.063      6.355
REMARK  7 active torsions:
REMARK  status: ('A' for Active; 'I' for Inactive)
REMARK    1  A    between atoms: N2_3  and  C2_5
REMARK    2  A    between atoms: C10_19  and  C11_20
REMARK       I    between atoms: C11_20  and  N6_22
REMARK    3  A    between atoms: N6_22  and  C12_24
REMARK    4  A    between atoms: C12_24  and  C13_25
REMARK    5  A    between atoms: C13_25  and  C14_26
REMARK    6  A    between atoms: C14_26  and  C15_27
REMARK    7  A    between atoms: C15_27  and  N7_28
ROOT
HETATM    1  N1  UNL     1      73.651  29.923  63.221  1.00  0.00    -0.172 NA
HETATM    2  C1  UNL     1      74.516  30.620  63.538  1.00  0.00     0.177 C
HETATM    3  N2  UNL     1      75.545  31.447  63.940  1.00  0.00    -0.321 N
ATOM      4  H2  UNL     1      75.382  31.997  64.783  1.00  0.00     0.172 HD
ENDROOT
BRANCH   3   5
HETATM    5  C2  UNL     1      76.811  31.617  63.308  1.00  0.00     0.128 C
HETATM    6  C3  UNL     1      76.637  31.703  61.811  1.00  0.00     0.072 C
HETATM    7  C4  UNL     1      77.862  31.949  61.028  1.00  0.00     0.057 C
HETATM    8  N3  UNL     1      78.147  33.286  60.692  1.00  0.00    -0.401 N
HETATM    9  C5  UNL     1      77.222  34.024  59.929  1.00  0.00     0.138 C
ATOM     10  H3  UNL     1      79.019  33.718  60.999  1.00  0.00     0.158 HD
HETATM   11  C6  UNL     1      77.349  35.493  60.339  1.00  0.00     0.133 C
HETATM   12  N4  UNL     1      76.124  36.152  60.582  1.00  0.00    -0.420 N
HETATM   13  C7  UNL     1      75.335  35.723  61.678  1.00  0.00     0.115 C
ATOM     14  H4  UNL     1      75.815  36.919  59.984  1.00  0.00     0.153 HD
HETATM   15  C8  UNL     1      75.984  35.829  63.029  1.00  0.00     0.038 C
HETATM   16  C9  UNL     1      76.025  34.463  63.748  1.00  0.00     0.116 C
HETATM   17  N5  UNL     1      77.314  34.003  63.699  1.00  0.00    -0.408 N
HETATM   18  C10 UNL     1      77.707  32.659  63.865  1.00  0.00     0.193 C
ATOM     19  H5  UNL     1      78.050  34.688  63.527  1.00  0.00     0.154 HD
BRANCH  18  20
HETATM   20  C11 UNL     1      78.148  32.327  65.238  1.00  0.00     0.242 C
HETATM   21  O1  UNL     1      77.914  31.190  65.707  1.00  0.00    -0.271 OA
HETATM   22  N6  UNL     1      78.829  33.269  66.040  1.00  0.00    -0.359 N
ATOM     23  H6  UNL     1      79.019  34.197  65.663  1.00  0.00     0.162 HD
BRANCH  22  24
HETATM   24  C12 UNL     1      79.264  32.951  67.386  1.00  0.00     0.122 C
BRANCH  24  25
HETATM   25  C13 UNL     1      80.698  32.483  67.364  1.00  0.00     0.021 C
BRANCH  25  26
HETATM   26  C14 UNL     1      80.903  31.409  68.410  1.00  0.00     0.029 C
BRANCH  26  27
HETATM   27  C15 UNL     1      80.572  30.066  67.748  1.00  0.00     0.229 C
BRANCH  27  28
HETATM   28  N7  UNL     1      80.950  30.158  66.354  1.00  0.00    -0.079 N
ATOM     29  H73 UNL     1      81.924  29.904  66.189  1.00  0.00     0.274 HD
ATOM     30  H72 UNL     1      80.522  29.433  65.778  1.00  0.00     0.274 HD
ATOM     31  H71 UNL     1      80.727  31.101  66.035  1.00  0.00     0.274 HD
ENDBRANCH  27  28
ENDBRANCH  26  27
ENDBRANCH  25  26
ENDBRANCH  24  25
ENDBRANCH  22  24
ENDBRANCH  18  20
ENDBRANCH   3   5
TORSDOF 7
ENDMDL