MODEL 2
REMARK VINA RESULT: -5.958338099      3.834      5.497
REMARK  12 active torsions:
REMARK  status: ('A' for Active; 'I' for Inactive)
REMARK    1  A    between atoms: N1_1  and  C1_5
REMARK    2  A    between atoms: C1_5  and  C2_6
REMARK    3  A    between atoms: C2_6  and  C3_7
REMARK    4  A    between atoms: C3_7  and  C4_8
REMARK    5  A    between atoms: C4_8  and  C5_9
REMARK    6  A    between atoms: C5_9  and  N2_10
REMARK    7  A    between atoms: C5_9  and  C6_14
REMARK    8  A    between atoms: C6_14  and  O1_15
REMARK    9  A    between atoms: C7_20  and  O2_21
REMARK   10  A    between atoms: O2_21  and  C8_22
REMARK   11  A    between atoms: C8_22  and  C9_23
REMARK   12  A    between atoms: C11_27  and  O4_28
ROOT
HETATM    1  C6  UNL     1      76.525  33.604  62.356  1.00  0.00     0.259 C
HETATM    2  N3  UNL     1      77.879  33.481  62.887  1.00  0.00    -0.008 N
ATOM      3  H31 UNL     1      78.402  34.355  62.938  1.00  0.00     0.284 HD
ATOM      4  H32 UNL     1      78.540  33.007  62.272  1.00  0.00     0.284 HD
HETATM    5  C7  UNL     1      77.649  32.822  64.174  1.00  0.00     0.230 C
HETATM    6  C12 UNL     1      76.899  31.559  63.933  1.00  0.00     0.069 C
HETATM    7  C13 UNL     1      75.426  31.941  63.699  1.00  0.00     0.014 C
HETATM    8  C14 UNL     1      75.586  33.450  63.523  1.00  0.00     0.056 C
HETATM    9  C15 UNL     1      76.510  33.715  64.697  1.00  0.00     0.078 C
ENDROOT
BRANCH   1  10
HETATM   10  C5  UNL     1      76.313  34.915  61.640  1.00  0.00     0.246 C
BRANCH  10  11
HETATM   11  C4  UNL     1      75.209  35.739  62.180  1.00  0.00     0.038 C
BRANCH  11  12
HETATM   12  C3  UNL     1      75.502  37.031  62.812  1.00  0.00     0.004 C
BRANCH  12  13
HETATM   13  C2  UNL     1      74.360  37.760  63.429  1.00  0.00     0.027 C
BRANCH  13  14
HETATM   14  C1  UNL     1      74.402  37.800  64.935  1.00  0.00     0.229 C
BRANCH  14  15
HETATM   15  N1  UNL     1      73.359  38.535  65.541  1.00  0.00    -0.079 N
ATOM     16  H13 UNL     1      72.800  39.004  64.829  1.00  0.00     0.274 HD
ATOM     17  H12 UNL     1      72.660  37.901  65.927  1.00  0.00     0.274 HD
ATOM     18  H11 UNL     1      73.660  39.203  66.250  1.00  0.00     0.274 HD
ENDBRANCH  14  15
ENDBRANCH  13  14
ENDBRANCH  12  13
ENDBRANCH  11  12
ENDBRANCH  10  11
BRANCH  10  19
HETATM   19  N2  UNL     1      75.919  34.615  60.229  1.00  0.00    -0.070 N
ATOM     20  H23 UNL     1      75.680  35.442  59.682  1.00  0.00     0.274 HD
ATOM     21  H22 UNL     1      76.693  34.305  59.641  1.00  0.00     0.274 HD
ATOM     22  H21 UNL     1      75.161  33.937  60.305  1.00  0.00     0.274 HD
ENDBRANCH  10  19
ENDBRANCH   1  10
BRANCH   1  23
HETATM   23  O1  UNL     1      76.287  32.571  61.461  1.00  0.00    -0.363 OA
ATOM     24  H1  UNL     1      75.495  32.769  60.975  1.00  0.00     0.212 HD
ENDBRANCH   1  23
BRANCH   5  25
HETATM   25  O2  UNL     1      78.726  32.797  64.974  1.00  0.00    -0.351 OA
BRANCH  25  26
HETATM   26  C8  UNL     1      78.488  33.059  66.289  1.00  0.00     0.207 C
BRANCH  26  27
HETATM   27  C9  UNL     1      79.686  32.605  67.140  1.00  0.00     0.201 C
HETATM   28  O3  UNL     1      79.410  32.597  68.474  1.00  0.00    -0.276 OA
HETATM   29  N4  UNL     1      80.106  31.668  69.094  1.00  0.00    -0.098 NA
HETATM   30  C10 UNL     1      80.750  30.814  68.154  1.00  0.00     0.177 C
HETATM   31  C11 UNL     1      80.040  31.167  66.854  1.00  0.00     0.168 C
BRANCH  31  32
HETATM   32  O4  UNL     1      78.846  30.457  66.730  1.00  0.00    -0.392 OA
ATOM     33  H4  UNL     1      78.459  30.394  67.595  1.00  0.00     0.210 HD
ENDBRANCH  31  32
ENDBRANCH  26  27
ENDBRANCH  25  26
ENDBRANCH   5  25
TORSDOF 12
ENDMDL