MODEL 2
REMARK VINA RESULT: -5.046100145      3.215      5.558
REMARK  9 active torsions:
REMARK  status: ('A' for Active; 'I' for Inactive)
REMARK       I    between atoms: C1_4  and  N3_6
REMARK    1  A    between atoms: N3_6  and  C2_8
REMARK    2  A    between atoms: C2_8  and  C3_9
REMARK    3  A    between atoms: C3_9  and  C4_10
REMARK    4  A    between atoms: C4_10  and  S1_11
REMARK    5  A    between atoms: S1_11  and  C5_12
REMARK    6  A    between atoms: C5_12  and  C6_13
REMARK    7  A    between atoms: C8_16  and  O1_17
REMARK    8  A    between atoms: C9_19  and  O2_20
REMARK    9  A    between atoms: C10_22  and  O3_23
ROOT
HETATM    1  C6  UNL     1      78.458  33.561  61.777  1.00  0.00     0.087 C
HETATM    2  S2  UNL     1      79.094  34.866  60.641  1.00  0.00    -0.151 SA
HETATM    3  C7  UNL     1      77.376  34.528  60.282  1.00  0.00     0.109 C
HETATM    4  C8  UNL     1      76.583  35.693  59.746  1.00  0.00     0.168 C
HETATM    5  C9  UNL     1      76.684  36.879  60.637  1.00  0.00     0.203 C
HETATM    6  C10 UNL     1      76.631  36.582  62.096  1.00  0.00     0.288 C
HETATM    7  O4  UNL     1      77.271  35.456  62.513  1.00  0.00    -0.351 OA
HETATM    8  C11 UNL     1      77.152  34.329  61.754  1.00  0.00     0.155 C
ENDROOT
BRANCH   1   9
HETATM    9  C5  UNL     1      79.109  33.617  63.119  1.00  0.00     0.091 C
BRANCH   9  10
HETATM   10  S1  UNL     1      79.327  32.004  63.908  1.00  0.00    -0.168 SA
BRANCH  10  11
HETATM   11  C4  UNL     1      78.164  31.824  65.293  1.00  0.00     0.075 C
BRANCH  11  12
HETATM   12  C3  UNL     1      77.256  33.023  65.420  1.00  0.00     0.030 C
BRANCH  12  13
HETATM   13  C2  UNL     1      75.921  32.749  64.753  1.00  0.00     0.123 C
BRANCH  13  14
HETATM   14  N3  UNL     1      75.811  31.350  64.405  1.00  0.00    -0.365 N
HETATM   15  C1  UNL     1      75.170  30.919  63.201  1.00  0.00     0.181 C
HETATM   16  N1  UNL     1      75.764  31.053  62.093  1.00  0.00    -0.374 N
HETATM   17  N2  UNL     1      73.886  30.377  63.339  1.00  0.00    -0.064 NA
ATOM     18  H12 UNL     1      75.307  30.745  61.234  1.00  0.00     0.158 HD
ATOM     19  H11 UNL     1      76.699  31.448  61.993  1.00  0.00     0.158 HD
ATOM     20  H3  UNL     1      76.201  30.650  65.036  1.00  0.00     0.162 HD
ENDBRANCH  13  14
ENDBRANCH  12  13
ENDBRANCH  11  12
ENDBRANCH  10  11
ENDBRANCH   9  10
ENDBRANCH   1   9
BRANCH   4  21
HETATM   21  O1  UNL     1      75.275  35.279  59.572  1.00  0.00    -0.392 OA
ATOM     22  H1  UNL     1      74.898  35.782  58.860  1.00  0.00     0.210 HD
ENDBRANCH   4  21
BRANCH   6  23
HETATM   23  O3  UNL     1      75.308  36.665  62.590  1.00  0.00    -0.369 OA
ATOM     24  H3  UNL     1      74.902  37.491  62.354  1.00  0.00     0.212 HD
ENDBRANCH   6  23
BRANCH   5  25
HETATM   25  O2  UNL     1      75.587  37.721  60.342  1.00  0.00    -0.388 OA
ATOM     26  H2  UNL     1      75.084  37.820  61.142  1.00  0.00     0.210 HD
ENDBRANCH   5  25
TORSDOF 9
ENDMDL