MODEL 2
REMARK VINA RESULT: -5.397349905      3.276      5.554
REMARK  13 active torsions:
REMARK  status: ('A' for Active; 'I' for Inactive)
REMARK    1  A    between atoms: N1_1  and  C1_5
REMARK    2  A    between atoms: C1_5  and  C2_6
REMARK    3  A    between atoms: C2_6  and  C3_7
REMARK    4  A    between atoms: C3_7  and  C4_8
REMARK    5  A    between atoms: C4_8  and  S1_9
REMARK    6  A    between atoms: S1_9  and  C5_10
REMARK    7  A    between atoms: C5_10  and  C6_11
REMARK    8  A    between atoms: C6_11  and  N2_13
REMARK    9  A    between atoms: N2_13  and  C7_15
REMARK   10  A    between atoms: C9_17  and  N3_18
REMARK   11  A    between atoms: C10_22  and  O1_23
REMARK   12  A    between atoms: C11_25  and  O2_26
REMARK   13  A    between atoms: C12_28  and  O3_29
ROOT
HETATM    1  C7  UNL     1      77.406  33.307  64.048  1.00  0.00     0.115 C
HETATM    2  C8  UNL     1      78.209  32.094  64.270  1.00  0.00     0.063 C
HETATM    3  C9  UNL     1      78.277  31.593  65.688  1.00  0.00     0.216 C
HETATM    4  C10 UNL     1      78.117  32.754  66.652  1.00  0.00     0.179 C
HETATM    5  C11 UNL     1      76.663  33.206  66.468  1.00  0.00     0.179 C
HETATM    6  C12 UNL     1      76.387  33.641  65.080  1.00  0.00     0.172 C
ENDROOT
BRANCH   1   7
HETATM    7  N2  UNL     1      76.730  33.202  62.762  1.00  0.00    -0.376 N
ATOM      8  H2  UNL     1      75.726  33.021  62.758  1.00  0.00     0.160 HD
BRANCH   7   9
HETATM    9  C6  UNL     1      77.388  33.338  61.526  1.00  0.00     0.083 C
HETATM   10  S2  UNL     1      77.319  32.225  60.334  1.00  0.00    -0.065 SA
BRANCH   9  11
HETATM   11  C5  UNL     1      78.210  34.552  61.244  1.00  0.00     0.143 C
BRANCH  11  12
HETATM   12  S1  UNL     1      77.099  35.942  60.942  1.00  0.00    -0.162 SA
BRANCH  12  13
HETATM   13  C4  UNL     1      76.492  36.694  62.444  1.00  0.00     0.074 C
BRANCH  13  14
HETATM   14  C3  UNL     1      75.070  36.377  62.774  1.00  0.00     0.012 C
BRANCH  14  15
HETATM   15  C2  UNL     1      74.403  37.629  63.307  1.00  0.00     0.028 C
BRANCH  15  16
HETATM   16  C1  UNL     1      74.500  37.670  64.834  1.00  0.00     0.229 C
BRANCH  16  17
HETATM   17  N1  UNL     1      73.331  38.406  65.295  1.00  0.00    -0.079 N
ATOM     18  H13 UNL     1      73.030  39.136  64.648  1.00  0.00     0.274 HD
ATOM     19  H12 UNL     1      72.471  37.858  65.273  1.00  0.00     0.274 HD
ATOM     20  H11 UNL     1      73.565  38.759  66.223  1.00  0.00     0.274 HD
ENDBRANCH  16  17
ENDBRANCH  15  16
ENDBRANCH  14  15
ENDBRANCH  13  14
ENDBRANCH  12  13
ENDBRANCH  11  12
ENDBRANCH   9  11
ENDBRANCH   7   9
ENDBRANCH   1   7
BRANCH   6  21
HETATM   21  O3  UNL     1      75.126  33.139  64.678  1.00  0.00    -0.391 OA
ATOM     22  H3  UNL     1      74.441  33.568  65.176  1.00  0.00     0.210 HD
ENDBRANCH   6  21
BRANCH   3  23
HETATM   23  N3  UNL     1      79.581  30.980  65.962  1.00  0.00    -0.072 N
ATOM     24  H33 UNL     1      79.619  30.578  66.899  1.00  0.00     0.274 HD
ATOM     25  H32 UNL     1      79.718  30.126  65.422  1.00  0.00     0.274 HD
ATOM     26  H31 UNL     1      80.335  31.649  65.809  1.00  0.00     0.274 HD
ENDBRANCH   3  23
BRANCH   5  27
HETATM   27  O2  UNL     1      76.284  34.111  67.447  1.00  0.00    -0.390 OA
ATOM     28  H2  UNL     1      76.811  34.015  68.232  1.00  0.00     0.210 HD
ENDBRANCH   5  27
BRANCH   4  29
HETATM   29  O1  UNL     1      78.971  33.806  66.368  1.00  0.00    -0.391 OA
ATOM     30  H1  UNL     1      78.785  34.580  66.889  1.00  0.00     0.210 HD
ENDBRANCH   4  29
TORSDOF 13
ENDMDL