MODEL 3
REMARK VINA RESULT: -5.616731217      1.330      2.216
REMARK  12 active torsions:
REMARK  status: ('A' for Active; 'I' for Inactive)
REMARK    1  A    between atoms: C2_2  and  C3_3
REMARK    2  A    between atoms: C3_3  and  C4_4
REMARK    3  A    between atoms: C4_4  and  C5_5
REMARK    4  A    between atoms: C5_5  and  C6_6
REMARK    5  A    between atoms: C6_6  and  N1_7
REMARK    6  A    between atoms: C6_6  and  C7_11
REMARK    7  A    between atoms: C8_13  and  O2_14
REMARK    8  A    between atoms: O2_14  and  C9_15
REMARK    9  A    between atoms: C10_16  and  N2_17
REMARK   10  A    between atoms: C12_22  and  N3_23
REMARK   11  A    between atoms: C14_28  and  N4_29
REMARK   12  A    between atoms: C15_33  and  O3_34
ROOT
HETATM    1  C9  UNL     1      79.550  32.058  65.820  1.00  0.00     0.185 C
HETATM    2  C10 UNL     1      79.970  31.756  67.233  1.00  0.00     0.216 C
HETATM    3  C11 UNL     1      81.360  32.259  67.540  1.00  0.00     0.068 C
HETATM    4  C12 UNL     1      82.389  31.792  66.556  1.00  0.00     0.187 C
HETATM    5  C13 UNL     1      81.812  31.091  65.370  1.00  0.00     0.068 C
HETATM    6  C14 UNL     1      80.679  31.933  64.832  1.00  0.00     0.216 C
ENDROOT
BRANCH   1   7
HETATM    7  O2  UNL     1      78.532  31.210  65.435  1.00  0.00    -0.349 OA
BRANCH   7   8
HETATM    8  C8  UNL     1      77.379  31.842  65.037  1.00  0.00     0.292 A
HETATM    9  O1  UNL     1      77.388  32.212  63.674  1.00  0.00    -0.348 OA
HETATM   10  C7  UNL     1      77.336  33.553  63.942  1.00  0.00     0.188 A
HETATM   11  C15 UNL     1      77.397  33.312  65.394  1.00  0.00     0.204 A
BRANCH  10  12
HETATM   12  C6  UNL     1      76.098  34.230  63.384  1.00  0.00     0.215 C
BRANCH  12  13
HETATM   13  C5  UNL     1      76.209  35.696  63.312  1.00  0.00     0.035 C
BRANCH  13  14
HETATM   14  C4  UNL     1      75.106  36.339  62.549  1.00  0.00     0.002 C
BRANCH  14  15
HETATM   15  C3  UNL     1      74.367  37.446  63.233  1.00  0.00    -0.000 C
BRANCH  15  16
HETATM   16  C2  UNL     1      74.758  37.536  64.708  1.00  0.00    -0.005 C
HETATM   17  C1  UNL     1      73.609  38.191  65.461  1.00  0.00     0.005 C
ENDBRANCH  15  16
ENDBRANCH  14  15
ENDBRANCH  13  14
ENDBRANCH  12  13
BRANCH  12  18
HETATM   18  N1  UNL     1      75.594  33.520  62.249  1.00  0.00    -0.072 N
ATOM     19  H13 UNL     1      74.741  33.977  61.928  1.00  0.00     0.274 HD
ATOM     20  H12 UNL     1      76.216  33.681  61.457  1.00  0.00     0.274 HD
ATOM     21  H11 UNL     1      75.421  32.518  62.333  1.00  0.00     0.274 HD
ENDBRANCH  12  18
ENDBRANCH  10  12
BRANCH  11  22
HETATM   22  O3  UNL     1      76.386  33.759  66.197  1.00  0.00    -0.388 OA
ATOM     23  H3  UNL     1      76.248  34.693  66.304  1.00  0.00     0.210 HD
ENDBRANCH  11  22
ENDBRANCH   7   8
ENDBRANCH   1   7
BRANCH   2  24
HETATM   24  N2  UNL     1      79.823  30.338  67.557  1.00  0.00    -0.072 N
ATOM     25  H23 UNL     1      79.046  30.184  68.198  1.00  0.00     0.274 HD
ATOM     26  H22 UNL     1      79.478  29.810  66.756  1.00  0.00     0.274 HD
ATOM     27  H21 UNL     1      80.688  29.937  67.919  1.00  0.00     0.274 HD
ENDBRANCH   2  24
BRANCH   6  28
HETATM   28  N4  UNL     1      80.252  31.323  63.584  1.00  0.00    -0.072 N
ATOM     29  H43 UNL     1      79.848  32.017  62.954  1.00  0.00     0.274 HD
ATOM     30  H42 UNL     1      81.052  31.038  63.020  1.00  0.00     0.274 HD
ATOM     31  H41 UNL     1      79.611  30.545  63.734  1.00  0.00     0.274 HD
ENDBRANCH   6  28
BRANCH   4  32
HETATM   32  N3  UNL     1      83.137  32.964  66.115  1.00  0.00    -0.075 N
ATOM     33  H33 UNL     1      83.452  32.894  65.147  1.00  0.00     0.274 HD
ATOM     34  H32 UNL     1      82.552  33.792  66.006  1.00  0.00     0.274 HD
ATOM     35  H31 UNL     1      83.904  33.103  66.774  1.00  0.00     0.274 HD
ENDBRANCH   4  32
TORSDOF 12
ENDMDL