MODEL 5
REMARK VINA RESULT: -6.210030943      2.843      6.394
REMARK  7 active torsions:
REMARK  status: ('A' for Active; 'I' for Inactive)
REMARK       I    between atoms: C1_2  and  N1_3
REMARK    1  A    between atoms: C1_2  and  C10_18
REMARK    2  A    between atoms: N1_3  and  C2_5
REMARK    3  A    between atoms: C2_5  and  C3_6
REMARK    4  A    between atoms: C3_6  and  C4_7
REMARK    5  A    between atoms: C4_7  and  C5_8
REMARK    6  A    between atoms: C5_8  and  C6_9
REMARK    7  A    between atoms: C6_9  and  N2_10
ROOT
HETATM    1  O1  UNL     1      75.246  33.415  64.839  1.00  0.00    -0.271 OA
HETATM    2  C1  UNL     1      75.654  33.698  63.677  1.00  0.00     0.248 C
HETATM    3  N1  UNL     1      75.687  35.023  63.267  1.00  0.00    -0.359 N
ATOM      4  H1  UNL     1      76.086  35.138  62.336  1.00  0.00     0.162 HD
ENDROOT
BRANCH   3   5
HETATM    5  C2  UNL     1      75.292  36.250  63.849  1.00  0.00     0.122 C
BRANCH   5   6
HETATM    6  C3  UNL     1      75.270  37.455  62.926  1.00  0.00     0.020 C
BRANCH   6   7
HETATM    7  C4  UNL     1      75.859  37.045  61.637  1.00  0.00     0.003 C
BRANCH   7   8
HETATM    8  C5  UNL     1      75.953  37.993  60.499  1.00  0.00     0.022 C
BRANCH   8   9
HETATM    9  C6  UNL     1      77.010  37.408  59.543  1.00  0.00     0.147 C
BRANCH   9  10
HETATM   10  N2  UNL     1      77.832  38.398  59.002  1.00  0.00    -0.275 N
HETATM   11  C7  UNL     1      79.204  38.235  58.822  1.00  0.00     0.193 C
HETATM   12  N3  UNL     1      79.612  37.166  57.971  1.00  0.00    -0.384 N
HETATM   13  C8  UNL     1      78.975  37.081  56.694  1.00  0.00     0.138 C
ATOM     14  H3  UNL     1      80.324  36.494  58.260  1.00  0.00     0.160 HD
HETATM   15  C9  UNL     1      78.302  38.361  56.246  1.00  0.00     0.151 C
HETATM   16  N4  UNL     1      77.017  38.531  56.880  1.00  0.00    -0.124 NA
HETATM   17  N5  UNL     1      77.193  39.234  58.078  1.00  0.00    -0.028 NA
ENDBRANCH   9  10
ENDBRANCH   8   9
ENDBRANCH   7   8
ENDBRANCH   6   7
ENDBRANCH   5   6
ENDBRANCH   3   5
BRANCH   2  18
HETATM   18  C10 UNL     1      76.114  32.667  62.700  1.00  0.00     0.277 C
HETATM   19  C11 UNL     1      75.209  31.421  62.850  1.00  0.00     0.044 C
HETATM   20  C12 UNL     1      75.987  30.147  62.541  1.00  0.00     0.030 C
HETATM   21  C13 UNL     1      76.700  30.255  61.212  1.00  0.00     0.232 C
HETATM   22  N6  UNL     1      78.126  30.230  61.499  1.00  0.00    -0.074 N
HETATM   23  C14 UNL     1      78.802  31.456  61.218  1.00  0.00     0.259 C
ATOM     24  H62 UNL     1      78.290  29.945  62.464  1.00  0.00     0.277 HD
ATOM     25  H61 UNL     1      78.574  29.455  61.010  1.00  0.00     0.277 HD
HETATM   26  C15 UNL     1      78.400  32.611  62.105  1.00  0.00     0.260 C
HETATM   27  N7  UNL     1      77.431  32.125  63.088  1.00  0.00    -0.061 N
ATOM     28  H72 UNL     1      77.689  32.347  64.050  1.00  0.00     0.278 HD
ATOM     29  H71 UNL     1      77.433  31.109  63.186  1.00  0.00     0.278 HD
ENDBRANCH   2  18
TORSDOF 7
ENDMDL