MODEL 3
REMARK VINA RESULT: -5.755003547      1.699      3.039
REMARK  11 active torsions:
REMARK  status: ('A' for Active; 'I' for Inactive)
REMARK    1  A    between atoms: O1_1  and  C1_3
REMARK    2  A    between atoms: C1_3  and  C2_4
REMARK    3  A    between atoms: C3_6  and  N1_7
REMARK    4  A    between atoms: N1_7  and  C4_10
REMARK    5  A    between atoms: C4_10  and  C5_11
REMARK    6  A    between atoms: C5_11  and  C6_12
REMARK    7  A    between atoms: C6_12  and  N2_13
REMARK    8  A    between atoms: N2_13  and  C7_15
REMARK    9  A    between atoms: C13_21  and  O3_22
REMARK   10  A    between atoms: C14_24  and  O4_25
REMARK   11  A    between atoms: C15_27  and  O5_28
ROOT
HETATM    1  C2  UNL     1      77.120  31.901  65.237  1.00  0.00     0.179 C
HETATM    2  O2  UNL     1      77.258  31.788  63.910  1.00  0.00    -0.347 OA
HETATM    3  C3  UNL     1      78.460  31.668  63.309  1.00  0.00     0.353 C
HETATM    4  C13 UNL     1      79.650  31.388  64.149  1.00  0.00     0.205 C
HETATM    5  C14 UNL     1      79.605  32.308  65.358  1.00  0.00     0.182 C
HETATM    6  C15 UNL     1      78.340  31.931  66.091  1.00  0.00     0.180 C
ENDROOT
BRANCH   3   7
HETATM    7  N1  UNL     1      78.468  30.801  62.150  1.00  0.00    -0.046 N
ATOM      8  H12 UNL     1      79.237  30.133  62.188  1.00  0.00     0.280 HD
ATOM      9  H11 UNL     1      77.687  30.144  62.169  1.00  0.00     0.280 HD
BRANCH   7  10
HETATM   10  C4  UNL     1      78.488  31.547  60.947  1.00  0.00     0.237 C
BRANCH  10  11
HETATM   11  C5  UNL     1      77.152  32.062  60.507  1.00  0.00     0.047 C
BRANCH  11  12
HETATM   12  C6  UNL     1      77.008  33.562  60.539  1.00  0.00     0.115 C
BRANCH  12  13
HETATM   13  N2  UNL     1      76.222  33.852  61.697  1.00  0.00    -0.417 N
ATOM     14  H2  UNL     1      76.086  33.160  62.435  1.00  0.00     0.153 HD
BRANCH  13  15
HETATM   15  C7  UNL     1      75.643  35.133  61.778  1.00  0.00     0.076 C
HETATM   16  C8  UNL     1      76.353  35.963  62.859  1.00  0.00     0.024 C
HETATM   17  C9  UNL     1      75.344  37.062  63.208  1.00  0.00     0.002 C
HETATM   18  C10 UNL     1      75.200  37.950  62.005  1.00  0.00     0.000 C
HETATM   19  C11 UNL     1      75.876  37.410  60.767  1.00  0.00     0.002 C
HETATM   20  C12 UNL     1      75.599  35.938  60.540  1.00  0.00     0.024 C
ENDBRANCH  13  15
ENDBRANCH  12  13
ENDBRANCH  11  12
ENDBRANCH  10  11
ENDBRANCH   7  10
ENDBRANCH   3   7
BRANCH   4  21
HETATM   21  O3  UNL     1      80.815  31.740  63.433  1.00  0.00    -0.388 OA
ATOM     22  H3  UNL     1      80.927  32.683  63.462  1.00  0.00     0.210 HD
ENDBRANCH   4  21
BRANCH   1  23
HETATM   23  C1  UNL     1      76.367  33.216  65.505  1.00  0.00     0.198 C
BRANCH  23  24
HETATM   24  O1  UNL     1      75.190  33.265  64.768  1.00  0.00    -0.398 OA
ATOM     25  H1  UNL     1      74.778  34.117  64.849  1.00  0.00     0.209 HD
ENDBRANCH  23  24
ENDBRANCH   1  23
BRANCH   5  26
HETATM   26  O4  UNL     1      79.586  33.641  65.047  1.00  0.00    -0.390 OA
ATOM     27  H4  UNL     1      78.872  33.896  64.475  1.00  0.00     0.210 HD
ENDBRANCH   5  26
BRANCH   6  28
HETATM   28  O5  UNL     1      78.582  30.673  66.694  1.00  0.00    -0.390 OA
ATOM     29  H5  UNL     1      78.635  30.744  67.640  1.00  0.00     0.210 HD
ENDBRANCH   6  28
TORSDOF 11
ENDMDL