MODEL 3
REMARK VINA RESULT: -5.012684456      2.826      6.508
REMARK  7 active torsions:
REMARK  status: ('A' for Active; 'I' for Inactive)
REMARK    1  A    between atoms: O1_2  and  C2_3
REMARK    2  A    between atoms: C2_3  and  C3_4
REMARK    3  A    between atoms: C3_4  and  N1_5
REMARK    4  A    between atoms: C3_4  and  C4_9
REMARK    5  A    between atoms: C4_9  and  C5_10
REMARK    6  A    between atoms: C5_10  and  N2_11
REMARK    7  A    between atoms: N2_11  and  C6_13
ROOT
HETATM    1  C5  UNL     1      85.667  -1.815  44.117  1.00  0.00     0.123 C
ENDROOT
BRANCH   1   2
HETATM    2  C4  UNL     1      86.344  -3.137  44.007  1.00  0.00     0.054 C
BRANCH   2   3
HETATM    3  C3  UNL     1      85.399  -4.228  44.472  1.00  0.00     0.208 C
BRANCH   3   4
HETATM    4  C2  UNL     1      85.420  -5.287  43.360  1.00  0.00     0.199 C
BRANCH   4   5
HETATM    5  O1  UNL     1      84.203  -5.931  43.408  1.00  0.00    -0.394 OA
HETATM    6  C1  UNL     1      84.280  -7.246  43.812  1.00  0.00     0.201 C
ENDBRANCH   4   5
ENDBRANCH   3   4
BRANCH   3   7
HETATM    7  N1  UNL     1      85.968  -4.819  45.675  1.00  0.00    -0.073 N
ATOM      8  H13 UNL     1      86.216  -5.801  45.551  1.00  0.00     0.274 HD
ATOM      9  H12 UNL     1      86.902  -4.465  45.883  1.00  0.00     0.274 HD
ATOM     10  H11 UNL     1      85.312  -4.674  46.442  1.00  0.00     0.274 HD
ENDBRANCH   3   7
ENDBRANCH   2   3
ENDBRANCH   1   2
BRANCH   1  11
HETATM   11  N2  UNL     1      84.422  -1.850  44.851  1.00  0.00    -0.375 N
ATOM     12  H2  UNL     1      83.900  -2.725  44.888  1.00  0.00     0.161 HD
BRANCH  11  13
HETATM   13  C6  UNL     1      83.948  -0.824  45.456  1.00  0.00     0.117 A
HETATM   14  C7  UNL     1      83.566   0.390  44.920  1.00  0.00     0.068 A
HETATM   15  C8  UNL     1      83.112   1.209  45.933  1.00  0.00     0.111 A
HETATM   16  N3  UNL     1      83.230   0.480  47.051  1.00  0.00    -0.310 N
HETATM   17  N4  UNL     1      83.722  -0.720  46.767  1.00  0.00    -0.286 N
ATOM     18  H3  UNL     1      82.978   0.800  47.985  1.00  0.00     0.186 HD
ATOM     19  H4  UNL     1      83.902  -1.455  47.451  1.00  0.00     0.188 HD
ENDBRANCH  11  13
ENDBRANCH   1  11
TORSDOF 7
ENDMDL