MODEL 5
REMARK VINA RESULT: -4.731039744      1.424      1.870
REMARK  7 active torsions:
REMARK  status: ('A' for Active; 'I' for Inactive)
REMARK    1  A    between atoms: C2_2  and  C3_3
REMARK    2  A    between atoms: C3_3  and  C4_4
REMARK    3  A    between atoms: C4_4  and  N1_5
REMARK    4  A    between atoms: N3_11  and  C6_12
REMARK    5  A    between atoms: C6_12  and  C7_13
REMARK    6  A    between atoms: C7_13  and  C8_14
REMARK    7  A    between atoms: C8_14  and  N4_15
ROOT
HETATM    1  C3  UNL     1      87.683  -3.790  43.163  1.00  0.00     0.011 C
HETATM    2  C5  UNL     1      86.809  -4.116  41.970  1.00  0.00     0.141 C
HETATM    3  N2  UNL     1      85.492  -4.444  42.459  1.00  0.00    -0.164 NA
HETATM    4  N3  UNL     1      85.370  -3.906  43.739  1.00  0.00    -0.234 NA
HETATM    5  C9  UNL     1      86.680  -3.828  44.300  1.00  0.00     0.121 C
ENDROOT
BRANCH   1   6
HETATM    6  C2  UNL     1      88.250  -2.429  42.959  1.00  0.00     0.009 C
HETATM    7  C1  UNL     1      87.725  -1.542  41.927  1.00  0.00     0.006 C
ENDBRANCH   1   6
BRANCH   1   8
HETATM    8  C4  UNL     1      88.643  -4.901  43.354  1.00  0.00     0.241 C
BRANCH   8   9
HETATM    9  N1  UNL     1      88.524  -6.044  42.522  1.00  0.00    -0.079 N
ATOM     10  H13 UNL     1      88.240  -5.747  41.588  1.00  0.00     0.274 HD
ATOM     11  H12 UNL     1      89.455  -6.416  42.334  1.00  0.00     0.274 HD
ATOM     12  H11 UNL     1      87.916  -6.804  42.828  1.00  0.00     0.274 HD
ENDBRANCH   8   9
ENDBRANCH   1   8
BRANCH   4  13
HETATM   13  C6  UNL     1      84.666  -2.645  43.738  1.00  0.00     0.111 C
BRANCH  13  14
HETATM   14  C7  UNL     1      85.113  -1.801  44.937  1.00  0.00     0.043 C
BRANCH  14  15
HETATM   15  C8  UNL     1      84.001  -0.804  45.276  1.00  0.00     0.231 C
BRANCH  15  16
HETATM   16  N4  UNL     1      83.692  -0.902  46.698  1.00  0.00    -0.079 N
ATOM     17  H43 UNL     1      84.277  -1.587  47.176  1.00  0.00     0.274 HD
ATOM     18  H42 UNL     1      83.988  -0.075  47.218  1.00  0.00     0.274 HD
ATOM     19  H41 UNL     1      82.697  -1.096  46.809  1.00  0.00     0.274 HD
ENDBRANCH  15  16
ENDBRANCH  14  15
ENDBRANCH  13  14
ENDBRANCH   4  13
TORSDOF 7
ENDMDL