MODEL 2
REMARK VINA RESULT: -4.624357279      3.515      5.065
REMARK  5 active torsions:
REMARK  status: ('A' for Active; 'I' for Inactive)
REMARK    1  A    between atoms: N1_1  and  C1_5
REMARK    2  A    between atoms: N2_8  and  C4_9
REMARK    3  A    between atoms: C4_9  and  C5_10
REMARK    4  A    between atoms: C5_10  and  C6_11
REMARK    5  A    between atoms: C6_11  and  N3_12
REMARK       I    between atoms: N3_12  and  C7_15
REMARK       I    between atoms: C7_15  and  N4_16
REMARK       I    between atoms: C7_15  and  N5_20
ROOT
HETATM    1  C6  UNL     1      88.412  -6.446  40.628  1.00  0.00     0.238 C
ENDROOT
BRANCH   1   2
HETATM    2  C5  UNL     1      88.600  -5.547  41.833  1.00  0.00     0.058 C
BRANCH   2   3
HETATM    3  C4  UNL     1      87.671  -4.381  41.659  1.00  0.00     0.274 C
BRANCH   3   4
HETATM    4  N2  UNL     1      87.223  -3.766  42.858  1.00  0.00     0.090 N
HETATM    5  C3  UNL     1      85.981  -3.087  42.800  1.00  0.00     0.274 C
HETATM    6  C2  UNL     1      85.167  -3.558  44.013  1.00  0.00     0.064 C
HETATM    7  C1  UNL     1      85.605  -5.028  44.047  1.00  0.00     0.213 C
HETATM    8  C8  UNL     1      87.113  -4.833  43.863  1.00  0.00     0.305 C
BRANCH   7   9
HETATM    9  N1  UNL     1      85.287  -5.674  45.276  1.00  0.00    -0.073 N
ATOM     10  H13 UNL     1      84.316  -5.505  45.536  1.00  0.00     0.274 HD
ATOM     11  H12 UNL     1      85.253  -6.686  45.157  1.00  0.00     0.274 HD
ATOM     12  H11 UNL     1      85.918  -5.418  46.035  1.00  0.00     0.274 HD
ENDBRANCH   7   9
ENDBRANCH   3   4
ENDBRANCH   2   3
ENDBRANCH   1   2
BRANCH   1  13
HETATM   13  N3  UNL     1      88.687  -7.824  40.943  1.00  0.00    -0.022 N
HETATM   14  C7  UNL     1      89.624  -8.407  40.009  1.00  0.00     0.575 C
HETATM   15  N4  UNL     1      89.104  -8.364  38.647  1.00  0.00    -0.026 N
HETATM   16  N5  UNL     1      90.890  -7.699  39.990  1.00  0.00    -0.026 N
ATOM     17  H43 UNL     1      88.187  -8.804  38.582  1.00  0.00     0.278 HD
ATOM     18  H42 UNL     1      88.843  -7.417  38.374  1.00  0.00     0.278 HD
ATOM     19  H41 UNL     1      89.765  -8.776  37.988  1.00  0.00     0.278 HD
ATOM     20  H53 UNL     1      90.754  -6.705  39.806  1.00  0.00     0.278 HD
ATOM     21  H52 UNL     1      91.292  -7.636  40.925  1.00  0.00     0.278 HD
ATOM     22  H51 UNL     1      91.551  -8.110  39.331  1.00  0.00     0.278 HD
ATOM     23  H32 UNL     1      89.006  -7.930  41.906  1.00  0.00     0.281 HD
ATOM     24  H31 UNL     1      87.828  -8.372  40.999  1.00  0.00     0.281 HD
ENDBRANCH   1  13
TORSDOF 5
ENDMDL