MODEL 1
REMARK VINA RESULT: -5.028751136      0.000      0.000
REMARK  7 active torsions:
REMARK  status: ('A' for Active; 'I' for Inactive)
REMARK    1  A    between atoms: N1_1  and  C1_5
REMARK    2  A    between atoms: C1_5  and  C2_6
REMARK    3  A    between atoms: C2_6  and  N2_7
REMARK    4  A    between atoms: N2_7  and  C3_10
REMARK    5  A    between atoms: C3_10  and  C4_11
REMARK    6  A    between atoms: C5_12  and  N3_13
REMARK    7  A    between atoms: C6_17  and  C7_18
ROOT
HETATM    1  C4  UNL     1      85.245  -3.943  43.695  1.00  0.00     0.054 A
HETATM    2  C5  UNL     1      84.852  -5.358  43.674  1.00  0.00     0.200 A
HETATM    3  C6  UNL     1      85.757  -4.747  42.602  1.00  0.00     0.075 A
ENDROOT
BRANCH   1   4
HETATM    4  C3  UNL     1      85.988  -3.425  44.870  1.00  0.00     0.239 C
BRANCH   4   5
HETATM    5  N2  UNL     1      85.151  -2.451  45.572  1.00  0.00    -0.073 N
ATOM      6  H22 UNL     1      85.652  -2.012  46.345  1.00  0.00     0.277 HD
ATOM      7  H21 UNL     1      84.410  -2.906  46.106  1.00  0.00     0.277 HD
BRANCH   5   8
HETATM    8  C2  UNL     1      84.618  -1.464  44.650  1.00  0.00     0.259 C
BRANCH   8   9
HETATM    9  C1  UNL     1      83.803  -0.483  45.452  1.00  0.00     0.257 C
BRANCH   9  10
HETATM   10  N1  UNL     1      83.597  -0.897  46.808  1.00  0.00    -0.078 N
ATOM     11  H13 UNL     1      84.315  -1.561  47.098  1.00  0.00     0.274 HD
ATOM     12  H12 UNL     1      83.803  -0.136  47.455  1.00  0.00     0.274 HD
ATOM     13  H11 UNL     1      82.665  -1.274  46.975  1.00  0.00     0.274 HD
ENDBRANCH   9  10
ENDBRANCH   8   9
ENDBRANCH   5   8
ENDBRANCH   4   5
ENDBRANCH   1   4
BRANCH   2  14
HETATM   14  N3  UNL     1      85.463  -6.396  44.443  1.00  0.00    -0.074 N
ATOM     15  H33 UNL     1      86.327  -6.009  44.821  1.00  0.00     0.274 HD
ATOM     16  H32 UNL     1      84.886  -6.521  45.274  1.00  0.00     0.274 HD
ATOM     17  H31 UNL     1      85.687  -7.330  44.099  1.00  0.00     0.274 HD
ENDBRANCH   2  14
BRANCH   3  18
HETATM   18  C7  UNL     1      87.116  -5.291  42.483  1.00  0.00     0.033 A
HETATM   19  C8  UNL     1      88.233  -4.701  43.070  1.00  0.00     0.045 A
HETATM   20  C9  UNL     1      89.336  -5.475  42.758  1.00  0.00     0.109 A
HETATM   21  N4  UNL     1      88.893  -6.496  42.009  1.00  0.00    -0.312 N
HETATM   22  N5  UNL     1      87.593  -6.363  41.864  1.00  0.00    -0.305 N
ATOM     23  H4  UNL     1      89.464  -7.245  41.619  1.00  0.00     0.186 HD
ATOM     24  H5  UNL     1      87.014  -7.014  41.333  1.00  0.00     0.186 HD
ENDBRANCH   3  18
TORSDOF 7
ENDMDL