MODEL 4
REMARK VINA RESULT: -4.499108947      2.893      4.807
REMARK  7 active torsions:
REMARK  status: ('A' for Active; 'I' for Inactive)
REMARK    1  A    between atoms: C3_3  and  C4_4
REMARK    2  A    between atoms: C4_4  and  O1_5
REMARK    3  A    between atoms: O1_5  and  C5_6
REMARK    4  A    between atoms: C7_11  and  C8_12
REMARK    5  A    between atoms: C8_12  and  N2_13
REMARK    6  A    between atoms: C8_12  and  C9_17
REMARK    7  A    between atoms: C9_17  and  N3_18
ROOT
HETATM    1  C1  UNL     1      86.061  -3.261  38.482  1.00  0.00     0.112 C
HETATM    2  C2  UNL     1      86.227  -2.396  39.661  1.00  0.00    -0.109 C
HETATM    3  C3  UNL     1      86.361  -1.674  40.618  1.00  0.00    -0.081 C
ENDROOT
BRANCH   3   4
HETATM    4  C4  UNL     1      86.540  -0.777  41.783  1.00  0.00     0.261 C
BRANCH   4   5
HETATM    5  O1  UNL     1      86.437  -1.597  42.909  1.00  0.00    -0.370 OA
BRANCH   5   6
HETATM    6  C5  UNL     1      85.115  -1.521  43.355  1.00  0.00     0.181 C
HETATM    7  C6  UNL     1      84.638  -2.899  43.748  1.00  0.00     0.266 C
HETATM    8  N1  UNL     1      85.321  -2.709  45.023  1.00  0.00    -0.064 N
HETATM    9  C7  UNL     1      85.095  -1.268  44.838  1.00  0.00     0.248 C
ATOM     10  H12 UNL     1      85.013  -3.190  45.868  1.00  0.00     0.277 HD
ATOM     11  H11 UNL     1      86.256  -3.083  45.186  1.00  0.00     0.277 HD
BRANCH   9  12
HETATM   12  C8  UNL     1      83.753  -0.906  45.416  1.00  0.00     0.241 C
BRANCH  12  13
HETATM   13  N2  UNL     1      83.835  -1.077  46.855  1.00  0.00    -0.071 N
ATOM     14  H23 UNL     1      84.776  -0.927  47.219  1.00  0.00     0.274 HD
ATOM     15  H22 UNL     1      83.371  -0.331  47.371  1.00  0.00     0.274 HD
ATOM     16  H21 UNL     1      83.467  -2.003  47.075  1.00  0.00     0.274 HD
ENDBRANCH  12  13
BRANCH  12  17
HETATM   17  C9  UNL     1      83.355   0.523  45.115  1.00  0.00     0.264 C
BRANCH  17  18
HETATM   18  N3  UNL     1      82.811   1.146  46.302  1.00  0.00    -0.077 N
ATOM     19  H33 UNL     1      82.077   0.580  46.728  1.00  0.00     0.274 HD
ATOM     20  H32 UNL     1      83.476   1.137  47.076  1.00  0.00     0.274 HD
ATOM     21  H31 UNL     1      82.490   2.089  46.085  1.00  0.00     0.274 HD
ENDBRANCH  17  18
ENDBRANCH  12  17
ENDBRANCH   9  12
ENDBRANCH   5   6
ENDBRANCH   4   5
ENDBRANCH   3   4
TORSDOF 7
ENDMDL