MODEL 3
REMARK VINA RESULT: -4.749174518      1.921      3.818
REMARK  7 active torsions:
REMARK  status: ('A' for Active; 'I' for Inactive)
REMARK    1  A    between atoms: C2_2  and  N1_3
REMARK    2  A    between atoms: N1_3  and  C3_6
REMARK    3  A    between atoms: C3_6  and  C4_7
REMARK    4  A    between atoms: C7_14  and  N4_15
REMARK    5  A    between atoms: N4_15  and  C8_17
REMARK    6  A    between atoms: C8_17  and  C9_18
REMARK    7  A    between atoms: C9_18  and  N5_19
ROOT
HETATM    1  C4  UNL     1      86.649  -4.012  44.416  1.00  0.00     0.026 A
HETATM    2  C5  UNL     1      87.819  -4.417  43.812  1.00  0.00     0.101 A
HETATM    3  N2  UNL     1      88.521  -3.534  43.082  1.00  0.00    -0.361 N
ATOM      4  H2  UNL     1      89.388  -3.830  42.633  1.00  0.00     0.166 HD
HETATM    5  C6  UNL     1      88.100  -2.269  42.933  1.00  0.00     0.181 A
HETATM    6  N3  UNL     1      86.958  -1.889  43.528  1.00  0.00    -0.338 N
ATOM      7  H3  UNL     1      86.648  -0.924  43.409  1.00  0.00     0.168 HD
HETATM    8  C7  UNL     1      86.203  -2.717  44.274  1.00  0.00     0.111 A
ENDROOT
BRANCH   8   9
HETATM    9  N4  UNL     1      85.121  -2.382  44.846  1.00  0.00    -0.374 N
ATOM     10  H4  UNL     1      84.770  -3.023  45.557  1.00  0.00     0.161 HD
BRANCH   9  11
HETATM   11  C8  UNL     1      84.340  -1.216  44.609  1.00  0.00     0.148 C
BRANCH  11  12
HETATM   12  C9  UNL     1      83.947  -0.646  45.979  1.00  0.00     0.249 C
BRANCH  12  13
HETATM   13  N5  UNL     1      83.033   0.441  45.749  1.00  0.00    -0.078 N
ATOM     14  H53 UNL     1      82.402   0.601  46.533  1.00  0.00     0.274 HD
ATOM     15  H52 UNL     1      83.490   1.352  45.756  1.00  0.00     0.274 HD
ATOM     16  H51 UNL     1      82.542   0.249  44.875  1.00  0.00     0.274 HD
ENDBRANCH  12  13
ENDBRANCH  11  12
ENDBRANCH   9  11
ENDBRANCH   8   9
BRANCH   1  17
HETATM   17  C3  UNL     1      85.837  -4.961  45.238  1.00  0.00     0.276 C
BRANCH  17  18
HETATM   18  N1  UNL     1      85.805  -6.279  44.632  1.00  0.00    -0.071 N
ATOM     19  H12 UNL     1      85.889  -7.035  45.311  1.00  0.00     0.277 HD
ATOM     20  H11 UNL     1      86.646  -6.495  44.095  1.00  0.00     0.277 HD
BRANCH  18  21
HETATM   21  C2  UNL     1      84.581  -6.352  43.838  1.00  0.00     0.228 C
HETATM   22  C1  UNL     1      84.006  -7.729  43.808  1.00  0.00     0.034 C
ENDBRANCH  18  21
ENDBRANCH  17  18
ENDBRANCH   1  17
TORSDOF 7
ENDMDL