MODEL 2
REMARK VINA RESULT: -4.609258918      2.693      5.919
REMARK  6 active torsions:
REMARK  status: ('A' for Active; 'I' for Inactive)
REMARK    1  A    between atoms: N1_1  and  C1_5
REMARK    2  A    between atoms: C1_5  and  C2_6
REMARK    3  A    between atoms: C2_6  and  C3_7
REMARK    4  A    between atoms: C3_7  and  N2_8
REMARK    5  A    between atoms: N2_8  and  C4_10
REMARK    6  A    between atoms: C4_10  and  C5_11
ROOT
HETATM    1  C5  UNL     1      86.325  -3.610  43.029  1.00  0.00     0.241 C
HETATM    2  C6  UNL     1      86.539  -4.877  42.331  1.00  0.00     0.094 C
HETATM    3  N3  UNL     1      85.723  -5.985  42.616  1.00  0.00    -0.380 N
ATOM      4  H3  UNL     1      85.759  -6.803  42.008  1.00  0.00     0.164 HD
HETATM    5  C7  UNL     1      84.864  -5.986  43.718  1.00  0.00     0.062 C
HETATM    6  C8  UNL     1      85.525  -5.821  45.075  1.00  0.00     0.072 C
HETATM    7  C9  UNL     1      86.098  -4.448  45.182  1.00  0.00     0.238 C
HETATM    8  N4  UNL     1      85.447  -3.615  44.157  1.00  0.00    -0.065 N
ATOM      9  H41 UNL     1      84.500  -3.916  43.931  1.00  0.00     0.278 HD
ATOM     10  H42 UNL     1      85.206  -2.681  44.487  1.00  0.00     0.278 HD
ENDROOT
BRANCH   1  11
HETATM   11  C4  UNL     1      86.016  -2.433  42.079  1.00  0.00     0.152 C
BRANCH  11  12
HETATM   12  N2  UNL     1      85.046  -1.647  42.761  1.00  0.00    -0.419 N
ATOM     13  H2  UNL     1      84.625  -1.973  43.632  1.00  0.00     0.153 HD
BRANCH  12  14
HETATM   14  C3  UNL     1      84.685  -0.405  42.199  1.00  0.00     0.115 C
BRANCH  14  15
HETATM   15  C2  UNL     1      85.348  -0.084  40.890  1.00  0.00     0.046 C
BRANCH  15  16
HETATM   16  C1  UNL     1      84.313  -0.154  39.758  1.00  0.00     0.231 C
BRANCH  16  17
HETATM   17  N1  UNL     1      84.557  -1.301  38.904  1.00  0.00    -0.079 N
ATOM     18  H13 UNL     1      85.481  -1.701  39.067  1.00  0.00     0.274 HD
ATOM     19  H12 UNL     1      83.990  -2.103  39.181  1.00  0.00     0.274 HD
ATOM     20  H11 UNL     1      84.417  -1.061  37.923  1.00  0.00     0.274 HD
ENDBRANCH  16  17
ENDBRANCH  15  16
ENDBRANCH  14  15
ENDBRANCH  12  14
ENDBRANCH  11  12
ENDBRANCH   1  11
TORSDOF 6
ENDMDL