MODEL 4
REMARK VINA RESULT: -4.429801886      1.469      4.850
REMARK  6 active torsions:
REMARK  status: ('A' for Active; 'I' for Inactive)
REMARK    1  A    between atoms: C2_2  and  N1_3
REMARK    2  A    between atoms: C2_2  and  C3_7
REMARK    3  A    between atoms: C3_7  and  N2_8
REMARK    4  A    between atoms: C3_7  and  C4_12
REMARK    5  A    between atoms: C4_12  and  C5_13
REMARK    6  A    between atoms: C5_13  and  N3_14
ROOT
HETATM    1  C3  UNL     1      86.106  -1.136  40.699  1.00  0.00     0.214 C
ENDROOT
BRANCH   1   2
HETATM    2  C2  UNL     1      84.662  -0.781  40.862  1.00  0.00     0.209 C
HETATM    3  C1  UNL     1      84.461   0.386  41.817  1.00  0.00     0.042 C
BRANCH   2   4
HETATM    4  N1  UNL     1      84.016  -0.420  39.618  1.00  0.00    -0.073 N
ATOM      5  H13 UNL     1      83.046  -0.730  39.564  1.00  0.00     0.274 HD
ATOM      6  H12 UNL     1      83.837   0.580  39.533  1.00  0.00     0.274 HD
ATOM      7  H11 UNL     1      84.598  -0.790  38.866  1.00  0.00     0.274 HD
ENDBRANCH   2   4
ENDBRANCH   1   2
BRANCH   1   8
HETATM    8  N2  UNL     1      86.239  -2.430  40.119  1.00  0.00    -0.073 N
ATOM      9  H23 UNL     1      85.736  -2.503  39.235  1.00  0.00     0.274 HD
ATOM     10  H22 UNL     1      87.183  -2.594  39.769  1.00  0.00     0.274 HD
ATOM     11  H21 UNL     1      85.950  -3.150  40.780  1.00  0.00     0.274 HD
ENDBRANCH   1   8
BRANCH   1  12
HETATM   12  C4  UNL     1      86.905  -0.926  41.946  1.00  0.00     0.054 C
BRANCH  12  13
HETATM   13  C5  UNL     1      87.710  -2.156  42.325  1.00  0.00     0.124 C
BRANCH  13  14
HETATM   14  N3  UNL     1      87.296  -2.678  43.583  1.00  0.00    -0.390 N
HETATM   15  C6  UNL     1      87.475  -4.057  43.819  1.00  0.00     0.149 C
HETATM   16  C7  UNL     1      86.444  -4.531  44.822  1.00  0.00     0.252 C
HETATM   17  N4  UNL     1      85.094  -4.368  44.368  1.00  0.00    -0.069 N
HETATM   18  C8  UNL     1      84.863  -3.041  43.873  1.00  0.00     0.276 C
ATOM     19  H42 UNL     1      84.846  -5.073  43.674  1.00  0.00     0.277 HD
ATOM     20  H41 UNL     1      84.422  -4.617  45.094  1.00  0.00     0.277 HD
HETATM   21  C9  UNL     1      86.070  -2.181  44.066  1.00  0.00     0.085 C
ENDBRANCH  13  14
ENDBRANCH  12  13
ENDBRANCH   1  12
TORSDOF 6
ENDMDL