MODEL 1
REMARK VINA RESULT: -4.725902286      0.000      0.000
REMARK  6 active torsions:
REMARK  status: ('A' for Active; 'I' for Inactive)
REMARK    1  A    between atoms: N1_1  and  C1_5
REMARK    2  A    between atoms: C1_5  and  C2_6
REMARK    3  A    between atoms: C2_6  and  C3_7
REMARK    4  A    between atoms: C3_7  and  C4_8
REMARK    5  A    between atoms: C4_8  and  N2_9
REMARK    6  A    between atoms: N2_9  and  C5_12
ROOT
HETATM    1  N2  UNL     1      86.263  -1.479  42.783  1.00  0.00    -0.068 N
ATOM      2  H21 UNL     1      86.874  -0.665  42.856  1.00  0.00     0.277 HD
ATOM      3  H22 UNL     1      86.512  -1.788  41.843  1.00  0.00     0.277 HD
ENDROOT
BRANCH   1   4
HETATM    4  C4  UNL     1      84.884  -1.095  42.851  1.00  0.00     0.233 C
BRANCH   4   5
HETATM    5  C3  UNL     1      84.648   0.231  42.112  1.00  0.00     0.029 C
BRANCH   5   6
HETATM    6  C2  UNL     1      85.227   0.075  40.713  1.00  0.00     0.029 C
BRANCH   6   7
HETATM    7  C1  UNL     1      84.188  -0.281  39.688  1.00  0.00     0.229 C
BRANCH   7   8
HETATM    8  N1  UNL     1      84.669  -1.363  38.866  1.00  0.00    -0.079 N
ATOM      9  H13 UNL     1      85.461  -1.847  39.292  1.00  0.00     0.274 HD
ATOM     10  H12 UNL     1      84.016  -2.146  38.840  1.00  0.00     0.274 HD
ATOM     11  H11 UNL     1      84.889  -1.013  37.934  1.00  0.00     0.274 HD
ENDBRANCH   7   8
ENDBRANCH   6   7
ENDBRANCH   5   6
ENDBRANCH   4   5
ENDBRANCH   1   4
BRANCH   1  12
HETATM   12  C5  UNL     1      86.603  -2.459  43.749  1.00  0.00     0.220 C
HETATM   13  C6  UNL     1      87.159  -3.741  43.208  1.00  0.00     0.148 C
HETATM   14  N3  UNL     1      86.052  -4.489  42.653  1.00  0.00    -0.418 N
HETATM   15  C7  UNL     1      85.308  -5.258  43.589  1.00  0.00     0.133 C
ATOM     16  H3  UNL     1      85.822  -4.467  41.659  1.00  0.00     0.153 HD
HETATM   17  C8  UNL     1      85.779  -5.150  45.010  1.00  0.00     0.133 C
HETATM   18  N4  UNL     1      85.798  -3.837  45.535  1.00  0.00    -0.418 N
HETATM   19  C9  UNL     1      85.411  -2.785  44.664  1.00  0.00     0.148 C
ATOM     20  H4  UNL     1      86.079  -3.654  46.498  1.00  0.00     0.153 HD
ENDBRANCH   1  12
TORSDOF 6
ENDMDL