MODEL 1
REMARK VINA RESULT: -8.544763998      0.000      0.000
REMARK  8 active torsions:
REMARK  status: ('A' for Active; 'I' for Inactive)
REMARK    1  A    between atoms: C3_3  and  C4_4
REMARK    2  A    between atoms: C4_4  and  C7_7
REMARK    3  A    between atoms: C8_8  and  C9_9
REMARK    4  A    between atoms: C11_11  and  S1_12
REMARK    5  A    between atoms: S1_12  and  C12_13
REMARK    6  A    between atoms: C13_16  and  C14_17
REMARK    7  A    between atoms: C16_19  and  C17_20
REMARK    8  A    between atoms: C17_20  and  C18_21
ROOT
HETATM    1  C1  UNL     1      10.010   0.938  18.306  1.00  0.00     0.112 C
HETATM    2  C2  UNL     1       8.774   1.596  18.800  1.00  0.00    -0.109 C
HETATM    3  C3  UNL     1       7.781   2.141  19.212  1.00  0.00    -0.085 C
ENDROOT
BRANCH   3   4
HETATM    4  C4  UNL     1       6.589   2.807  19.736  1.00  0.00     0.080 C
HETATM    5  C5  UNL     1       5.334   2.143  19.181  1.00  0.00     0.043 C
HETATM    6  C6  UNL     1       6.613   2.677  21.262  1.00  0.00     0.043 C
BRANCH   4   7
HETATM    7  C7  UNL     1       6.593   4.240  19.448  1.00  0.00    -0.079 C
HETATM    8  C8  UNL     1       6.577   5.425  19.225  1.00  0.00    -0.064 C
BRANCH   8   9
HETATM    9  C9  UNL     1       6.535   6.861  18.972  1.00  0.00     0.040 A
HETATM   10  C10 UNL     1       7.230   7.720  19.797  1.00  0.00     0.041 A
HETATM   11  C11 UNL     1       7.211   9.081  19.576  1.00  0.00     0.009 A
HETATM   12  C23 UNL     1       6.480   9.559  18.511  1.00  0.00     0.021 A
HETATM   13  C24 UNL     1       5.776   8.708  17.674  1.00  0.00     0.026 A
HETATM   14  C25 UNL     1       5.802   7.333  17.907  1.00  0.00     0.052 A
HETATM   15 CL1  UNL     1       4.939   6.197  16.891  1.00  0.00    -0.083 Cl
BRANCH  11  16
HETATM   16  S1  UNL     1       8.134  10.174  20.677  1.00  0.00    -0.054 SA
BRANCH  16  17
HETATM   17  C12 UNL     1       8.056   9.583  22.356  1.00  0.00     0.149 A
HETATM   18  N1  UNL     1       9.075   9.470  23.212  1.00  0.00    -0.338 N
HETATM   19  C13 UNL     1       8.626   8.973  24.409  1.00  0.00     0.034 A
ATOM     20  H1  UNL     1      10.042   9.716  23.007  1.00  0.00     0.168 HD
HETATM   21  C16 UNL     1       7.279   8.774  24.282  1.00  0.00     0.040 A
HETATM   22  N3  UNL     1       6.974   9.163  23.002  1.00  0.00    -0.338 N
ATOM     23  H3  UNL     1       6.037   9.133  22.599  1.00  0.00     0.168 HD
BRANCH  19  24
HETATM   24  C14 UNL     1       9.540   8.718  25.549  1.00  0.00     0.055 C
HETATM   25  C15 UNL     1      10.940   9.096  25.152  1.00  0.00     0.011 C
ENDBRANCH  19  24
BRANCH  21  26
HETATM   26  C17 UNL     1       6.306   8.300  25.273  1.00  0.00     0.125 C
BRANCH  26  27
HETATM   27  C18 UNL     1       5.104   7.625  24.798  1.00  0.00     0.075 A
HETATM   28  O1  UNL     1       5.135   6.653  23.897  1.00  0.00    -0.265 OA
HETATM   29  C19 UNL     1       4.122   6.014  23.436  1.00  0.00     0.372 A
HETATM   30  O2  UNL     1       4.323   5.112  22.578  1.00  0.00    -0.238 OA
HETATM   31  N2  UNL     1       2.901   6.333  23.887  1.00  0.00    -0.269 N
HETATM   32  C20 UNL     1       2.743   7.299  24.800  1.00  0.00     0.258 A
ATOM     33  H2  UNL     1       2.084   5.834  23.533  1.00  0.00     0.174 HD
HETATM   34  O3  UNL     1       1.589   7.605  25.230  1.00  0.00    -0.267 OA
HETATM   35  C21 UNL     1       3.853   7.971  25.278  1.00  0.00     0.036 A
HETATM   36  C22 UNL     1       3.634   9.030  26.300  1.00  0.00     0.056 C
ENDBRANCH  26  27
ENDBRANCH  21  26
ENDBRANCH  16  17
ENDBRANCH  11  16
ENDBRANCH   8   9
ENDBRANCH   4   7
ENDBRANCH   3   4
TORSDOF 8
ENDMDL