MODEL 1
REMARK VINA RESULT: -7.609542537      0.000      0.000
REMARK  7 active torsions:
REMARK  status: ('A' for Active; 'I' for Inactive)
REMARK    1  A    between atoms: C2_2  and  C3_3
REMARK    2  A    between atoms: C8_8  and  C9_9
REMARK    3  A    between atoms: C9_9  and  S1_11
REMARK    4  A    between atoms: S1_11  and  C11_12
REMARK    5  A    between atoms: C14_17  and  C15_18
REMARK    6  A    between atoms: C17_21  and  O1_22
REMARK    7  A    between atoms: C18_24  and  O2_25
ROOT
HETATM    1  C11 UNL     1       8.251   8.532  24.155  1.00  0.00     0.197 C
HETATM    2  C12 UNL     1       9.580   9.091  24.230  1.00  0.00     0.069 C
HETATM    3  N1  UNL     1      10.647   9.515  24.297  1.00  0.00    -0.197 NA
ENDROOT
BRANCH   1   4
HETATM    4  S1  UNL     1       7.343   8.827  22.665  1.00  0.00    -0.150 SA
BRANCH   4   5
HETATM    5  C9  UNL     1       7.904   7.873  21.212  1.00  0.00     0.050 C
HETATM    6  C10 UNL     1       8.521   8.958  20.299  1.00  0.00     0.022 C
BRANCH   5   7
HETATM    7  C8  UNL     1       6.769   7.314  20.439  1.00  0.00     0.023 C
HETATM    8  C7  UNL     1       6.874   5.957  19.864  1.00  0.00     0.018 C
HETATM    9  C6  UNL     1       8.218   5.315  19.920  1.00  0.00     0.008 C
HETATM   10  C16 UNL     1       6.503   6.108  18.391  1.00  0.00     0.125 C
HETATM   11  C5  UNL     1       7.955   3.833  19.920  1.00  0.00     0.014 C
HETATM   12  C3  UNL     1       7.887   3.175  18.601  1.00  0.00    -0.020 C
HETATM   13  C4  UNL     1       7.388   1.761  18.978  1.00  0.00     0.020 C
HETATM   14  C23 UNL     1       7.115   3.773  17.503  1.00  0.00     0.040 C
HETATM   15  C17 UNL     1       6.206   4.903  17.638  1.00  0.00     0.109 C
HETATM   16  C21 UNL     1       6.404   2.739  16.605  1.00  0.00    -0.010 C
HETATM   17  C18 UNL     1       6.006   5.359  16.167  1.00  0.00     0.155 C
HETATM   18  C19 UNL     1       4.861   4.560  15.680  1.00  0.00     0.035 C
HETATM   19  C20 UNL     1       5.151   3.125  15.957  1.00  0.00     0.007 C
HETATM   20  C22 UNL     1       7.363   2.174  15.549  1.00  0.00     0.010 C
HETATM   21  N2  UNL     1       5.653   7.180  18.421  1.00  0.00    -0.384 N
HETATM   22  C13 UNL     1       6.336   8.155  19.252  1.00  0.00     0.128 C
HETATM   23  C14 UNL     1       4.303   7.284  18.493  1.00  0.00     0.069 C
BRANCH  12  24
HETATM   24  C2  UNL     1       9.344   2.915  18.255  1.00  0.00    -0.027 C
HETATM   25  C1  UNL     1       9.885   1.735  18.253  1.00  0.00     0.007 C
ENDBRANCH  12  24
BRANCH  15  26
HETATM   26  O1  UNL     1       4.983   4.393  18.140  1.00  0.00    -0.385 OA
ATOM     27  H1  UNL     1       4.769   3.626  17.621  1.00  0.00     0.210 HD
ENDBRANCH  15  26
BRANCH  17  28
HETATM   28  O2  UNL     1       5.994   6.697  15.979  1.00  0.00    -0.392 OA
ATOM     29  H2  UNL     1       6.678   7.174  16.436  1.00  0.00     0.210 HD
ENDBRANCH  17  28
BRANCH  23  30
HETATM   30  C15 UNL     1       3.538   6.969  19.743  1.00  0.00     0.129 C
HETATM   31 BR1  UNL     1       2.665   8.655  20.259  1.00  0.00    -0.091 Br
ENDBRANCH  23  30
ENDBRANCH   5   7
ENDBRANCH   4   5
ENDBRANCH   1   4
TORSDOF 7
ENDMDL