MODEL 1
REMARK VINA RESULT: -7.944068511      0.000      0.000
REMARK  8 active torsions:
REMARK  status: ('A' for Active; 'I' for Inactive)
REMARK    1  A    between atoms: C2_2  and  O1_5
REMARK    2  A    between atoms: O1_5  and  C5_6
REMARK       I    between atoms: C5_6  and  N1_8
REMARK    3  A    between atoms: N1_8  and  C6_10
REMARK    4  A    between atoms: C6_10  and  C8_12
REMARK    5  A    between atoms: C6_10  and  C13_20
REMARK       I    between atoms: C8_12  and  N2_14
REMARK    6  A    between atoms: C13_20  and  N3_28
REMARK    7  A    between atoms: C14_21  and  C15_22
REMARK       I    between atoms: N3_28  and  C21_30
REMARK    8  A    between atoms: C21_30  and  C22_32
ROOT
HETATM    1  C6  UNL     1       6.387   5.210  19.604  1.00  0.00     0.154 C
HETATM    2  C7  UNL     1       5.092   5.982  19.392  1.00  0.00     0.056 C
ENDROOT
BRANCH   1   3
HETATM    3  N1  UNL     1       7.262   6.212  20.291  1.00  0.00    -0.314 N
HETATM    4  C5  UNL     1       7.620   7.466  19.851  1.00  0.00     0.362 C
HETATM    5  O2  UNL     1       7.328   8.090  18.811  1.00  0.00    -0.238 OA
ATOM      6  H1  UNL     1       7.639   5.931  21.195  1.00  0.00     0.166 HD
BRANCH   4   7
HETATM    7  O1  UNL     1       8.477   8.227  20.702  1.00  0.00    -0.294 OA
BRANCH   7   8
HETATM    8  C2  UNL     1       7.951   8.963  21.785  1.00  0.00     0.061 C
HETATM    9  C1  UNL     1       7.780  10.432  21.427  1.00  0.00     0.046 C
HETATM   10  C3  UNL     1       8.930   8.885  22.925  1.00  0.00     0.046 C
HETATM   11  C4  UNL     1       6.604   8.451  22.224  1.00  0.00     0.046 C
ENDBRANCH   7   8
ENDBRANCH   4   7
ENDBRANCH   1   3
BRANCH   1  12
HETATM   12  C8  UNL     1       6.141   4.212  20.665  1.00  0.00     0.254 C
HETATM   13  O3  UNL     1       7.002   4.129  21.629  1.00  0.00    -0.270 OA
HETATM   14  N2  UNL     1       5.104   3.302  20.831  1.00  0.00    -0.346 N
HETATM   15  C9  UNL     1       5.140   2.391  21.990  1.00  0.00     0.152 C
HETATM   16  C12 UNL     1       3.939   3.117  20.029  1.00  0.00     0.152 C
HETATM   17  C10 UNL     1       3.852   2.649  22.742  1.00  0.00     0.187 C
HETATM   18  O4  UNL     1       2.777   2.248  21.984  1.00  0.00    -0.388 OA
HETATM   19  C11 UNL     1       3.118   1.985  20.695  1.00  0.00     0.187 C
ENDBRANCH   1  12
BRANCH   1  20
HETATM   20  C13 UNL     1       7.066   4.763  18.383  1.00  0.00     0.046 C
HETATM   21  C14 UNL     1       8.322   4.048  18.317  1.00  0.00     0.006 C
BRANCH  21  22
HETATM   22  C15 UNL     1       8.612   2.728  18.883  1.00  0.00     0.010 C
HETATM   23  C16 UNL     1       9.964   2.260  18.205  1.00  0.00     0.008 C
HETATM   24  C17 UNL     1      10.083   0.758  18.294  1.00  0.00     0.001 C
HETATM   25  C18 UNL     1       9.238   0.215  17.134  1.00  0.00     0.000 C
HETATM   26  C19 UNL     1       7.999   1.096  17.103  1.00  0.00     0.001 C
HETATM   27  C20 UNL     1       7.674   1.599  18.510  1.00  0.00     0.008 C
ENDBRANCH  21  22
BRANCH  20  28
HETATM   28  N3  UNL     1       6.125   4.145  17.422  1.00  0.00    -0.326 N
HETATM   29  C21 UNL     1       5.757   4.773  16.202  1.00  0.00     0.245 C
HETATM   30  O5  UNL     1       6.263   5.905  15.941  1.00  0.00    -0.271 OA
ATOM     31  H3  UNL     1       5.726   3.233  17.644  1.00  0.00     0.168 HD
BRANCH  29  32
HETATM   32  C22 UNL     1       4.830   4.187  15.231  1.00  0.00     0.110 C
HETATM   33  C23 UNL     1       4.638   2.685  15.458  1.00  0.00     0.042 C
HETATM   34  C24 UNL     1       3.455   4.848  15.227  1.00  0.00     0.042 C
HETATM   35 CL1  UNL     1       5.476   4.353  13.586  1.00  0.00    -0.110 Cl
ENDBRANCH  29  32
ENDBRANCH  20  28
ENDBRANCH   1  20
TORSDOF 8
ENDMDL