MODEL 4
REMARK VINA RESULT: -8.803797428      2.574      4.147
REMARK  6 active torsions:
REMARK  status: ('A' for Active; 'I' for Inactive)
REMARK    1  A    between atoms: C2_2  and  C3_3
REMARK    2  A    between atoms: C3_3  and  C5_6
REMARK    3  A    between atoms: C3_3  and  N2_8
REMARK    4  A    between atoms: N2_8  and  C7_10
REMARK    5  A    between atoms: C11_14  and  C12_15
REMARK    6  A    between atoms: C21_25  and  C22_26
ROOT
HETATM    1  C3  UNL     1       1.837   6.417  23.581  1.00  0.00     0.119 C
HETATM    2  C4  UNL     1       2.008   5.140  24.259  1.00  0.00     0.090 C
HETATM    3  N1  UNL     1       2.151   4.138  24.816  1.00  0.00    -0.195 NA
ENDROOT
BRANCH   1   4
HETATM    4  C2  UNL     1       0.340   6.696  23.637  1.00  0.00     0.042 C
HETATM    5  C1  UNL     1      -0.315   6.871  22.322  1.00  0.00     0.009 C
ENDBRANCH   1   4
BRANCH   1   6
HETATM    6  C5  UNL     1       2.418   7.551  24.451  1.00  0.00     0.042 C
HETATM    7  C6  UNL     1       1.431   7.890  25.544  1.00  0.00     0.009 C
ENDBRANCH   1   6
BRANCH   1   8
HETATM    8  N2  UNL     1       2.257   6.556  22.308  1.00  0.00    -0.375 N
ATOM      9  H2  UNL     1       1.499   6.466  21.632  1.00  0.00     0.161 HD
BRANCH   8  10
HETATM   10  C7  UNL     1       3.466   6.792  21.713  1.00  0.00    -0.012 C
HETATM   11  C8  UNL     1       3.606   6.935  20.238  1.00  0.00     0.057 C
HETATM   12  C9  UNL     1       4.966   7.346  19.774  1.00  0.00    -0.007 C
HETATM   13  C10 UNL     1       5.742   6.114  19.394  1.00  0.00     0.019 C
HETATM   14  C23 UNL     1       5.751   8.219  20.663  1.00  0.00     0.022 C
HETATM   15  C11 UNL     1       6.368   5.403  20.582  1.00  0.00    -0.011 C
HETATM   16  C18 UNL     1       5.252   4.990  21.491  1.00  0.00     0.025 C
HETATM   17  C24 UNL     1       7.329   6.363  21.232  1.00  0.00     0.032 C
HETATM   18  C19 UNL     1       4.668   6.066  22.308  1.00  0.00     0.033 C
HETATM   19  C20 UNL     1       5.700   7.029  22.871  1.00  0.00     0.028 C
HETATM   20  C21 UNL     1       6.541   7.536  21.730  1.00  0.00     0.023 C
BRANCH  15  21
HETATM   21  C12 UNL     1       7.139   4.284  20.040  1.00  0.00    -0.049 A
HETATM   22  C13 UNL     1       8.103   4.599  19.068  1.00  0.00     0.009 A
HETATM   23  C14 UNL     1       8.896   3.612  18.491  1.00  0.00     0.019 A
HETATM   24  C15 UNL     1       8.742   2.311  18.866  1.00  0.00     0.011 A
HETATM   25 BR1  UNL     1       9.804   0.948  18.094  1.00  0.00    -0.051 Br
HETATM   26  C16 UNL     1       7.788   1.991  19.830  1.00  0.00     0.019 A
HETATM   27  C17 UNL     1       7.004   2.977  20.400  1.00  0.00     0.009 A
ENDBRANCH  15  21
BRANCH  20  28
HETATM   28  C22 UNL     1       7.490   8.528  22.318  1.00  0.00     0.121 A
HETATM   29  N3  UNL     1       7.493   9.842  22.038  1.00  0.00    -0.272 N
HETATM   30  N4  UNL     1       8.461  10.406  22.735  1.00  0.00    -0.227 N
ATOM     31  H3  UNL     1       6.858  10.320  21.398  1.00  0.00     0.190 HD
HETATM   32  N5  UNL     1       9.090   9.474  23.466  1.00  0.00    -0.227 N
ATOM     33  H4  UNL     1       8.696  11.399  22.720  1.00  0.00     0.210 HD
HETATM   34  N6  UNL     1       8.486   8.339  23.201  1.00  0.00    -0.272 N
ATOM     35  H5  UNL     1       9.878   9.617  24.099  1.00  0.00     0.210 HD
ATOM     36  H6  UNL     1       8.738   7.439  23.609  1.00  0.00     0.190 HD
ENDBRANCH  20  28
ENDBRANCH   8  10
ENDBRANCH   1   8
TORSDOF 6
ENDMDL