MODEL 2
REMARK VINA RESULT: -8.296800925      1.506      1.893
REMARK  9 active torsions:
REMARK  status: ('A' for Active; 'I' for Inactive)
REMARK    1  A    between atoms: C2_2  and  C3_4
REMARK    2  A    between atoms: C3_4  and  C4_5
REMARK    3  A    between atoms: C4_5  and  C5_6
REMARK    4  A    between atoms: C5_6  and  C6_7
REMARK    5  A    between atoms: C6_7  and  C7_8
REMARK    6  A    between atoms: C7_8  and  O3_10
REMARK    7  A    between atoms: O3_10  and  C8_11
REMARK    8  A    between atoms: C14_17  and  O4_18
REMARK    9  A    between atoms: C21_26  and  O5_27
ROOT
HETATM    1  C8  UNL     1       7.978   9.305  19.914  1.00  0.00     0.132 C
HETATM    2  C9  UNL     1       8.574   8.022  20.401  1.00  0.00     0.033 C
HETATM    3  C10 UNL     1       7.669   6.833  20.212  1.00  0.00     0.008 C
HETATM    4  C11 UNL     1       6.796   7.074  19.009  1.00  0.00    -0.003 C
HETATM    5  C12 UNL     1       5.854   8.189  19.265  1.00  0.00     0.021 C
HETATM    6  C13 UNL     1       6.467   9.334  20.032  1.00  0.00     0.040 C
HETATM    7  C14 UNL     1       4.575   7.827  19.935  1.00  0.00     0.123 C
HETATM    8  C15 UNL     1       4.363   6.365  20.163  1.00  0.00     0.037 C
HETATM    9  C16 UNL     1       4.796   5.517  18.987  1.00  0.00    -0.004 C
HETATM   10  C17 UNL     1       4.652   4.085  19.474  1.00  0.00     0.032 C
HETATM   11  C18 UNL     1       4.672   3.099  18.353  1.00  0.00    -0.023 C
HETATM   12  C19 UNL     1       5.587   2.972  17.408  1.00  0.00    -0.071 C
HETATM   13  C20 UNL     1       5.284   1.880  16.456  1.00  0.00     0.066 C
HETATM   14  C21 UNL     1       6.404   0.875  16.616  1.00  0.00     0.123 C
HETATM   15  C22 UNL     1       7.492   1.371  17.556  1.00  0.00     0.053 C
HETATM   16  C23 UNL     1       7.957   2.766  17.152  1.00  0.00     0.097 C
HETATM   17 CL1  UNL     1       9.300   3.238  18.193  1.00  0.00    -0.124 Cl
HETATM   18  C24 UNL     1       6.807   3.754  17.221  1.00  0.00    -0.004 C
HETATM   19  C25 UNL     1       6.735   4.496  15.930  1.00  0.00     0.021 C
HETATM   20  C26 UNL     1       7.106   4.678  18.386  1.00  0.00     0.020 C
HETATM   21  C27 UNL     1       6.140   5.864  18.452  1.00  0.00    -0.005 C
ENDROOT
BRANCH   1  22
HETATM   22  O3  UNL     1       8.569  10.376  20.570  1.00  0.00    -0.316 OA
BRANCH  22  23
HETATM   23  C7  UNL     1       8.164  10.971  21.749  1.00  0.00     0.259 C
HETATM   24  O2  UNL     1       8.233  12.182  21.871  1.00  0.00    -0.265 OA
BRANCH  23  25
HETATM   25  C6  UNL     1       7.639  10.120  22.881  1.00  0.00     0.111 C
BRANCH  25  26
HETATM   26  C5  UNL     1       8.848   9.787  23.715  1.00  0.00     0.010 C
BRANCH  26  27
HETATM   27  C4  UNL     1       8.861   8.353  24.207  1.00  0.00     0.008 C
BRANCH  27  28
HETATM   28  C3  UNL     1       8.549   8.291  25.684  1.00  0.00     0.077 C
BRANCH  28  29
HETATM   29  C2  UNL     1       9.737   7.934  26.496  1.00  0.00     0.123 C
HETATM   30  C1  UNL     1      11.056   8.590  26.256  1.00  0.00     0.091 C
HETATM   31  O1  UNL     1       9.647   7.109  27.359  1.00  0.00    -0.298 OA
ENDBRANCH  28  29
ENDBRANCH  27  28
ENDBRANCH  26  27
ENDBRANCH  25  26
ENDBRANCH  23  25
ENDBRANCH  22  23
ENDBRANCH   1  22
BRANCH   7  32
HETATM   32  O4  UNL     1       4.400   8.446  21.193  1.00  0.00    -0.395 OA
ATOM     33  H4  UNL     1       3.498   8.451  21.493  1.00  0.00     0.210 HD
ENDBRANCH   7  32
BRANCH  14  34
HETATM   34  O5  UNL     1       6.894   0.429  15.414  1.00  0.00    -0.395 OA
ATOM     35  H5  UNL     1       7.413   1.084  14.962  1.00  0.00     0.210 HD
ENDBRANCH  14  34
TORSDOF 9
ENDMDL