MODEL 2
REMARK VINA RESULT: -7.650816379      4.330      8.312
REMARK  10 active torsions:
REMARK  status: ('A' for Active; 'I' for Inactive)
REMARK    1  A    between atoms: C2_2  and  C3_3
REMARK    2  A    between atoms: C3_3  and  N1_4
REMARK    3  A    between atoms: N2_7  and  C6_8
REMARK    4  A    between atoms: C10_12  and  N3_13
REMARK    5  A    between atoms: N3_13  and  C11_15
REMARK    6  A    between atoms: C12_18  and  C13_19
REMARK    7  A    between atoms: C16_24  and  C17_25
REMARK    8  A    between atoms: C18_28  and  C19_29
REMARK    9  A    between atoms: C20_30  and  C21_31
REMARK   10  A    between atoms: C21_31  and  C22_32
ROOT
HETATM    1  C11 UNL     1       6.224   8.979  20.937  1.00  0.00     0.124 A
HETATM    2  N4  UNL     1       5.315   9.259  19.993  1.00  0.00    -0.331 N
ATOM      3  H4  UNL     1       4.619   8.548  19.772  1.00  0.00     0.168 HD
HETATM    4  C12 UNL     1       5.266  10.420  19.320  1.00  0.00     0.086 A
HETATM    5  N5  UNL     1       6.181  11.344  19.615  1.00  0.00    -0.339 N
ATOM      6  H5  UNL     1       6.162  12.234  19.116  1.00  0.00     0.167 HD
HETATM    7  C16 UNL     1       7.145  11.140  20.564  1.00  0.00     0.133 A
HETATM    8  C18 UNL     1       7.184   9.952  21.244  1.00  0.00     0.095 A
ENDROOT
BRANCH   1   9
HETATM    9  N3  UNL     1       6.295   7.896  21.586  1.00  0.00    -0.370 N
ATOM     10  H3  UNL     1       6.691   7.980  22.523  1.00  0.00     0.161 HD
BRANCH   9  11
HETATM   11  C10 UNL     1       5.909   6.577  21.213  1.00  0.00     0.085 C
HETATM   12  C9  UNL     1       4.744   6.030  22.039  1.00  0.00     0.025 C
HETATM   13  C8  UNL     1       4.334   4.777  21.243  1.00  0.00     0.004 C
HETATM   14  C7  UNL     1       5.416   3.762  21.571  1.00  0.00     0.036 C
HETATM   15  C6  UNL     1       6.799   4.194  21.194  1.00  0.00     0.225 C
HETATM   16  C25 UNL     1       7.071   5.642  21.174  1.00  0.00     0.061 C
BRANCH  15  17
HETATM   17  N2  UNL     1       7.306   3.503  20.033  1.00  0.00     0.096 N
HETATM   18  C5  UNL     1       7.765   4.286  18.969  1.00  0.00     0.303 C
HETATM   19  C4  UNL     1       8.851   3.470  18.243  1.00  0.00     0.302 C
HETATM   20  N1  UNL     1       8.392   2.088  18.154  1.00  0.00     0.091 N
HETATM   21  C27 UNL     1       6.981   1.983  18.218  1.00  0.00     0.302 C
HETATM   22  C26 UNL     1       6.413   2.486  19.546  1.00  0.00     0.303 C
BRANCH  20  23
HETATM   23  C3  UNL     1       9.148   1.205  18.967  1.00  0.00     0.272 C
BRANCH  23  24
HETATM   24  C2  UNL     1      10.228   0.545  18.153  1.00  0.00     0.026 C
HETATM   25  C1  UNL     1       9.639  -0.311  17.040  1.00  0.00     0.007 C
ENDBRANCH  23  24
ENDBRANCH  20  23
ENDBRANCH  15  17
ENDBRANCH   9  11
ENDBRANCH   1   9
BRANCH   8  26
HETATM   26  C19 UNL     1       8.180   9.662  22.267  1.00  0.00    -0.060 C
HETATM   27  C20 UNL     1       8.994   9.398  23.127  1.00  0.00    -0.097 C
BRANCH  27  28
HETATM   28  C21 UNL     1       9.984   9.103  24.164  1.00  0.00     0.124 C
BRANCH  28  29
HETATM   29  C22 UNL     1       9.267   8.352  25.236  1.00  0.00     0.022 C
HETATM   30  C23 UNL     1       9.983   7.977  26.289  1.00  0.00     0.087 C
HETATM   31  C24 UNL     1       9.296   7.227  27.373  1.00  0.00     0.082 C
HETATM   32  F1  UNL     1      11.303   8.245  26.415  1.00  0.00    -0.212 F
ENDBRANCH  28  29
ENDBRANCH  27  28
ENDBRANCH   8  26
BRANCH   4  33
HETATM   33  C13 UNL     1       4.212  10.660  18.272  1.00  0.00     0.045 C
HETATM   34  C14 UNL     1       3.805   9.358  17.599  1.00  0.00     0.017 C
HETATM   35  C15 UNL     1       4.818  11.549  17.216  1.00  0.00     0.017 C
ENDBRANCH   4  33
BRANCH   7  36
HETATM   36  C17 UNL     1       8.112  12.187  20.840  1.00  0.00     0.228 C
HETATM   37  O1  UNL     1       8.051  12.847  21.886  1.00  0.00    -0.643 OA
HETATM   38  O2  UNL     1       9.115  12.465  19.939  1.00  0.00    -0.643 OA
ENDBRANCH   7  36
TORSDOF 10
ENDMDL