MODEL 3
REMARK VINA RESULT: -10.229633320      2.393      2.976
REMARK  6 active torsions:
REMARK  status: ('A' for Active; 'I' for Inactive)
REMARK       I    between atoms: C1_2  and  N1_3
REMARK    1  A    between atoms: C1_2  and  C8_11
REMARK    2  A    between atoms: N1_3  and  C2_5
REMARK    3  A    between atoms: C2_5  and  C3_6
REMARK    4  A    between atoms: C10_13  and  S1_14
REMARK    5  A    between atoms: S1_14  and  N2_17
REMARK       I    between atoms: N2_17  and  C11_19
REMARK    6  A    between atoms: C11_19  and  C12_21
ROOT
HETATM    1  S1  UNL     1       3.379   3.900  21.381  1.00  0.00     0.271 S
HETATM    2  O2  UNL     1       2.062   4.367  20.787  1.00  0.00    -0.200 OA
HETATM    3  O3  UNL     1       3.139   2.685  22.199  1.00  0.00    -0.200 OA
ENDROOT
BRANCH   1   4
HETATM    4  C10 UNL     1       3.940   5.242  22.398  1.00  0.00     0.123 A
HETATM    5  C9  UNL     1       5.027   6.047  22.172  1.00  0.00     0.052 A
HETATM    6  C8  UNL     1       5.268   7.018  23.082  1.00  0.00     0.062 A
HETATM    7  C22 UNL     1       4.408   7.105  24.139  1.00  0.00     0.091 A
HETATM    8  S2  UNL     1       3.296   5.849  23.846  1.00  0.00    -0.063 SA
HETATM    9 CL1  UNL     1       4.461   8.262  25.490  1.00  0.00    -0.075 Cl
BRANCH   6  10
HETATM   10  C1  UNL     1       6.404   7.994  22.989  1.00  0.00     0.253 C
HETATM   11  O1  UNL     1       6.273   9.037  22.316  1.00  0.00    -0.268 OA
HETATM   12  N1  UNL     1       7.612   7.734  23.659  1.00  0.00    -0.356 N
ATOM     13  H1  UNL     1       7.705   6.875  24.201  1.00  0.00     0.162 HD
BRANCH  12  14
HETATM   14  C2  UNL     1       8.714   8.640  23.600  1.00  0.00     0.127 C
BRANCH  14  15
HETATM   15  C3  UNL     1       9.219   8.954  24.967  1.00  0.00     0.003 C
HETATM   16  C4  UNL     1      10.755   8.869  24.922  1.00  0.00     0.006 C
HETATM   17  C5  UNL     1      11.066   8.678  26.389  1.00  0.00     0.000 C
HETATM   18  C6  UNL     1      10.079   7.602  26.786  1.00  0.00     0.000 C
HETATM   19  C7  UNL     1       8.848   7.913  25.989  1.00  0.00     0.006 C
ENDBRANCH  14  15
ENDBRANCH  12  14
ENDBRANCH   6  10
ENDBRANCH   1   4
BRANCH   1  20
HETATM   20  N2  UNL     1       4.542   3.577  20.159  1.00  0.00    -0.249 N
HETATM   21  C11 UNL     1       5.805   2.991  20.408  1.00  0.00     0.240 C
HETATM   22  O4  UNL     1       6.130   2.677  21.565  1.00  0.00    -0.272 OA
ATOM     23  H2  UNL     1       4.307   3.822  19.197  1.00  0.00     0.182 HD
BRANCH  21  24
HETATM   24  C12 UNL     1       6.747   2.751  19.294  1.00  0.00     0.043 C
HETATM   25  C13 UNL     1       7.823   1.813  19.847  1.00  0.00     0.024 C
HETATM   26  C14 UNL     1       8.864   1.488  18.807  1.00  0.00    -0.013 C
HETATM   27  C15 UNL     1       9.515   2.785  18.370  1.00  0.00     0.009 C
HETATM   28  C19 UNL     1       8.227   0.845  17.605  1.00  0.00     0.009 C
HETATM   29  C16 UNL     1       8.473   3.709  17.809  1.00  0.00    -0.013 C
HETATM   30  C17 UNL     1       7.740   3.107  16.644  1.00  0.00     0.009 C
HETATM   31  C21 UNL     1       7.467   4.014  18.898  1.00  0.00     0.024 C
HETATM   32  C18 UNL     1       7.152   1.775  17.088  1.00  0.00    -0.013 C
HETATM   33  C20 UNL     1       6.102   2.061  18.129  1.00  0.00     0.024 C
ENDBRANCH  21  24
ENDBRANCH   1  20
TORSDOF 6
ENDMDL