MODEL 1
REMARK VINA RESULT: -6.240526480      0.000      0.000
REMARK  10 active torsions:
REMARK  status: ('A' for Active; 'I' for Inactive)
REMARK    1  A    between atoms: O1_2  and  C2_3
REMARK    2  A    between atoms: C12_14  and  O3_15
REMARK    3  A    between atoms: C15_19  and  C16_20
REMARK    4  A    between atoms: C16_20  and  O5_22
REMARK    5  A    between atoms: O5_22  and  C17_23
REMARK    6  A    between atoms: C17_23  and  C18_24
REMARK    7  A    between atoms: C18_24  and  C19_25
REMARK    8  A    between atoms: C19_25  and  C20_26
REMARK    9  A    between atoms: C21_28  and  C23_30
REMARK   10  A    between atoms: C23_30  and  O6_31
ROOT
HETATM    1  C2  UNL     1       6.365   7.854  21.903  1.00  0.00     0.106 C
HETATM    2  C3  UNL     1       6.987   9.139  21.399  1.00  0.00     0.029 C
HETATM    3  C4  UNL     1       7.387  10.161  22.355  1.00  0.00     0.011 C
HETATM    4  C5  UNL     1       7.751   9.743  23.723  1.00  0.00     0.041 C
HETATM    5  C6  UNL     1       7.797   8.277  23.952  1.00  0.00     0.087 A
HETATM    6  C7  UNL     1       8.087   7.896  25.398  1.00  0.00     0.049 C
HETATM    7  O2  UNL     1       8.583   7.568  23.046  1.00  0.00    -0.366 OA
HETATM    8  C8  UNL     1       7.208   7.358  23.071  1.00  0.00     0.192 A
HETATM    9  C9  UNL     1       5.998   9.636  20.435  1.00  0.00     0.008 C
HETATM   10  C10 UNL     1       6.049  10.989  19.892  1.00  0.00     0.009 C
HETATM   11  C11 UNL     1       5.094  10.829  18.696  1.00  0.00     0.033 C
HETATM   12  C12 UNL     1       4.999   9.308  18.448  1.00  0.00     0.131 C
HETATM   13  C13 UNL     1       6.203   8.822  19.143  1.00  0.00     0.016 C
HETATM   14  C14 UNL     1       7.384   9.536  18.445  1.00  0.00     0.023 C
HETATM   15  C15 UNL     1       6.481   7.396  19.367  1.00  0.00     0.020 C
HETATM   16  C21 UNL     1       6.461   6.847  20.756  1.00  0.00     0.042 C
HETATM   17  C22 UNL     1       7.760   6.052  21.033  1.00  0.00     0.026 C
ENDROOT
BRANCH  15  18
HETATM   18  C16 UNL     1       5.887   6.470  18.367  1.00  0.00     0.287 C
HETATM   19  O4  UNL     1       4.655   6.291  18.193  1.00  0.00    -0.260 OA
BRANCH  18  20
HETATM   20  O5  UNL     1       6.658   5.698  17.512  1.00  0.00    -0.318 OA
BRANCH  20  21
HETATM   21  C17 UNL     1       6.706   4.298  17.545  1.00  0.00     0.179 C
BRANCH  21  22
HETATM   22  C18 UNL     1       7.950   3.840  18.229  1.00  0.00     0.028 C
BRANCH  22  23
HETATM   23  C19 UNL     1       7.639   2.899  19.368  1.00  0.00     0.013 C
BRANCH  23  24
HETATM   24  C20 UNL     1       8.342   1.578  19.123  1.00  0.00     0.085 C
HETATM   25 BR1  UNL     1       9.940   1.905  18.074  1.00  0.00    -0.097 Br
ENDBRANCH  23  24
ENDBRANCH  22  23
ENDBRANCH  21  22
ENDBRANCH  20  21
ENDBRANCH  18  20
ENDBRANCH  15  18
BRANCH  16  26
HETATM   26  C23 UNL     1       5.387   5.811  21.012  1.00  0.00     0.181 C
BRANCH  26  27
HETATM   27  O6  UNL     1       5.775   4.720  21.736  1.00  0.00    -0.400 OA
ATOM     28  H6  UNL     1       5.134   4.382  22.351  1.00  0.00     0.209 HD
ENDBRANCH  26  27
ENDBRANCH  16  26
BRANCH  12  29
HETATM   29  O3  UNL     1       3.780   8.943  19.003  1.00  0.00    -0.394 OA
ATOM     30  H3  UNL     1       3.841   8.001  19.107  1.00  0.00     0.210 HD
ENDBRANCH  12  29
BRANCH   1  31
HETATM   31  O1  UNL     1       5.051   7.943  22.236  1.00  0.00    -0.381 OA
HETATM   32  C1  UNL     1       4.581   7.556  23.426  1.00  0.00     0.202 C
ENDBRANCH   1  31
TORSDOF 10
ENDMDL