MODEL 2
REMARK VINA RESULT: -9.466815051      1.277      1.567
REMARK  7 active torsions:
REMARK  status: ('A' for Active; 'I' for Inactive)
REMARK    1  A    between atoms: C4_5  and  C5_6
REMARK    2  A    between atoms: C5_6  and  O1_7
REMARK    3  A    between atoms: O1_7  and  C6_8
REMARK       I    between atoms: C6_8  and  N2_10
REMARK    4  A    between atoms: N2_10  and  C7_11
REMARK    5  A    between atoms: N2_10  and  C14_22
REMARK    6  A    between atoms: C7_11  and  C8_12
REMARK    7  A    between atoms: C17_25  and  C18_26
ROOT
HETATM    1  C6  UNL     1       6.894   8.486  21.674  1.00  0.00     0.363 C
HETATM    2  O2  UNL     1       6.444   9.556  22.133  1.00  0.00    -0.238 OA
HETATM    3  N2  UNL     1       5.963   7.621  20.983  1.00  0.00    -0.323 N
ENDROOT
BRANCH   3   4
HETATM    4  C7  UNL     1       4.622   8.057  20.886  1.00  0.00     0.133 C
BRANCH   4   5
HETATM    5  C8  UNL     1       3.527   7.361  21.577  1.00  0.00     0.005 C
HETATM    6  C9  UNL     1       2.192   7.985  21.605  1.00  0.00     0.034 C
HETATM    7  C10 UNL     1       1.286   7.363  22.673  1.00  0.00     0.236 C
HETATM    8  N3  UNL     1       1.463   5.953  22.809  1.00  0.00    -0.044 N
HETATM    9  C11 UNL     1       2.317   5.577  23.903  1.00  0.00     0.367 C
ATOM     10  H32 UNL     1       0.561   5.483  22.881  1.00  0.00     0.280 HD
ATOM     11  H31 UNL     1       1.799   5.548  21.935  1.00  0.00     0.280 HD
HETATM   12  F1  UNL     1       1.965   6.160  25.084  1.00  0.00    -0.219 F
HETATM   13  C12 UNL     1       3.746   5.790  23.520  1.00  0.00     0.067 C
HETATM   14  C13 UNL     1       3.967   7.211  23.051  1.00  0.00     0.011 C
ENDBRANCH   4   5
ENDBRANCH   3   4
BRANCH   3  15
HETATM   15  C14 UNL     1       6.510   6.469  20.350  1.00  0.00     0.089 C
HETATM   16  C15 UNL     1       6.302   5.142  21.005  1.00  0.00     0.026 C
HETATM   17  C16 UNL     1       7.445   4.219  20.540  1.00  0.00     0.011 C
HETATM   18  C17 UNL     1       7.851   4.581  19.123  1.00  0.00     0.019 C
HETATM   19  C24 UNL     1       6.701   5.110  18.326  1.00  0.00     0.011 C
HETATM   20  C25 UNL     1       6.220   6.437  18.858  1.00  0.00     0.026 C
BRANCH  18  21
HETATM   21  C18 UNL     1       8.317   3.343  18.467  1.00  0.00    -0.052 A
HETATM   22  C19 UNL     1       9.626   2.939  18.612  1.00  0.00     0.007 A
HETATM   23  C20 UNL     1      10.099   1.774  18.003  1.00  0.00     0.002 A
HETATM   24  C21 UNL     1       9.251   1.001  17.236  1.00  0.00     0.026 A
HETATM   25  C22 UNL     1       7.940   1.394  17.084  1.00  0.00     0.046 A
HETATM   26  N4  UNL     1       7.079   0.589  16.292  1.00  0.00    -0.102 NA
HETATM   27  C23 UNL     1       7.484   2.562  17.700  1.00  0.00     0.034 A
ENDBRANCH  18  21
ENDBRANCH   3  15
BRANCH   1  28
HETATM   28  O1  UNL     1       8.215   8.182  21.839  1.00  0.00    -0.304 OA
BRANCH  28  29
HETATM   29  C5  UNL     1       9.112   9.053  22.480  1.00  0.00     0.185 C
BRANCH  29  30
HETATM   30  C4  UNL     1       9.503   8.584  23.845  1.00  0.00     0.013 C
HETATM   31  C3  UNL     1       8.371   8.503  24.822  1.00  0.00     0.037 C
HETATM   32  C2  UNL     1       8.848   7.782  26.038  1.00  0.00     0.272 C
HETATM   33  N1  UNL     1      10.085   8.227  26.585  1.00  0.00     0.084 N
HETATM   34  C1  UNL     1      10.591   7.161  27.449  1.00  0.00     0.309 C
HETATM   35  C27 UNL     1      11.116   8.541  25.649  1.00  0.00     0.272 C
HETATM   36  C26 UNL     1      10.600   9.385  24.476  1.00  0.00     0.037 C
ENDBRANCH  29  30
ENDBRANCH  28  29
ENDBRANCH   1  28
TORSDOF 7
ENDMDL