MODEL 2
REMARK VINA RESULT: -7.915846585      0.685      1.148
REMARK  10 active torsions:
REMARK  status: ('A' for Active; 'I' for Inactive)
REMARK    1  A    between atoms: O1_2  and  C2_3
REMARK    2  A    between atoms: C5_6  and  C6_7
REMARK    3  A    between atoms: C9_10  and  C10_11
REMARK    4  A    between atoms: C10_11  and  O2_14
REMARK    5  A    between atoms: N2_19  and  C14_21
REMARK    6  A    between atoms: C14_21  and  C15_22
REMARK    7  A    between atoms: C15_22  and  C16_23
REMARK    8  A    between atoms: C17_24  and  C18_25
REMARK    9  A    between atoms: C18_25  and  O3_27
REMARK   10  A    between atoms: C18_25  and  C21_29
ROOT
HETATM    1  C6  UNL     1       6.565   4.039  19.105  1.00  0.00     0.007 A
HETATM    2  C7  UNL     1       6.136   5.017  18.223  1.00  0.00    -0.024 A
HETATM    3  C8  UNL     1       6.685   4.966  16.872  1.00  0.00     0.051 C
HETATM    4  C9  UNL     1       5.245   5.992  18.591  1.00  0.00     0.051 A
HETATM    5  N1  UNL     1       4.807   5.942  19.884  1.00  0.00    -0.342 N
ATOM      6  H1  UNL     1       4.144   6.655  20.189  1.00  0.00     0.167 HD
HETATM    7  C13 UNL     1       5.186   5.023  20.778  1.00  0.00     0.123 A
HETATM    8  N2  UNL     1       4.757   4.999  21.997  1.00  0.00    -0.374 N
ATOM      9  H2  UNL     1       5.081   4.275  22.638  1.00  0.00     0.161 HD
HETATM   10  C25 UNL     1       6.093   4.040  20.380  1.00  0.00     0.100 A
HETATM   11  C26 UNL     1       6.495   3.059  21.344  1.00  0.00     0.104 C
HETATM   12  N4  UNL     1       6.830   2.271  22.121  1.00  0.00    -0.191 NA
ENDROOT
BRANCH   1  13
HETATM   13  C5  UNL     1       7.508   3.029  18.660  1.00  0.00    -0.024 A
HETATM   14  C4  UNL     1       8.857   3.131  18.777  1.00  0.00     0.015 A
HETATM   15  C3  UNL     1       9.702   2.138  18.337  1.00  0.00     0.037 A
HETATM   16  C2  UNL     1       9.233   0.982  17.753  1.00  0.00     0.068 A
HETATM   17  C28 UNL     1       7.863   0.875  17.634  1.00  0.00     0.037 A
HETATM   18  C27 UNL     1       7.010   1.860  18.069  1.00  0.00     0.015 A
BRANCH  16  19
HETATM   19  O1  UNL     1      10.102  -0.016  17.312  1.00  0.00    -0.356 OA
HETATM   20  C1  UNL     1       9.632  -1.168  16.643  1.00  0.00     0.210 C
ENDBRANCH  16  19
ENDBRANCH   1  13
BRANCH   8  21
HETATM   21  C14 UNL     1       3.828   5.987  22.445  1.00  0.00     0.133 C
BRANCH  21  22
HETATM   22  C15 UNL     1       4.322   6.732  23.668  1.00  0.00     0.113 C
BRANCH  22  23
HETATM   23  C16 UNL     1       5.611   7.372  23.420  1.00  0.00    -0.102 C
HETATM   24  C17 UNL     1       6.679   7.904  23.192  1.00  0.00    -0.066 C
BRANCH  24  25
HETATM   25  C18 UNL     1       7.967   8.552  22.889  1.00  0.00     0.147 C
HETATM   26  C19 UNL     1       7.659  10.052  22.853  1.00  0.00     0.062 C
BRANCH  25  27
HETATM   27  O3  UNL     1       8.470   8.130  21.673  1.00  0.00    -0.370 OA
HETATM   28  C20 UNL     1       8.464   9.068  20.674  1.00  0.00     0.204 C
ENDBRANCH  25  27
BRANCH  25  29
HETATM   29  C21 UNL     1       8.940   8.225  23.974  1.00  0.00     0.235 C
HETATM   30  C22 UNL     1       9.781   9.433  24.364  1.00  0.00     0.076 C
HETATM   31  C23 UNL     1      10.322   8.988  25.705  1.00  0.00     0.197 C
HETATM   32  F1  UNL     1      11.422   8.166  25.439  1.00  0.00    -0.248 F
HETATM   33  C24 UNL     1       9.198   8.178  26.277  1.00  0.00     0.270 C
HETATM   34  N3  UNL     1       8.327   7.803  25.194  1.00  0.00    -0.064 N
ATOM     35  H32 UNL     1       7.380   8.164  25.306  1.00  0.00     0.277 HD
ATOM     36  H31 UNL     1       8.096   6.810  25.198  1.00  0.00     0.277 HD
ENDBRANCH  25  29
ENDBRANCH  24  25
ENDBRANCH  22  23
ENDBRANCH  21  22
ENDBRANCH   8  21
BRANCH   4  37
HETATM   37  C10 UNL     1       4.760   7.049  17.669  1.00  0.00     0.093 C
HETATM   38  C11 UNL     1       3.909   8.092  18.337  1.00  0.00     0.052 C
HETATM   39  C12 UNL     1       4.182   6.510  16.384  1.00  0.00     0.052 C
BRANCH  37  40
HETATM   40  O2  UNL     1       5.920   7.765  17.257  1.00  0.00    -0.384 OA
ATOM     41  H2  UNL     1       5.918   8.571  17.759  1.00  0.00     0.211 HD
ENDBRANCH  37  40
ENDBRANCH   4  37
TORSDOF 10
ENDMDL