MODEL 1
REMARK VINA RESULT: -5.865698618      0.000      0.000
REMARK  2 active torsions:
REMARK  status: ('A' for Active; 'I' for Inactive)
REMARK    1  A    between atoms: N1_1  and  N2_4
REMARK       I    between atoms: N2_4  and  C1_6
REMARK    2  A    between atoms: C1_6  and  C2_8
ROOT
HETATM    1  C2  UNL     1      19.402  21.128  28.829  1.00  0.00     0.191 A
HETATM    2  N3  UNL     1      19.165  19.889  29.286  1.00  0.00    -0.341 N
ATOM      3  H3  UNL     1      19.717  19.548  30.073  1.00  0.00     0.167 HD
HETATM    4  C3  UNL     1      18.228  19.071  28.751  1.00  0.00     0.165 A
HETATM    5  C4  UNL     1      17.497  19.562  27.685  1.00  0.00     0.275 A
HETATM    6  O2  UNL     1      16.617  18.795  27.182  1.00  0.00    -0.265 OA
HETATM    7  N4  UNL     1      17.723  20.794  27.222  1.00  0.00    -0.264 N
ATOM      8  H4  UNL     1      17.181  21.154  26.436  1.00  0.00     0.190 HD
HETATM    9  N5  UNL     1      18.652  21.543  27.787  1.00  0.00    -0.278 N
ATOM     10  H5  UNL     1      18.811  22.480  27.418  1.00  0.00     0.189 HD
ENDROOT
BRANCH   1  11
HETATM   11  C1  UNL     1      20.414  22.000  29.414  1.00  0.00     0.304 C
HETATM   12  N2  UNL     1      21.057  22.986  28.650  1.00  0.00    -0.270 N
ATOM     13  H2  UNL     1      20.820  23.106  27.666  1.00  0.00     0.189 HD
HETATM   14  O1  UNL     1      20.717  21.869  30.620  1.00  0.00    -0.263 OA
BRANCH  12  15
HETATM   15  N1  UNL     1      22.012  23.795  29.241  1.00  0.00    -0.342 N
ATOM     16  H12 UNL     1      22.038  23.873  30.257  1.00  0.00     0.176 HD
ATOM     17  H11 UNL     1      22.676  24.303  28.655  1.00  0.00     0.176 HD
ENDBRANCH  12  15
ENDBRANCH   1  11
TORSDOF 2
ENDMDL