MODEL 3
REMARK VINA RESULT: -4.713973296      1.671      3.326
REMARK  2 active torsions:
REMARK  status: ('A' for Active; 'I' for Inactive)
REMARK    1  A    between atoms: C1_2  and  C2_4
REMARK    2  A    between atoms: N3_7  and  N4_8
ROOT
HETATM    1  C2  UNL     1      21.878  21.275  29.974  1.00  0.00     0.122 A
HETATM    2  C3  UNL     1      20.926  21.767  29.103  1.00  0.00     0.156 A
HETATM    3  N2  UNL     1      21.166  23.047  28.495  1.00  0.00    -0.080 NA
HETATM    4  N3  UNL     1      19.790  21.088  28.809  1.00  0.00    -0.259 N
HETATM    5  C4  UNL     1      19.506  19.886  29.344  1.00  0.00     0.121 A
HETATM    6  C5  UNL     1      20.433  19.357  30.222  1.00  0.00     0.075 A
HETATM    7  C6  UNL     1      21.594  20.038  30.531  1.00  0.00     0.192 A
HETATM    8  O2  UNL     1      22.457  19.571  31.334  1.00  0.00    -0.287 OA
ENDROOT
BRANCH   1   9
HETATM    9  C1  UNL     1      23.093  22.013  30.282  1.00  0.00     0.272 C
HETATM   10  N1  UNL     1      23.180  22.850  31.417  1.00  0.00    -0.057 NA
HETATM   11  O1  UNL     1      24.083  21.906  29.527  1.00  0.00    -0.271 OA
ENDBRANCH   1   9
BRANCH   4  12
HETATM   12  N4  UNL     1      18.847  21.614  27.922  1.00  0.00    -0.338 N
ATOM     13  H42 UNL     1      18.757  22.630  27.903  1.00  0.00     0.177 HD
ATOM     14  H41 UNL     1      18.282  21.003  27.332  1.00  0.00     0.177 HD
ENDBRANCH   4  12
TORSDOF 2
ENDMDL