MODEL 2
REMARK VINA RESULT: -5.614528721      1.535      2.417
REMARK  1 active torsions:
REMARK  status: ('A' for Active; 'I' for Inactive)
REMARK    1  A    between atoms: C1_2  and  C2_4
ROOT
HETATM    1  C2  UNL     1      23.503  21.748  28.222  1.00  0.00     0.178 A
HETATM    2  N2  UNL     1      22.226  21.928  27.889  1.00  0.00    -0.312 N
ATOM      3  H2  UNL     1      21.941  21.690  26.938  1.00  0.00     0.170 HD
HETATM    4  C3  UNL     1      21.286  22.406  28.732  1.00  0.00     0.198 A
HETATM    5  N3  UNL     1      19.936  22.589  28.358  1.00  0.00    -0.063 NA
HETATM    6  N4  UNL     1      21.665  22.716  29.981  1.00  0.00    -0.282 N
ATOM      7  H4  UNL     1      20.980  23.079  30.644  1.00  0.00     0.173 HD
HETATM    8  C4  UNL     1      22.949  22.550  30.365  1.00  0.00     0.328 A
HETATM    9  O2  UNL     1      23.283  22.844  31.529  1.00  0.00    -0.247 OA
HETATM   10  N5  UNL     1      23.865  22.065  29.480  1.00  0.00    -0.290 N
ATOM     11  H5  UNL     1      24.834  21.943  29.773  1.00  0.00     0.172 HD
ENDROOT
BRANCH   1  12
HETATM   12  C1  UNL     1      24.476  21.228  27.270  1.00  0.00     0.299 C
HETATM   13  N1  UNL     1      25.849  21.180  27.610  1.00  0.00    -0.054 NA
HETATM   14  O1  UNL     1      24.129  20.817  26.139  1.00  0.00    -0.268 OA
ENDBRANCH   1  12
TORSDOF 1
ENDMDL