MODEL 4
REMARK VINA RESULT: -5.351105245      2.446      4.766
REMARK  1 active torsions:
REMARK  status: ('A' for Active; 'I' for Inactive)
REMARK    1  A    between atoms: C3_3  and  N1_4
ROOT
HETATM    1  C1  UNL     1      26.521  23.343  30.469  1.00  0.00     0.014 C
HETATM    2  C2  UNL     1      25.762  22.407  30.314  1.00  0.00    -0.096 C
HETATM    3  C3  UNL     1      24.827  21.283  30.104  1.00  0.00     0.242 C
ENDROOT
BRANCH   3   4
HETATM    4  N1  UNL     1      23.543  21.783  29.654  1.00  0.00    -0.274 N
HETATM    5  C4  UNL     1      23.610  22.559  28.470  1.00  0.00     0.217 C
HETATM    6  N2  UNL     1      22.616  23.047  27.797  1.00  0.00    -0.293 N
HETATM    7  N3  UNL     1      21.237  22.973  28.002  1.00  0.00    -0.282 N
ATOM      8  H2  UNL     1      22.889  23.580  26.971  1.00  0.00     0.187 HD
HETATM    9  C5  UNL     1      20.585  22.492  29.169  1.00  0.00     0.157 C
ATOM     10  H3  UNL     1      20.640  23.295  27.241  1.00  0.00     0.188 HD
HETATM   11  N4  UNL     1      19.341  22.758  29.306  1.00  0.00    -0.382 N
HETATM   12  C6  UNL     1      21.161  21.709  30.272  1.00  0.00     0.176 C
ATOM     13  H42 UNL     1      18.941  23.302  28.541  1.00  0.00     0.157 HD
ATOM     14  H41 UNL     1      18.873  22.413  30.144  1.00  0.00     0.157 HD
HETATM   15  N5  UNL     1      20.245  21.211  31.242  1.00  0.00    -0.077 NA
HETATM   16  N6  UNL     1      22.410  21.443  30.425  1.00  0.00    -0.281 N
ATOM     17  H6  UNL     1      22.620  20.885  31.253  1.00  0.00     0.188 HD
ENDBRANCH   3   4
TORSDOF 1
ENDMDL