MODEL 3
REMARK VINA RESULT: -4.818743942      3.830      5.005
REMARK  2 active torsions:
REMARK  status: ('A' for Active; 'I' for Inactive)
REMARK    1  A    between atoms: N1_1  and  C1_4
REMARK    2  A    between atoms: N3_8  and  C4_9
ROOT
HETATM    1  C1  UNL     1      22.851  22.865  28.963  1.00  0.00     0.105 A
HETATM    2  C2  UNL     1      22.955  22.164  27.780  1.00  0.00     0.094 A
HETATM    3  C3  UNL     1      24.121  21.480  27.482  1.00  0.00     0.132 A
HETATM    4  N2  UNL     1      24.242  20.760  26.277  1.00  0.00    -0.082 NA
HETATM    5  N3  UNL     1      25.171  21.477  28.325  1.00  0.00    -0.228 N
HETATM    6  C5  UNL     1      25.053  22.169  29.484  1.00  0.00     0.335 A
HETATM    7  O2  UNL     1      26.039  22.167  30.277  1.00  0.00    -0.246 OA
HETATM    8  N4  UNL     1      23.918  22.840  29.780  1.00  0.00    -0.294 N
ATOM      9  H4  UNL     1      23.869  23.350  30.662  1.00  0.00     0.172 HD
ENDROOT
BRANCH   1  10
HETATM   10  N1  UNL     1      21.780  23.523  29.288  1.00  0.00    -0.385 N
ATOM     11  H12 UNL     1      21.009  23.624  28.628  1.00  0.00     0.157 HD
ATOM     12  H11 UNL     1      21.665  23.960  30.202  1.00  0.00     0.157 HD
ENDBRANCH   1  10
BRANCH   5  13
HETATM   13  C4  UNL     1      26.376  20.796  28.066  1.00  0.00     0.365 C
HETATM   14  O1  UNL     1      27.234  21.296  27.296  1.00  0.00    -0.283 OA
ENDBRANCH   5  13
TORSDOF 2
ENDMDL