MODEL 4
REMARK VINA RESULT: -5.411570087      2.136      3.577
REMARK  1 active torsions:
REMARK  status: ('A' for Active; 'I' for Inactive)
REMARK    1  A    between atoms: C3_3  and  N1_4
ROOT
HETATM    1  C1  UNL     1      23.878  19.237  31.812  1.00  0.00     0.014 C
HETATM    2  C2  UNL     1      22.992  19.370  31.003  1.00  0.00    -0.097 C
HETATM    3  C3  UNL     1      21.913  19.557  30.006  1.00  0.00     0.227 C
ENDROOT
BRANCH   3   4
HETATM    4  N1  UNL     1      21.839  20.938  29.576  1.00  0.00    -0.273 N
HETATM    5  C4  UNL     1      20.941  21.784  30.122  1.00  0.00     0.213 A
HETATM    6  N2  UNL     1      20.084  21.257  31.128  1.00  0.00    -0.062 NA
HETATM    7  N3  UNL     1      20.866  23.077  29.727  1.00  0.00    -0.272 N
HETATM    8  N4  UNL     1      21.679  23.541  28.786  1.00  0.00    -0.279 N
ATOM      9  H3  UNL     1      20.179  23.698  30.155  1.00  0.00     0.189 HD
HETATM   10  C5  UNL     1      22.596  22.730  28.208  1.00  0.00     0.183 A
ATOM     11  H4  UNL     1      21.612  24.517  28.496  1.00  0.00     0.189 HD
HETATM   12  N5  UNL     1      23.361  23.220  27.305  1.00  0.00    -0.380 N
HETATM   13  C6  UNL     1      22.653  21.423  28.627  1.00  0.00     0.295 A
ATOM     14  H52 UNL     1      23.318  24.191  26.995  1.00  0.00     0.158 HD
ATOM     15  H51 UNL     1      24.052  22.609  26.869  1.00  0.00     0.158 HD
HETATM   16  O1  UNL     1      23.506  20.683  28.085  1.00  0.00    -0.264 OA
ENDBRANCH   3   4
TORSDOF 1
ENDMDL