MODEL 1
REMARK VINA RESULT: -5.260536926      0.000      0.000
REMARK  3 active torsions:
REMARK  status: ('A' for Active; 'I' for Inactive)
REMARK    1  A    between atoms: C3_3  and  C4_4
REMARK    2  A    between atoms: N2_9  and  N3_10
REMARK    3  A    between atoms: C6_13  and  N4_14
ROOT
HETATM    1  C1  UNL     1      26.089  24.694  31.967  1.00  0.00     0.012 C
HETATM    2  C2  UNL     1      25.576  23.612  31.818  1.00  0.00    -0.110 C
HETATM    3  C3  UNL     1      24.950  22.296  31.610  1.00  0.00     0.170 C
ENDROOT
BRANCH   3   4
HETATM    4  C4  UNL     1      23.802  22.397  30.669  1.00  0.00     0.112 A
HETATM    5  N1  UNL     1      22.533  22.127  31.031  1.00  0.00    -0.295 N
HETATM    6  C5  UNL     1      21.523  22.232  30.142  1.00  0.00     0.361 A
ATOM      7  H1  UNL     1      22.333  21.839  31.989  1.00  0.00     0.172 HD
HETATM    8  O1  UNL     1      20.323  21.974  30.490  1.00  0.00    -0.244 OA
HETATM    9  N2  UNL     1      21.727  22.607  28.871  1.00  0.00    -0.038 N
HETATM   10  C6  UNL     1      22.985  22.878  28.500  1.00  0.00     0.702 A
HETATM   11  N5  UNL     1      24.011  22.773  29.396  1.00  0.00    -0.178 N
ATOM     12  H5  UNL     1      24.961  22.985  29.090  1.00  0.00     0.185 HD
BRANCH   9  13
HETATM   13  N3  UNL     1      20.652  22.704  27.978  1.00  0.00    -0.320 N
ATOM     14  H32 UNL     1      20.675  22.274  27.054  1.00  0.00     0.178 HD
ATOM     15  H31 UNL     1      19.809  23.217  28.238  1.00  0.00     0.178 HD
ENDBRANCH   9  13
BRANCH  10  16
HETATM   16  N4  UNL     1      23.209  23.239  27.292  1.00  0.00    -0.233 N
ATOM     17  H42 UNL     1      22.775  22.742  26.513  1.00  0.00     0.174 HD
ATOM     18  H41 UNL     1      23.829  24.031  27.121  1.00  0.00     0.174 HD
ENDBRANCH  10  16
ENDBRANCH   3   4
TORSDOF 3
ENDMDL