MODEL 2
REMARK VINA RESULT: -5.031357618      1.569      4.590
REMARK  1 active torsions:
REMARK  status: ('A' for Active; 'I' for Inactive)
REMARK    1  A    between atoms: C1_2  and  C2_4
ROOT
HETATM    1  C2  UNL     1      23.342  21.056  28.133  1.00  0.00     0.174 A
HETATM    2  N2  UNL     1      23.506  21.733  29.283  1.00  0.00    -0.304 N
ATOM      3  H2  UNL     1      24.418  22.156  29.459  1.00  0.00     0.171 HD
HETATM    4  C3  UNL     1      22.552  21.892  30.216  1.00  0.00     0.272 A
HETATM    5  O2  UNL     1      22.759  22.541  31.283  1.00  0.00    -0.266 OA
HETATM    6  C4  UNL     1      21.313  21.328  29.998  1.00  0.00     0.129 A
HETATM    7  N3  UNL     1      20.277  21.469  30.952  1.00  0.00    -0.095 NA
HETATM    8  C5  UNL     1      21.152  20.632  28.812  1.00  0.00     0.122 A
HETATM    9  N4  UNL     1      22.137  20.501  27.910  1.00  0.00    -0.346 N
ATOM     10  H4  UNL     1      21.971  19.978  27.049  1.00  0.00     0.167 HD
ENDROOT
BRANCH   1  11
HETATM   11  C1  UNL     1      24.430  20.925  27.164  1.00  0.00     0.298 C
HETATM   12  N1  UNL     1      25.778  21.154  27.511  1.00  0.00    -0.054 NA
HETATM   13  O1  UNL     1      24.163  20.600  25.982  1.00  0.00    -0.268 OA
ENDBRANCH   1  11
TORSDOF 1
ENDMDL