MODEL 5
REMARK VINA RESULT: -5.261889240      1.301      3.533
REMARK  1 active torsions:
REMARK  status: ('A' for Active; 'I' for Inactive)
REMARK    1  A    between atoms: C5_10  and  N4_11
REMARK       I    between atoms: N4_11  and  C6_13
REMARK       I    between atoms: C6_13  and  N5_14
REMARK       I    between atoms: C6_13  and  N6_18
ROOT
HETATM    1  N1  UNL     1      24.414  20.866  26.445  1.00  0.00    -0.190 NA
HETATM    2  C1  UNL     1      23.584  21.121  27.210  1.00  0.00     0.121 C
HETATM    3  C2  UNL     1      22.564  21.425  28.176  1.00  0.00     0.158 A
HETATM    4  N2  UNL     1      21.322  20.878  28.039  1.00  0.00    -0.353 N
ATOM      5  H2  UNL     1      21.105  20.256  27.260  1.00  0.00     0.166 HD
HETATM    6  C3  UNL     1      20.385  21.187  28.969  1.00  0.00     0.106 A
HETATM    7  C4  UNL     1      20.664  22.027  30.029  1.00  0.00     0.106 A
HETATM    8  N3  UNL     1      21.906  22.535  30.111  1.00  0.00    -0.349 N
ATOM      9  H3  UNL     1      22.126  23.158  30.889  1.00  0.00     0.167 HD
HETATM   10  C5  UNL     1      22.870  22.264  29.222  1.00  0.00     0.142 A
ENDROOT
BRANCH  10  11
HETATM   11  N4  UNL     1      24.033  22.743  29.303  1.00  0.00    -0.325 N
HETATM   12  C6  UNL     1      24.904  22.810  30.414  1.00  0.00     0.481 C
HETATM   13  N5  UNL     1      25.290  21.490  30.826  1.00  0.00    -0.033 N
HETATM   14  N6  UNL     1      24.395  23.566  31.536  1.00  0.00    -0.033 N
ATOM     15  H53 UNL     1      24.480  20.898  31.013  1.00  0.00     0.278 HD
ATOM     16  H52 UNL     1      25.694  20.954  30.057  1.00  0.00     0.278 HD
ATOM     17  H51 UNL     1      25.918  21.538  31.628  1.00  0.00     0.278 HD
ATOM     18  H63 UNL     1      24.127  24.505  31.237  1.00  0.00     0.278 HD
ATOM     19  H62 UNL     1      23.483  23.206  31.821  1.00  0.00     0.278 HD
ATOM     20  H61 UNL     1      25.023  23.615  32.338  1.00  0.00     0.278 HD
ATOM     21  H4  UNL     1      24.401  23.140  28.438  1.00  0.00     0.165 HD
ENDBRANCH  10  11
TORSDOF 1
ENDMDL