MODEL 4
REMARK VINA RESULT: -6.878879780      1.814      2.946
REMARK  13 active torsions:
REMARK  status: ('A' for Active; 'I' for Inactive)
REMARK    1  A    between atoms: N1_2  and  C2_3
REMARK    2  A    between atoms: N1_2  and  C10_12
REMARK    3  A    between atoms: C2_3  and  C3_4
REMARK    4  A    between atoms: C3_4  and  C4_5
REMARK    5  A    between atoms: C10_12  and  C11_18
REMARK    6  A    between atoms: N3_13  and  N4_15
REMARK    7  A    between atoms: N6_21  and  C12_22
REMARK    8  A    between atoms: C12_22  and  C13_23
REMARK    9  A    between atoms: C13_23  and  C14_24
REMARK   10  A    between atoms: C14_24  and  C15_25
REMARK   11  A    between atoms: C15_25  and  O1_27
REMARK   12  A    between atoms: C15_25  and  C17_29
REMARK   13  A    between atoms: C17_29  and  S1_30
ROOT
HETATM    1  C11 UNL     1      -5.240  11.629  20.823  1.00  0.00     0.169 A
HETATM    2  N5  UNL     1      -5.706  10.672  20.008  1.00  0.00    -0.278 N
ATOM      3  H5  UNL     1      -5.459   9.686  20.089  1.00  0.00     0.189 HD
HETATM    4  N6  UNL     1      -6.515  11.152  19.094  1.00  0.00    -0.275 N
HETATM    5  C20 UNL     1      -6.576  12.471  19.327  1.00  0.00     0.205 A
HETATM    6  N7  UNL     1      -5.789  12.781  20.397  1.00  0.00    -0.328 N
HETATM    7  C21 UNL     1      -5.650  14.136  20.894  1.00  0.00     0.159 C
ENDROOT
BRANCH   1   8
HETATM    8  C10 UNL     1      -4.333  11.519  21.958  1.00  0.00     0.164 C
HETATM    9  N3  UNL     1      -4.839  11.379  23.130  1.00  0.00    -0.289 N
ATOM     10  H3  UNL     1      -4.173  11.293  23.897  1.00  0.00     0.188 HD
BRANCH   8  11
HETATM   11  N1  UNL     1      -2.926  11.537  21.874  1.00  0.00    -0.367 N
HETATM   12  C1  UNL     1      -2.359  12.384  20.808  1.00  0.00     0.151 C
BRANCH  11  13
HETATM   13  C2  UNL     1      -1.991  10.843  22.687  1.00  0.00     0.128 C
BRANCH  13  14
HETATM   14  C3  UNL     1      -1.632  11.486  23.982  1.00  0.00     0.058 C
BRANCH  14  15
HETATM   15  C4  UNL     1      -1.963  10.589  25.149  1.00  0.00    -0.054 A
HETATM   16  C5  UNL     1      -1.442   9.320  25.266  1.00  0.00     0.024 A
HETATM   17  C6  UNL     1      -1.779   8.531  26.364  1.00  0.00     0.090 A
HETATM   18  N2  UNL     1      -2.605   8.971  27.324  1.00  0.00    -0.371 N
HETATM   19  C7  UNL     1      -2.979   8.179  28.481  1.00  0.00     0.154 C
HETATM   20  C8  UNL     1      -3.106  10.218  27.190  1.00  0.00     0.090 A
HETATM   21  C9  UNL     1      -2.817  11.042  26.140  1.00  0.00     0.024 A
ENDBRANCH  14  15
ENDBRANCH  13  14
ENDBRANCH  11  13
ENDBRANCH   8  11
BRANCH   9  22
HETATM   22  N4  UNL     1      -6.163  11.332  23.476  1.00  0.00    -0.344 N
ATOM     23  H42 UNL     1      -6.624  12.240  23.530  1.00  0.00     0.176 HD
ATOM     24  H41 UNL     1      -6.729  10.508  23.681  1.00  0.00     0.176 HD
ENDBRANCH   9  22
ENDBRANCH   1   8
BRANCH   4  25
HETATM   25  C12 UNL     1      -7.210  10.435  18.044  1.00  0.00     0.243 C
BRANCH  25  26
HETATM   26  C13 UNL     1      -7.758   9.165  18.525  1.00  0.00    -0.082 C
BRANCH  26  27
HETATM   27  C14 UNL     1      -8.227   8.116  18.941  1.00  0.00    -0.066 C
BRANCH  27  28
HETATM   28  C15 UNL     1      -8.770   6.877  19.466  1.00  0.00     0.125 C
HETATM   29  C16 UNL     1      -7.674   5.857  19.702  1.00  0.00     0.061 C
BRANCH  28  30
HETATM   30  O1  UNL     1      -9.620   6.277  18.504  1.00  0.00    -0.377 OA
ATOM     31  H1  UNL     1     -10.232   5.691  18.934  1.00  0.00     0.211 HD
ENDBRANCH  28  30
BRANCH  28  32
HETATM   32  C17 UNL     1      -9.607   7.105  20.671  1.00  0.00     0.114 C
BRANCH  32  33
HETATM   33  S1  UNL     1      -9.006   8.206  21.866  1.00  0.00    -0.215 SA
HETATM   34  C18 UNL     1      -9.766   8.880  23.182  1.00  0.00     0.073 A
HETATM   35  C19 UNL     1      -9.195   9.812  22.037  1.00  0.00     0.073 A
ENDBRANCH  32  33
ENDBRANCH  28  32
ENDBRANCH  27  28
ENDBRANCH  26  27
ENDBRANCH  25  26
ENDBRANCH   4  25
TORSDOF 13
ENDMDL