MODEL 3
REMARK VINA RESULT: -7.119882049      0.673      1.406
REMARK  9 active torsions:
REMARK  status: ('A' for Active; 'I' for Inactive)
REMARK    1  A    between atoms: N2_6  and  C5_7
REMARK    2  A    between atoms: C5_7  and  O1_8
REMARK    3  A    between atoms: C5_7  and  N3_10
REMARK    4  A    between atoms: N3_10  and  C6_11
REMARK    5  A    between atoms: N4_14  and  C9_15
REMARK    6  A    between atoms: C9_15  and  C10_16
REMARK    7  A    between atoms: C10_16  and  C11_17
REMARK    8  A    between atoms: C10_16  and  N6_20
REMARK    9  A    between atoms: C18_27  and  C19_28
ROOT
HETATM    1  C6  UNL     1      -5.391  12.384  23.693  1.00  0.00     0.129 A
HETATM    2  C7  UNL     1      -6.395  12.461  22.719  1.00  0.00     0.063 A
HETATM    3  C8  UNL     1      -6.537  11.542  21.735  1.00  0.00     0.094 A
HETATM    4  N4  UNL     1      -5.679  10.483  21.660  1.00  0.00    -0.363 N
HETATM    5  C17 UNL     1      -4.712  10.363  22.560  1.00  0.00     0.110 A
HETATM    6  C18 UNL     1      -4.536  11.293  23.597  1.00  0.00     0.085 A
ENDROOT
BRANCH   1   7
HETATM    7  N3  UNL     1      -5.153  13.441  24.553  1.00  0.00    -0.364 NA
BRANCH   7   8
HETATM    8  C5  UNL     1      -4.924  14.456  25.376  1.00  0.00     0.296 C
BRANCH   8   9
HETATM    9  N2  UNL     1      -5.624  15.714  25.472  1.00  0.00    -0.333 N
HETATM   10  C4  UNL     1      -5.906  16.372  26.725  1.00  0.00     0.155 C
HETATM   11  C3  UNL     1      -7.179  17.191  26.524  1.00  0.00     0.256 C
HETATM   12  N1  UNL     1      -8.169  16.518  25.729  1.00  0.00    -0.072 N
HETATM   13  C1  UNL     1      -9.244  17.471  25.508  1.00  0.00     0.272 C
HETATM   14  C2  UNL     1      -8.740  15.373  26.442  1.00  0.00     0.272 C
HETATM   15  C21 UNL     1      -7.693  16.135  24.427  1.00  0.00     0.256 C
HETATM   16  C20 UNL     1      -6.168  16.327  24.297  1.00  0.00     0.155 C
ENDBRANCH   8   9
BRANCH   8  17
HETATM   17  O1  UNL     1      -3.955  14.435  26.282  1.00  0.00    -0.321 OA
ATOM     18  H1  UNL     1      -3.240  13.902  25.953  1.00  0.00     0.222 HD
ENDBRANCH   8  17
ENDBRANCH   7   8
ENDBRANCH   1   7
BRANCH   6  19
HETATM   19  C19 UNL     1      -3.578  10.962  24.602  1.00  0.00     0.269 C
HETATM   20  N7  UNL     1      -2.284  11.526  24.632  1.00  0.00    -0.057 NA
HETATM   21  O3  UNL     1      -3.856  10.134  25.520  1.00  0.00    -0.271 OA
ENDBRANCH   6  19
BRANCH   4  22
HETATM   22  C9  UNL     1      -5.876   9.502  20.627  1.00  0.00     0.162 C
BRANCH  22  23
HETATM   23  C10 UNL     1      -7.240   9.507  20.041  1.00  0.00     0.196 C
BRANCH  23  24
HETATM   24  C11 UNL     1      -7.255  10.005  18.664  1.00  0.00     0.256 C
HETATM   25  N5  UNL     1      -6.476  11.112  18.284  1.00  0.00    -0.060 NA
HETATM   26  O2  UNL     1      -7.962   9.465  17.767  1.00  0.00    -0.274 OA
ENDBRANCH  23  24
BRANCH  23  27
HETATM   27  N6  UNL     1      -7.885   8.211  20.109  1.00  0.00    -0.352 N
HETATM   28  C12 UNL     1      -9.194   8.079  20.475  1.00  0.00     0.091 A
HETATM   29  C13 UNL     1      -9.831   6.858  20.536  1.00  0.00     0.017 A
HETATM   30  C14 UNL     1      -9.135   5.710  20.217  1.00  0.00     0.003 A
HETATM   31  C15 UNL     1      -7.804   5.846  19.845  1.00  0.00     0.017 A
HETATM   32  C16 UNL     1      -7.221   7.086  19.802  1.00  0.00     0.091 A
ENDBRANCH  23  27
ENDBRANCH  22  23
ENDBRANCH   4  22
TORSDOF 9
ENDMDL