MODEL 4
REMARK VINA RESULT: -7.621858349      1.347      1.633
REMARK  8 active torsions:
REMARK  status: ('A' for Active; 'I' for Inactive)
REMARK    1  A    between atoms: C6_7  and  C7_8
REMARK    2  A    between atoms: C7_8  and  N2_9
REMARK    3  A    between atoms: N5_19  and  C12_20
REMARK    4  A    between atoms: C12_20  and  C13_21
REMARK    5  A    between atoms: C13_21  and  C14_22
REMARK    6  A    between atoms: N6_25  and  C17_26
REMARK    7  A    between atoms: C17_26  and  C18_27
REMARK    8  A    between atoms: C22_31  and  O1_32
ROOT
HETATM    1  C1  UNL     1      -6.814  13.575  24.786  1.00  0.00     0.068 C
HETATM    2  C2  UNL     1      -5.674  12.613  24.647  1.00  0.00     0.014 A
HETATM    3  C3  UNL     1      -5.220  12.046  25.842  1.00  0.00     0.042 A
HETATM    4  C4  UNL     1      -4.168  11.182  25.864  1.00  0.00     0.094 A
HETATM    5  N1  UNL     1      -3.564  10.885  24.665  1.00  0.00    -0.349 N
HETATM    6  C5  UNL     1      -2.437   9.954  24.790  1.00  0.00     0.156 C
HETATM    7  C6  UNL     1      -3.983  11.413  23.517  1.00  0.00     0.108 A
HETATM    8  N5  UNL     1      -5.066  12.303  23.497  1.00  0.00    -0.318 N
ENDROOT
BRANCH   8   9
HETATM    9  C12 UNL     1      -5.483  12.871  22.275  1.00  0.00     0.077 C
BRANCH   9  10
HETATM   10  C13 UNL     1      -6.709  12.475  21.581  1.00  0.00     0.102 C
BRANCH  10  11
HETATM   11  C14 UNL     1      -7.046  11.079  21.388  1.00  0.00     0.020 A
HETATM   12  C15 UNL     1      -6.358  10.355  20.420  1.00  0.00     0.043 A
HETATM   13  C16 UNL     1      -6.675   9.031  20.210  1.00  0.00     0.096 A
HETATM   14  N6  UNL     1      -7.653   8.410  20.936  1.00  0.00    -0.322 N
HETATM   15  C22 UNL     1      -8.301   9.118  21.858  1.00  0.00     0.225 A
HETATM   16  N7  UNL     1      -7.996  10.413  22.067  1.00  0.00    -0.321 N
HETATM   17  C23 UNL     1      -8.741  11.159  23.092  1.00  0.00     0.160 C
BRANCH  14  18
HETATM   18  C17 UNL     1      -7.970   7.034  20.688  1.00  0.00     0.140 C
BRANCH  18  19
HETATM   19  C18 UNL     1      -8.934   6.782  19.585  1.00  0.00    -0.035 C
HETATM   20  C19 UNL     1     -10.135   7.667  19.558  1.00  0.00     0.016 C
HETATM   21  C20 UNL     1      -8.276   6.878  18.216  1.00  0.00     0.016 C
HETATM   22  C21 UNL     1      -9.455   5.343  19.680  1.00  0.00     0.016 C
ENDBRANCH  18  19
ENDBRANCH  14  18
BRANCH  15  23
HETATM   23  O1  UNL     1      -9.317   8.568  22.652  1.00  0.00    -0.332 OA
ATOM     24  H1  UNL     1      -9.359   8.702  23.591  1.00  0.00     0.221 HD
ENDBRANCH  15  23
ENDBRANCH  10  11
ENDBRANCH   9  10
ENDBRANCH   8   9
BRANCH   7  25
HETATM   25  C7  UNL     1      -3.330  11.144  22.243  1.00  0.00     0.224 C
BRANCH  25  26
HETATM   26  N2  UNL     1      -2.379  12.070  21.679  1.00  0.00    -0.187 N
HETATM   27  C8  UNL     1      -1.537  12.636  22.563  1.00  0.00     0.111 A
HETATM   28  C9  UNL     1      -0.661  13.596  22.161  1.00  0.00     0.035 A
HETATM   29  C10 UNL     1      -0.657  13.976  20.821  1.00  0.00     0.107 A
HETATM   30  N3  UNL     1      -1.506  13.392  19.973  1.00  0.00    -0.202 N
HETATM   31  C11 UNL     1      -2.365  12.434  20.417  1.00  0.00     0.678 A
ATOM     32  H3  UNL     1      -1.512  13.663  18.991  1.00  0.00     0.183 HD
HETATM   33  N4  UNL     1      -3.060  11.899  19.481  1.00  0.00    -0.234 N
ATOM     34  H42 UNL     1      -3.704  11.182  19.814  1.00  0.00     0.174 HD
ATOM     35  H41 UNL     1      -3.049  12.181  18.502  1.00  0.00     0.174 HD
ENDBRANCH  25  26
ENDBRANCH   7  25
TORSDOF 8
ENDMDL