MODEL 5
REMARK VINA RESULT: -7.901252712      2.203      3.936
REMARK  9 active torsions:
REMARK  status: ('A' for Active; 'I' for Inactive)
REMARK    1  A    between atoms: C2_2  and  N1_3
REMARK    2  A    between atoms: C2_2  and  C17_22
REMARK       I    between atoms: N1_3  and  C3_5
REMARK    3  A    between atoms: C3_5  and  C4_7
REMARK    4  A    between atoms: C4_7  and  C5_8
REMARK    5  A    between atoms: C5_8  and  N2_9
REMARK    6  A    between atoms: C10_14  and  C11_15
REMARK    7  A    between atoms: C17_22  and  O2_23
REMARK    8  A    between atoms: C18_25  and  C19_26
REMARK    9  A    between atoms: C19_26  and  N5_30
ROOT
HETATM    1  N1  UNL     1      -3.391  10.263  23.967  1.00  0.00    -0.351 N
ATOM      2  H1  UNL     1      -2.897   9.544  23.438  1.00  0.00     0.163 HD
HETATM    3  C3  UNL     1      -4.691  10.722  23.498  1.00  0.00     0.219 C
HETATM    4  O1  UNL     1      -5.240  11.599  24.187  1.00  0.00    -0.274 OA
ENDROOT
BRANCH   1   5
HETATM    5  C2  UNL     1      -2.793  10.795  25.150  1.00  0.00     0.137 C
HETATM    6  C1  UNL     1      -1.334  11.090  24.909  1.00  0.00     0.039 C
BRANCH   5   7
HETATM    7  C17 UNL     1      -2.860   9.800  26.277  1.00  0.00     0.069 C
HETATM    8  C18 UNL     1      -1.946   8.892  26.458  1.00  0.00     0.083 C
BRANCH   7   9
HETATM    9  O2  UNL     1      -3.949   9.909  27.106  1.00  0.00    -0.363 OA
ATOM     10  H2  UNL     1      -4.742  10.246  26.706  1.00  0.00     0.217 HD
ENDBRANCH   7   9
BRANCH   8  11
HETATM   11  C19 UNL     1      -1.890   7.890  27.484  1.00  0.00     0.115 C
HETATM   12  N4  UNL     1      -2.077   8.042  28.713  1.00  0.00    -0.384 N
ATOM     13  H42 UNL     1      -2.297   8.992  29.014  1.00  0.00     0.157 HD
ATOM     14  H41 UNL     1      -2.038   7.330  29.443  1.00  0.00     0.157 HD
BRANCH  11  15
HETATM   15  N5  UNL     1      -1.577   6.537  27.056  1.00  0.00    -0.292 N
HETATM   16  N6  UNL     1      -0.922   5.762  27.798  1.00  0.00    -0.344 N
ATOM     17  H62 UNL     1      -0.614   6.103  28.708  1.00  0.00     0.176 HD
ATOM     18  H61 UNL     1      -0.702   4.813  27.497  1.00  0.00     0.176 HD
ATOM     19  H5  UNL     1      -1.893   6.212  26.142  1.00  0.00     0.188 HD
ENDBRANCH  11  15
ENDBRANCH   8  11
ENDBRANCH   5   7
ENDBRANCH   1   5
BRANCH   3  20
HETATM   20  C4  UNL     1      -5.272  10.165  22.296  1.00  0.00     0.123 C
BRANCH  20  21
HETATM   21  C5  UNL     1      -6.724  10.179  22.058  1.00  0.00     0.138 C
BRANCH  21  22
HETATM   22  N2  UNL     1      -7.170  10.860  20.880  1.00  0.00    -0.356 N
HETATM   23  C6  UNL     1      -6.966  12.217  20.813  1.00  0.00     0.091 A
HETATM   24  C7  UNL     1      -7.430  12.932  19.737  1.00  0.00     0.017 A
HETATM   25  C8  UNL     1      -8.106  12.312  18.711  1.00  0.00     0.004 A
HETATM   26  C9  UNL     1      -8.307  10.958  18.789  1.00  0.00     0.030 A
HETATM   27  C10 UNL     1      -7.823  10.226  19.900  1.00  0.00     0.044 A
BRANCH  27  28
HETATM   28  C11 UNL     1      -8.109   8.804  19.954  1.00  0.00    -0.007 A
HETATM   29  C12 UNL     1      -9.354   8.366  20.358  1.00  0.00     0.031 A
HETATM   30  C13 UNL     1      -9.671   7.028  20.437  1.00  0.00     0.090 A
HETATM   31  N3  UNL     1      -8.768   6.091  20.119  1.00  0.00    -0.371 N
HETATM   32  C14 UNL     1      -9.116   4.672  20.206  1.00  0.00     0.154 C
HETATM   33  C15 UNL     1      -7.525   6.466  19.714  1.00  0.00     0.090 A
HETATM   34  C16 UNL     1      -7.213   7.805  19.637  1.00  0.00     0.031 A
ENDBRANCH  27  28
ENDBRANCH  21  22
ENDBRANCH  20  21
ENDBRANCH   3  20
TORSDOF 9
ENDMDL