MODEL 3
REMARK VINA RESULT: -8.026795819      2.534      3.391
REMARK  8 active torsions:
REMARK  status: ('A' for Active; 'I' for Inactive)
REMARK    1  A    between atoms: N1_2  and  C2_3
REMARK    2  A    between atoms: C2_3  and  C3_4
REMARK    3  A    between atoms: C3_4  and  N2_5
REMARK       I    between atoms: N2_5  and  C4_7
REMARK       I    between atoms: C4_7  and  N3_9
REMARK    4  A    between atoms: C7_12  and  C8_13
REMARK    5  A    between atoms: C8_13  and  C9_14
REMARK    6  A    between atoms: C9_14  and  N4_15
REMARK    7  A    between atoms: N5_25  and  S1_26
REMARK    8  A    between atoms: S1_26  and  N6_27
ROOT
HETATM    1  N2  UNL     1      -5.916  11.473  23.766  1.00  0.00    -0.341 N
ATOM      2  H2  UNL     1      -6.529  10.820  24.256  1.00  0.00     0.164 HD
HETATM    3  C4  UNL     1      -6.193  11.765  22.408  1.00  0.00     0.326 C
HETATM    4  O1  UNL     1      -5.446  12.573  21.760  1.00  0.00    -0.246 OA
HETATM    5  N3  UNL     1      -7.287  11.196  21.691  1.00  0.00    -0.286 N
HETATM    6  C5  UNL     1      -8.162  10.335  22.218  1.00  0.00     0.101 A
HETATM    7  C6  UNL     1      -9.232   9.784  21.504  1.00  0.00     0.025 A
HETATM    8  C7  UNL     1      -9.423  10.126  20.186  1.00  0.00    -0.054 A
HETATM    9  C15 UNL     1      -8.517  11.015  19.648  1.00  0.00     0.025 A
HETATM   10  C16 UNL     1      -7.476  11.534  20.389  1.00  0.00     0.101 A
ENDROOT
BRANCH   1  11
HETATM   11  C3  UNL     1      -4.812  12.051  24.493  1.00  0.00     0.152 C
BRANCH  11  12
HETATM   12  C2  UNL     1      -3.807  11.098  25.014  1.00  0.00     0.258 C
BRANCH  12  13
HETATM   13  N1  UNL     1      -2.541  11.041  24.401  1.00  0.00    -0.056 N
HETATM   14  C1  UNL     1      -1.561  10.575  25.367  1.00  0.00     0.274 C
HETATM   15  C17 UNL     1      -2.411  10.258  23.222  1.00  0.00     0.254 C
HETATM   16  C18 UNL     1      -2.203  11.186  22.058  1.00  0.00     0.139 C
HETATM   17  N5  UNL     1      -2.177  12.493  22.613  1.00  0.00    -0.166 NA
HETATM   18  C19 UNL     1      -2.108  12.393  24.040  1.00  0.00     0.345 C
BRANCH  17  19
HETATM   19  S1  UNL     1      -0.935  13.488  21.955  1.00  0.00     0.298 S
HETATM   20  O2  UNL     1       0.297  13.485  22.799  1.00  0.00    -0.189 OA
HETATM   21  O3  UNL     1      -1.387  14.888  21.752  1.00  0.00    -0.189 OA
BRANCH  19  22
HETATM   22  N6  UNL     1      -0.510  12.830  20.405  1.00  0.00    -0.316 N
ATOM     23  H62 UNL     1      -0.300  11.850  20.214  1.00  0.00     0.170 HD
ATOM     24  H61 UNL     1      -0.512  13.600  19.737  1.00  0.00     0.170 HD
ENDBRANCH  19  22
ENDBRANCH  17  19
ENDBRANCH  12  13
ENDBRANCH  11  12
ENDBRANCH   1  11
BRANCH   8  25
HETATM   25  C8  UNL     1     -10.527   9.593  19.356  1.00  0.00     0.058 C
BRANCH  25  26
HETATM   26  C9  UNL     1      -9.924   8.745  18.243  1.00  0.00     0.132 C
BRANCH  26  27
HETATM   27  N4  UNL     1      -9.364   7.553  18.835  1.00  0.00    -0.366 N
HETATM   28  C10 UNL     1     -10.171   6.587  19.278  1.00  0.00     0.090 A
HETATM   29  C11 UNL     1      -9.675   5.425  19.855  1.00  0.00     0.017 A
HETATM   30  C12 UNL     1      -8.323   5.301  19.956  1.00  0.00     0.003 A
HETATM   31  C13 UNL     1      -7.510   6.307  19.494  1.00  0.00     0.017 A
HETATM   32  C14 UNL     1      -8.026   7.454  18.924  1.00  0.00     0.090 A
ENDBRANCH  26  27
ENDBRANCH  25  26
ENDBRANCH   8  25
TORSDOF 8
ENDMDL