MODEL 5
REMARK VINA RESULT: -7.808151122      1.270      1.834
REMARK  9 active torsions:
REMARK  status: ('A' for Active; 'I' for Inactive)
REMARK    1  A    between atoms: C5_6  and  O1_7
REMARK    2  A    between atoms: N2_11  and  C8_12
REMARK    3  A    between atoms: C8_12  and  C9_13
REMARK    4  A    between atoms: C9_13  and  C10_14
REMARK    5  A    between atoms: N3_17  and  C13_18
REMARK    6  A    between atoms: C13_18  and  C14_19
REMARK    7  A    between atoms: C14_19  and  C15_20
REMARK    8  A    between atoms: C15_20  and  C16_21
REMARK    9  A    between atoms: C18_26  and  O2_27
ROOT
HETATM    1  C10 UNL     1      -4.845  12.531  20.787  1.00  0.00    -0.054 A
HETATM    2  C11 UNL     1      -4.706  13.271  21.940  1.00  0.00     0.024 A
HETATM    3  C12 UNL     1      -3.536  13.150  22.685  1.00  0.00     0.091 A
HETATM    4  N3  UNL     1      -2.526  12.329  22.316  1.00  0.00    -0.366 N
HETATM    5  C20 UNL     1      -2.686  11.621  21.190  1.00  0.00     0.091 A
HETATM    6  C21 UNL     1      -3.834  11.698  20.399  1.00  0.00     0.024 A
ENDROOT
BRANCH   1   7
HETATM    7  C9  UNL     1      -6.082  12.644  19.978  1.00  0.00     0.058 C
BRANCH   7   8
HETATM    8  C8  UNL     1      -7.140  11.706  20.554  1.00  0.00     0.133 C
BRANCH   8   9
HETATM    9  N2  UNL     1      -7.515  10.684  19.614  1.00  0.00    -0.355 N
HETATM   10  C7  UNL     1      -7.195  10.832  18.317  1.00  0.00     0.094 A
HETATM   11  C6  UNL     1      -7.563   9.868  17.416  1.00  0.00     0.054 A
HETATM   12  C5  UNL     1      -8.255   8.758  17.839  1.00  0.00     0.079 A
HETATM   13  C4  UNL     1      -8.583   8.603  19.156  1.00  0.00     0.027 A
HETATM   14  C3  UNL     1      -9.275   7.493  19.613  1.00  0.00     0.034 A
HETATM   15  C22 UNL     1      -8.195   9.600  20.055  1.00  0.00     0.063 A
HETATM   16  C2  UNL     1      -9.551   7.433  20.962  1.00  0.00     0.091 A
HETATM   17  N1  UNL     1      -9.165   8.408  21.807  1.00  0.00    -0.368 N
HETATM   18  C1  UNL     1      -9.495   8.266  23.206  1.00  0.00     0.154 C
HETATM   19  C23 UNL     1      -8.488   9.503  21.395  1.00  0.00     0.120 A
BRANCH  12  20
HETATM   20  O1  UNL     1      -8.653   7.750  16.966  1.00  0.00    -0.360 OA
ATOM     21  H1  UNL     1      -9.323   7.971  16.328  1.00  0.00     0.217 HD
ENDBRANCH  12  20
ENDBRANCH   8   9
ENDBRANCH   7   8
ENDBRANCH   1   7
BRANCH   4  22
HETATM   22  C13 UNL     1      -1.317  12.180  23.058  1.00  0.00     0.128 C
BRANCH  22  23
HETATM   23  C14 UNL     1      -1.431  11.491  24.373  1.00  0.00     0.027 C
BRANCH  23  24
HETATM   24  C15 UNL     1      -2.197  10.187  24.307  1.00  0.00     0.080 C
BRANCH  24  25
HETATM   25  C16 UNL     1      -2.340   9.601  25.674  1.00  0.00     0.101 A
HETATM   26  N4  UNL     1      -1.710   8.551  26.228  1.00  0.00    -0.284 N
HETATM   27  N5  UNL     1      -2.146   8.376  27.477  1.00  0.00    -0.259 N
ATOM     28  H4  UNL     1      -1.006   7.975  25.765  1.00  0.00     0.188 HD
HETATM   29  C17 UNL     1      -1.715   7.358  28.397  1.00  0.00     0.181 C
HETATM   30  C18 UNL     1      -3.075   9.345  27.708  1.00  0.00     0.241 A
HETATM   31  N6  UNL     1      -3.187  10.094  26.592  1.00  0.00    -0.305 N
HETATM   32  C19 UNL     1      -4.067  11.227  26.424  1.00  0.00     0.161 C
BRANCH  30  33
HETATM   33  O2  UNL     1      -3.755   9.483  28.911  1.00  0.00    -0.331 OA
ATOM     34  H2  UNL     1      -4.661   9.225  29.033  1.00  0.00     0.221 HD
ENDBRANCH  30  33
ENDBRANCH  24  25
ENDBRANCH  23  24
ENDBRANCH  22  23
ENDBRANCH   4  22
TORSDOF 9
ENDMDL