MODEL 5
REMARK VINA RESULT: -7.511292859      2.005      7.188
REMARK  8 active torsions:
REMARK  status: ('A' for Active; 'I' for Inactive)
REMARK    1  A    between atoms: N2_8  and  C7_9
REMARK    2  A    between atoms: C7_9  and  C8_10
REMARK    3  A    between atoms: C8_10  and  C9_11
REMARK    4  A    between atoms: C9_11  and  N3_12
REMARK    5  A    between atoms: C9_11  and  C10_16
REMARK    6  A    between atoms: C9_11  and  C11_19
REMARK    7  A    between atoms: C10_16  and  O1_17
REMARK    8  A    between atoms: C11_19  and  N4_20
ROOT
HETATM    1  C9  UNL     1      -6.039  11.863  20.762  1.00  0.00     0.173 C
ENDROOT
BRANCH   1   2
HETATM    2  C8  UNL     1      -5.810  11.716  22.318  1.00  0.00     0.064 C
BRANCH   2   3
HETATM    3  C7  UNL     1      -4.558  12.420  22.735  1.00  0.00     0.151 C
BRANCH   3   4
HETATM    4  N2  UNL     1      -3.771  11.489  23.550  1.00  0.00    -0.295 N
HETATM    5  C2  UNL     1      -2.754  10.835  22.966  1.00  0.00     0.025 A
HETATM    6  C1  UNL     1      -2.372  10.999  21.526  1.00  0.00     0.070 C
HETATM    7  C3  UNL     1      -1.994   9.951  23.743  1.00  0.00     0.035 A
HETATM    8  C4  UNL     1      -2.248   9.724  25.073  1.00  0.00    -0.032 A
HETATM    9  C5  UNL     1      -3.306  10.427  25.609  1.00  0.00     0.034 A
HETATM   10  C23 UNL     1      -1.627   8.865  26.116  1.00  0.00     0.041 C
HETATM   11  N1  UNL     1      -4.018  11.274  24.835  1.00  0.00    -0.298 N
HETATM   12  C21 UNL     1      -3.426  10.059  27.044  1.00  0.00     0.059 C
HETATM   13  C6  UNL     1      -5.106  11.997  25.483  1.00  0.00     0.178 C
HETATM   14  C22 UNL     1      -1.985   9.639  27.367  1.00  0.00     0.011 C
ENDBRANCH   3   4
ENDBRANCH   2   3
ENDBRANCH   1   2
BRANCH   1  15
HETATM   15  N3  UNL     1      -5.375  10.749  20.222  1.00  0.00    -0.067 N
ATOM     16  H33 UNL     1      -5.388  10.705  19.203  1.00  0.00     0.275 HD
ATOM     17  H32 UNL     1      -4.360  10.777  20.315  1.00  0.00     0.275 HD
ATOM     18  H31 UNL     1      -5.820   9.956  20.683  1.00  0.00     0.275 HD
ENDBRANCH   1  15
BRANCH   1  19
HETATM   19  C10 UNL     1      -5.179  13.097  20.485  1.00  0.00     0.204 C
BRANCH  19  20
HETATM   20  O1  UNL     1      -4.608  13.176  19.269  1.00  0.00    -0.398 OA
ATOM     21  H1  UNL     1      -4.871  12.521  18.633  1.00  0.00     0.209 HD
ENDBRANCH  19  20
ENDBRANCH   1  19
BRANCH   1  22
HETATM   22  C11 UNL     1      -7.438  12.121  20.599  1.00  0.00     0.321 C
BRANCH  22  23
HETATM   23  N4  UNL     1      -8.485  11.171  20.742  1.00  0.00     0.072 N
HETATM   24  C12 UNL     1      -9.695  11.939  20.253  1.00  0.00     0.320 C
HETATM   25  C13 UNL     1      -8.363  10.039  19.949  1.00  0.00     0.091 C
HETATM   26  C14 UNL     1      -8.314   8.722  19.454  1.00  0.00     0.357 C
HETATM   27  N5  UNL     1      -8.788   7.752  20.445  1.00  0.00    -0.031 N
HETATM   28  C15 UNL     1     -10.171   7.428  20.058  1.00  0.00     0.244 C
HETATM   29  C18 UNL     1      -8.047   6.508  20.322  1.00  0.00     0.244 C
HETATM   30  C19 UNL     1      -8.776   8.102  21.799  1.00  0.00     0.279 C
HETATM   31  C16 UNL     1     -10.077   6.182  19.202  1.00  0.00     0.030 C
HETATM   32  C17 UNL     1      -8.992   5.424  19.933  1.00  0.00     0.030 C
HETATM   33  C20 UNL     1      -9.140   9.382  22.376  1.00  0.00     0.289 C
HETATM   34  O2  UNL     1      -9.925   9.355  23.373  1.00  0.00    -0.265 OA
HETATM   35  N6  UNL     1      -8.791  10.748  22.059  1.00  0.00    -0.169 N
ATOM     36  H6  UNL     1      -8.764  11.434  22.813  1.00  0.00     0.198 HD
ENDBRANCH  22  23
ENDBRANCH   1  22
TORSDOF 8
ENDMDL