MODEL 4
REMARK VINA RESULT: -7.996522679      1.250      1.637
REMARK  10 active torsions:
REMARK  status: ('A' for Active; 'I' for Inactive)
REMARK    1  A    between atoms: C2_2  and  C3_3
REMARK    2  A    between atoms: N1_7  and  C7_8
REMARK    3  A    between atoms: C7_8  and  C8_9
REMARK    4  A    between atoms: C8_9  and  C9_10
REMARK    5  A    between atoms: C9_10  and  N2_11
REMARK    6  A    between atoms: C11_13  and  C12_14
REMARK    7  A    between atoms: C12_14  and  N3_15
REMARK    8  A    between atoms: C15_18  and  O1_19
REMARK    9  A    between atoms: C23_31  and  N6_32
REMARK   10  A    between atoms: N7_35  and  O2_36
ROOT
HETATM    1  N2  UNL     1      -5.036  11.188  22.400  1.00  0.00    -0.193 N
HETATM    2  C10 UNL     1      -5.295  10.688  21.188  1.00  0.00     0.119 A
HETATM    3  C11 UNL     1      -6.596  10.375  20.783  1.00  0.00    -0.008 A
HETATM    4  C22 UNL     1      -7.567  10.617  21.712  1.00  0.00     0.116 A
HETATM    5  N5  UNL     1      -7.287  11.127  22.942  1.00  0.00    -0.201 N
ATOM      6  H5  UNL     1      -8.040  11.294  23.610  1.00  0.00     0.183 HD
HETATM    7  C23 UNL     1      -6.024  11.406  23.273  1.00  0.00     0.677 A
ENDROOT
BRANCH   3   8
HETATM    8  C12 UNL     1      -6.856   9.814  19.442  1.00  0.00     0.170 C
BRANCH   8   9
HETATM    9  N3  UNL     1      -7.666   8.631  19.428  1.00  0.00    -0.352 N
HETATM   10  C13 UNL     1      -7.088   7.468  19.869  1.00  0.00     0.094 A
HETATM   11  C14 UNL     1      -7.785   6.282  19.849  1.00  0.00     0.054 A
HETATM   12  C15 UNL     1      -9.075   6.212  19.394  1.00  0.00     0.080 A
HETATM   13  C16 UNL     1      -9.673   7.379  18.946  1.00  0.00     0.040 A
HETATM   14  C17 UNL     1     -10.989   7.356  18.484  1.00  0.00     0.106 A
HETATM   15  C21 UNL     1      -8.930   8.536  18.989  1.00  0.00     0.050 A
HETATM   16  N4  UNL     1     -11.590   8.474  18.058  1.00  0.00    -0.370 N
HETATM   17  C18 UNL     1     -12.979   8.456  17.570  1.00  0.00     0.154 C
HETATM   18  C19 UNL     1     -10.886   9.615  18.091  1.00  0.00     0.092 A
HETATM   19  C20 UNL     1      -9.568   9.681  18.546  1.00  0.00     0.048 A
BRANCH  12  20
HETATM   20  O1  UNL     1      -9.806   5.030  19.361  1.00  0.00    -0.360 OA
ATOM     21  H1  UNL     1      -9.565   4.256  19.857  1.00  0.00     0.217 HD
ENDBRANCH  12  20
ENDBRANCH   8   9
ENDBRANCH   3   8
BRANCH   1  22
HETATM   22  C9  UNL     1      -3.682  11.493  22.770  1.00  0.00     0.148 C
BRANCH  22  23
HETATM   23  C8  UNL     1      -2.865  10.266  23.104  1.00  0.00     0.043 C
BRANCH  23  24
HETATM   24  C7  UNL     1      -1.856  10.706  24.173  1.00  0.00     0.152 C
BRANCH  24  25
HETATM   25  N1  UNL     1      -2.097  10.041  25.430  1.00  0.00    -0.277 N
HETATM   26  C6  UNL     1      -2.830  10.653  26.374  1.00  0.00     0.112 A
HETATM   27  C5  UNL     1      -3.078  10.029  27.602  1.00  0.00     0.021 A
HETATM   28  C4  UNL     1      -2.557   8.772  27.827  1.00  0.00     0.030 A
HETATM   29  C3  UNL     1      -1.817   8.192  26.833  1.00  0.00     0.059 A
HETATM   30  N7  UNL     1      -1.621   8.859  25.672  1.00  0.00    -0.166 N
BRANCH  29  31
HETATM   31  C2  UNL     1      -1.229   6.842  27.010  1.00  0.00     0.057 C
HETATM   32  C1  UNL     1      -1.195   6.554  28.492  1.00  0.00     0.011 C
ENDBRANCH  29  31
BRANCH  30  33
HETATM   33  O2  UNL     1      -0.871   8.230  24.710  1.00  0.00    -0.268 OA
ATOM     34  H2  UNL     1      -0.372   8.782  24.120  1.00  0.00     0.247 HD
ENDBRANCH  30  33
ENDBRANCH  24  25
ENDBRANCH  23  24
ENDBRANCH  22  23
ENDBRANCH   1  22
BRANCH   7  35
HETATM   35  N6  UNL     1      -5.780  11.898  24.465  1.00  0.00    -0.234 N
ATOM     36  H62 UNL     1      -5.579  12.894  24.551  1.00  0.00     0.174 HD
ATOM     37  H61 UNL     1      -5.790  11.301  25.292  1.00  0.00     0.174 HD
ENDBRANCH   7  35
TORSDOF 10
ENDMDL