MODEL 1
REMARK VINA RESULT: -8.847701800      0.000      0.000
REMARK  8 active torsions:
REMARK  status: ('A' for Active; 'I' for Inactive)
REMARK       I    between atoms: C2_2  and  N1_4
REMARK    1  A    between atoms: N2_7  and  C5_8
REMARK    2  A    between atoms: C5_8  and  O2_9
REMARK    3  A    between atoms: C6_11  and  N3_12
REMARK    4  A    between atoms: N3_12  and  N4_14
REMARK    5  A    between atoms: N6_21  and  C9_22
REMARK    6  A    between atoms: C9_22  and  C10_23
REMARK    7  A    between atoms: C14_27  and  C15_28
REMARK    8  A    between atoms: C15_28  and  N7_29
ROOT
HETATM    1  C1  UNL     1      -0.943  13.289  20.274  1.00  0.00     0.117 C
HETATM    2  C2  UNL     1      -1.237  13.321  21.727  1.00  0.00     0.220 C
HETATM    3  O1  UNL     1      -0.416  13.901  22.506  1.00  0.00    -0.273 OA
HETATM    4  N1  UNL     1      -2.382  12.743  22.318  1.00  0.00    -0.317 N
HETATM    5  C3  UNL     1      -2.414  12.921  23.736  1.00  0.00     0.152 C
HETATM    6  C4  UNL     1      -1.698  11.886  24.560  1.00  0.00     0.145 C
HETATM    7  N2  UNL     1      -2.041  10.527  24.271  1.00  0.00    -0.358 N
HETATM    8  C7  UNL     1      -2.552  10.021  22.966  1.00  0.00     0.139 C
HETATM    9  C8  UNL     1      -3.955  10.472  22.829  1.00  0.00     0.116 C
HETATM   10  N6  UNL     1      -4.218  11.300  21.696  1.00  0.00    -0.273 NA
HETATM   11  C22 UNL     1      -3.176  12.146  21.265  1.00  0.00     0.157 C
ENDROOT
BRANCH  10  12
HETATM   12  C9  UNL     1      -4.851  10.623  20.611  1.00  0.00     0.134 C
BRANCH  12  13
HETATM   13  C10 UNL     1      -6.305  10.898  20.644  1.00  0.00    -0.044 A
HETATM   14  C11 UNL     1      -6.887  11.865  21.436  1.00  0.00     0.008 A
HETATM   15  C12 UNL     1      -8.249  12.071  21.422  1.00  0.00     0.001 A
HETATM   16  C13 UNL     1      -9.071  11.315  20.613  1.00  0.00     0.009 A
HETATM   17  C14 UNL     1      -8.481  10.341  19.815  1.00  0.00    -0.039 A
HETATM   18  C21 UNL     1      -7.124  10.142  19.836  1.00  0.00     0.017 A
BRANCH  17  19
HETATM   19  C15 UNL     1      -9.358   9.517  18.937  1.00  0.00     0.166 C
BRANCH  19  20
HETATM   20  N7  UNL     1      -9.110   8.121  19.262  1.00  0.00    -0.362 N
HETATM   21  C16 UNL     1      -9.653   7.618  20.388  1.00  0.00     0.090 A
HETATM   22  C17 UNL     1      -9.438   6.294  20.727  1.00  0.00     0.017 A
HETATM   23  C18 UNL     1      -8.670   5.483  19.917  1.00  0.00     0.003 A
HETATM   24  C19 UNL     1      -8.132   6.032  18.774  1.00  0.00     0.017 A
HETATM   25  C20 UNL     1      -8.355   7.364  18.445  1.00  0.00     0.090 A
ENDBRANCH  19  20
ENDBRANCH  17  19
ENDBRANCH  12  13
ENDBRANCH  10  12
BRANCH   7  26
HETATM   26  C5  UNL     1      -1.880   9.525  25.215  1.00  0.00     0.155 C
HETATM   27  C6  UNL     1      -2.334   9.352  26.572  1.00  0.00     0.164 C
BRANCH  26  28
HETATM   28  O2  UNL     1      -1.151   8.463  24.829  1.00  0.00    -0.345 OA
ATOM     29  H2  UNL     1      -0.721   7.979  25.524  1.00  0.00     0.219 HD
ENDBRANCH  26  28
BRANCH  27  30
HETATM   30  N3  UNL     1      -3.043  10.323  27.296  1.00  0.00    -0.294 N
ATOM     31  H3  UNL     1      -3.264  11.220  26.863  1.00  0.00     0.187 HD
BRANCH  30  32
HETATM   32  N4  UNL     1      -3.456  10.058  28.636  1.00  0.00    -0.250 N
HETATM   33  N5  UNL     1      -3.911   8.940  28.968  1.00  0.00    -0.331 N
ATOM     34  H52 UNL     1      -3.981   8.215  28.254  1.00  0.00     0.178 HD
ATOM     35  H51 UNL     1      -4.206   8.751  29.926  1.00  0.00     0.178 HD
ATOM     36  H4  UNL     1      -3.379  10.794  29.338  1.00  0.00     0.207 HD
ENDBRANCH  30  32
ENDBRANCH  27  30
ENDBRANCH   7  26
TORSDOF 8
ENDMDL