MODEL 3
REMARK VINA RESULT: -7.372664744      1.216      1.585
REMARK  7 active torsions:
REMARK  status: ('A' for Active; 'I' for Inactive)
REMARK    1  A    between atoms: C2_2  and  N1_3
REMARK       I    between atoms: N1_3  and  C3_5
REMARK    2  A    between atoms: C3_5  and  C4_7
REMARK    3  A    between atoms: C4_7  and  N2_8
REMARK    4  A    between atoms: N3_11  and  C7_12
REMARK    5  A    between atoms: C7_12  and  C8_13
REMARK       I    between atoms: C8_13  and  N4_15
REMARK    6  A    between atoms: N4_15  and  C9_17
REMARK    7  A    between atoms: C9_17  and  C10_18
REMARK       I    between atoms: C10_18  and  N5_20
ROOT
HETATM    1  N2  UNL     1      -7.975  10.879  16.429  1.00  0.00    -0.014 N
HETATM    2  C5  UNL     1      -7.033  10.736  15.400  1.00  0.00     0.273 C
HETATM    3  C6  UNL     1      -5.962  11.800  15.724  1.00  0.00     0.273 C
HETATM    4  N3  UNL     1      -6.636  12.601  16.682  1.00  0.00    -0.014 N
HETATM    5  C17 UNL     1      -7.827  13.139  16.025  1.00  0.00     0.273 C
HETATM    6  C18 UNL     1      -8.844  12.018  16.035  1.00  0.00     0.273 C
HETATM    7  C19 UNL     1      -7.277  11.549  17.511  1.00  0.00     0.484 C
ENDROOT
BRANCH   4   8
HETATM    8  C7  UNL     1      -5.937  13.535  17.446  1.00  0.00     0.278 C
BRANCH   8   9
HETATM    9  C8  UNL     1      -4.530  13.362  17.724  1.00  0.00     0.265 C
HETATM   10  O2  UNL     1      -3.644  13.840  16.995  1.00  0.00    -0.267 OA
HETATM   11  N4  UNL     1      -4.115  12.626  18.862  1.00  0.00    -0.348 N
ATOM     12  H4  UNL     1      -4.829  12.227  19.472  1.00  0.00     0.163 HD
BRANCH  11  13
HETATM   13  C9  UNL     1      -2.723  12.417  19.195  1.00  0.00     0.225 C
BRANCH  13  14
HETATM   14  C10 UNL     1      -2.356  13.079  20.467  1.00  0.00     0.237 C
HETATM   15  O3  UNL     1      -1.914  14.247  20.421  1.00  0.00    -0.272 OA
HETATM   16  N5  UNL     1      -2.486  12.449  21.729  1.00  0.00    -0.348 N
HETATM   17  C11 UNL     1      -2.991  11.097  21.870  1.00  0.00     0.154 C
HETATM   18  C16 UNL     1      -2.112  13.143  22.944  1.00  0.00     0.154 C
HETATM   19  C12 UNL     1      -2.304  10.428  23.046  1.00  0.00     0.256 C
HETATM   20  N6  UNL     1      -2.500  11.118  24.284  1.00  0.00    -0.072 N
HETATM   21  C13 UNL     1      -1.253  11.029  25.048  1.00  0.00     0.272 C
HETATM   22  C14 UNL     1      -3.521  10.495  25.119  1.00  0.00     0.272 C
HETATM   23  C15 UNL     1      -2.882  12.496  24.075  1.00  0.00     0.256 C
ENDBRANCH  13  14
ENDBRANCH  11  13
ENDBRANCH   8   9
ENDBRANCH   4   8
BRANCH   1  24
HETATM   24  C4  UNL     1      -8.809   9.838  16.784  1.00  0.00     0.278 C
BRANCH  24  25
HETATM   25  C3  UNL     1      -8.691   9.124  18.032  1.00  0.00     0.265 C
HETATM   26  N1  UNL     1      -7.984   7.960  18.353  1.00  0.00    -0.348 N
ATOM     27  H1  UNL     1      -7.444   7.499  17.622  1.00  0.00     0.163 HD
HETATM   28  O1  UNL     1      -9.350   9.650  19.002  1.00  0.00    -0.267 OA
BRANCH  26  29
HETATM   29  C2  UNL     1      -7.988   7.392  19.665  1.00  0.00     0.029 C
HETATM   30  C1  UNL     1      -7.175   8.180  20.687  1.00  0.00     0.038 C
HETATM   31  C20 UNL     1      -9.334   7.029  20.232  1.00  0.00     0.031 C
HETATM   32  C21 UNL     1      -9.093   5.549  19.904  1.00  0.00     0.005 C
HETATM   33  C22 UNL     1      -7.623   5.927  19.743  1.00  0.00     0.031 C
ENDBRANCH  26  29
ENDBRANCH  24  25
ENDBRANCH   1  24
TORSDOF 7
ENDMDL