MODEL 1
REMARK VINA RESULT: -8.573151760      0.000      0.000
REMARK  5 active torsions:
REMARK  status: ('A' for Active; 'I' for Inactive)
REMARK    1  A    between atoms: C1_2  and  O2_3
REMARK    2  A    between atoms: C1_2  and  C13_15
REMARK    3  A    between atoms: O2_3  and  C2_4
REMARK    4  A    between atoms: C2_4  and  C3_5
REMARK    5  A    between atoms: C19_22  and  C20_23
ROOT
HETATM    1  O1  UNL     1      -9.402 205.527 112.349  1.00  0.00    -0.265 OA
HETATM    2  C1  UNL     1      -9.821 204.404 112.682  1.00  0.00     0.266 C
ENDROOT
BRANCH   2   3
HETATM    3  O2  UNL     1     -10.755 203.797 111.922  1.00  0.00    -0.320 OA
BRANCH   3   4
HETATM    4  C2  UNL     1     -11.963 204.177 111.478  1.00  0.00     0.188 C
BRANCH   4   5
HETATM    5  C3  UNL     1     -13.240 203.693 112.056  1.00  0.00    -0.017 C
HETATM    6  C4  UNL     1     -12.880 202.279 112.572  1.00  0.00     0.016 C
HETATM    7  C5  UNL     1     -14.037 201.554 113.150  1.00  0.00    -0.013 C
HETATM    8  C6  UNL     1     -15.072 201.342 112.087  1.00  0.00     0.009 C
HETATM    9  C10 UNL     1     -14.546 202.368 114.320  1.00  0.00     0.009 C
HETATM   10  C7  UNL     1     -15.453 202.705 111.565  1.00  0.00    -0.013 C
HETATM   11  C8  UNL     1     -16.110 203.442 112.731  1.00  0.00     0.009 C
HETATM   12  C12 UNL     1     -14.301 203.458 110.993  1.00  0.00     0.016 C
HETATM   13  C9  UNL     1     -15.032 203.672 113.751  1.00  0.00    -0.013 C
HETATM   14  C11 UNL     1     -13.863 204.451 113.156  1.00  0.00     0.016 C
ENDBRANCH   4   5
ENDBRANCH   3   4
ENDBRANCH   2   3
BRANCH   2  15
HETATM   15  C13 UNL     1      -9.336 203.687 113.897  1.00  0.00     0.134 C
HETATM   16  C14 UNL     1     -10.476 203.684 114.929  1.00  0.00     0.005 C
HETATM   17  C15 UNL     1     -10.933 205.119 115.021  1.00  0.00     0.036 C
HETATM   18  C18 UNL     1      -9.872 203.281 116.247  1.00  0.00     0.036 C
HETATM   19  C16 UNL     1      -9.737 205.949 115.422  1.00  0.00     0.274 C
HETATM   20  N1  UNL     1      -8.550 205.181 115.675  1.00  0.00     0.104 N
HETATM   21  C17 UNL     1      -8.896 204.286 116.793  1.00  0.00     0.274 C
HETATM   22  C19 UNL     1      -8.172 204.305 114.574  1.00  0.00     0.336 C
BRANCH  22  23
HETATM   23  C20 UNL     1      -7.185 204.974 113.728  1.00  0.00     0.208 C
HETATM   24  O3  UNL     1      -6.887 206.194 113.826  1.00  0.00    -0.646 OA
HETATM   25  O4  UNL     1      -6.491 204.273 112.721  1.00  0.00    -0.646 OA
ENDBRANCH  22  23
ENDBRANCH   2  15
TORSDOF 5
ENDMDL