MODEL 2
REMARK VINA RESULT: -8.337281759      2.223      3.784
REMARK  4 active torsions:
REMARK  status: ('A' for Active; 'I' for Inactive)
REMARK    1  A    between atoms: C7_7  and  N1_8
REMARK       I    between atoms: N1_8  and  C8_10
REMARK    2  A    between atoms: C8_10  and  C9_12
REMARK    3  A    between atoms: C9_12  and  N2_13
REMARK    4  A    between atoms: C15_19  and  N3_20
ROOT
HETATM    1  N2  UNL     1     -11.342 202.532 116.616  1.00  0.00     0.097 N
HETATM    2  C10 UNL     1     -10.470 203.616 116.913  1.00  0.00     0.273 C
HETATM    3  C11 UNL     1     -10.274 204.479 115.712  1.00  0.00     0.040 C
HETATM    4  C12 UNL     1      -9.686 203.740 114.574  1.00  0.00    -0.035 C
HETATM    5  C13 UNL     1     -10.402 204.096 113.275  1.00  0.00     0.012 C
HETATM    6  C14 UNL     1      -9.521 205.082 112.539  1.00  0.00     0.036 C
HETATM    7  C15 UNL     1      -8.497 205.473 113.575  1.00  0.00     0.222 C
HETATM    8  C18 UNL     1      -8.246 204.156 114.256  1.00  0.00     0.045 C
HETATM    9  C19 UNL     1      -9.712 202.266 114.820  1.00  0.00     0.040 C
HETATM   10  C20 UNL     1     -11.035 201.818 115.427  1.00  0.00     0.273 C
ENDROOT
BRANCH   1  11
HETATM   11  C9  UNL     1     -12.708 202.892 116.820  1.00  0.00     0.374 C
BRANCH  11  12
HETATM   12  C8  UNL     1     -13.582 202.811 115.655  1.00  0.00     0.246 C
HETATM   13  N1  UNL     1     -13.630 203.683 114.547  1.00  0.00    -0.355 N
ATOM     14  H1  UNL     1     -12.994 204.481 114.525  1.00  0.00     0.162 HD
HETATM   15  O1  UNL     1     -14.405 201.829 115.641  1.00  0.00    -0.272 OA
BRANCH  13  16
HETATM   16  C7  UNL     1     -14.546 203.493 113.438  1.00  0.00     0.088 C
HETATM   17  C2  UNL     1     -13.790 203.550 112.136  1.00  0.00     0.004 C
HETATM   18  C1  UNL     1     -13.076 202.249 111.861  1.00  0.00     0.012 C
HETATM   19  C3  UNL     1     -14.778 203.889 111.039  1.00  0.00     0.006 C
HETATM   20  C4  UNL     1     -16.137 203.249 111.305  1.00  0.00     0.001 C
HETATM   21  C5  UNL     1     -16.780 203.822 112.557  1.00  0.00     0.002 C
HETATM   22  C6  UNL     1     -15.673 204.469 113.397  1.00  0.00     0.025 C
ENDBRANCH  13  16
ENDBRANCH  11  12
ENDBRANCH   1  11
BRANCH   7  23
HETATM   23  N3  UNL     1      -7.303 206.047 113.081  1.00  0.00     0.084 N
HETATM   24  C16 UNL     1      -6.695 205.128 112.118  1.00  0.00     0.309 C
HETATM   25  C17 UNL     1      -6.351 206.532 114.017  1.00  0.00     0.309 C
ENDBRANCH   7  23
TORSDOF 4
ENDMDL