MODEL 3
REMARK VINA RESULT: -7.735349392      1.089      1.579
REMARK  6 active torsions:
REMARK  status: ('A' for Active; 'I' for Inactive)
REMARK    1  A    between atoms: C2_2  and  C3_3
REMARK    2  A    between atoms: C3_3  and  C4_4
REMARK    3  A    between atoms: N1_7  and  N2_8
REMARK       I    between atoms: N2_8  and  C7_10
REMARK    4  A    between atoms: C7_10  and  C8_12
REMARK    5  A    between atoms: C9_13  and  C10_14
REMARK    6  A    between atoms: C10_14  and  C11_15
ROOT
HETATM    1  C8  UNL     1     -10.123 204.674 113.633  1.00  0.00    -0.004 C
HETATM    2  C9  UNL     1     -11.270 204.414 113.914  1.00  0.00    -0.086 C
ENDROOT
BRANCH   1   3
HETATM    3  C7  UNL     1      -8.757 204.955 113.294  1.00  0.00     0.310 C
HETATM    4  N2  UNL     1      -7.695 204.071 113.548  1.00  0.00    -0.278 N
ATOM      5  H2  UNL     1      -7.950 203.192 114.000  1.00  0.00     0.184 HD
HETATM    6  O1  UNL     1      -8.506 206.050 112.741  1.00  0.00    -0.257 OA
BRANCH   4   7
HETATM    7  N1  UNL     1      -6.380 204.225 113.273  1.00  0.00    -0.228 NA
HETATM    8  C6  UNL     1      -5.693 205.069 114.198  1.00  0.00     0.114 C
HETATM    9  C5  UNL     1      -4.470 205.621 113.491  1.00  0.00     0.022 C
HETATM   10  C4  UNL     1      -4.516 204.956 112.144  1.00  0.00     0.005 C
HETATM   11  C21 UNL     1      -6.000 204.627 111.958  1.00  0.00     0.118 C
BRANCH  10  12
HETATM   12  C3  UNL     1      -3.659 203.753 112.117  1.00  0.00     0.032 C
BRANCH  12  13
HETATM   13  C2  UNL     1      -3.401 203.279 110.752  1.00  0.00    -0.036 C
HETATM   14  C1  UNL     1      -2.616 203.856 109.869  1.00  0.00     0.007 C
ENDBRANCH  12  13
ENDBRANCH  10  12
ENDBRANCH   4   7
ENDBRANCH   1   3
BRANCH   2  15
HETATM   15  C10 UNL     1     -12.686 204.066 114.250  1.00  0.00     0.031 C
HETATM   16  C17 UNL     1     -13.180 205.301 115.011  1.00  0.00     0.049 C
HETATM   17  C18 UNL     1     -12.478 205.186 116.358  1.00  0.00     0.169 C
HETATM   18  O2  UNL     1     -13.113 204.210 117.076  1.00  0.00    -0.391 OA
HETATM   19  C19 UNL     1     -13.357 203.035 116.439  1.00  0.00     0.169 C
HETATM   20  C20 UNL     1     -12.699 202.851 115.096  1.00  0.00     0.049 C
BRANCH  15  21
HETATM   21  C11 UNL     1     -13.383 203.954 112.912  1.00  0.00     0.006 C
HETATM   22  C12 UNL     1     -13.157 202.607 112.276  1.00  0.00     0.006 C
HETATM   23  C13 UNL     1     -14.309 201.685 112.226  1.00  0.00     0.000 C
HETATM   24  C14 UNL     1     -15.647 202.294 111.981  1.00  0.00     0.000 C
HETATM   25  C15 UNL     1     -15.850 203.377 113.003  1.00  0.00     0.000 C
HETATM   26  C16 UNL     1     -14.783 204.429 112.865  1.00  0.00     0.006 C
ENDBRANCH  15  21
ENDBRANCH   2  15
TORSDOF 6
ENDMDL