MODEL 4
REMARK VINA RESULT: -8.045006588      1.206      7.380
REMARK  5 active torsions:
REMARK  status: ('A' for Active; 'I' for Inactive)
REMARK       I    between atoms: C1_2  and  N1_3
REMARK    1  A    between atoms: C1_2  and  O2_9
REMARK    2  A    between atoms: N1_3  and  C2_5
REMARK    3  A    between atoms: C2_5  and  C3_6
REMARK    4  A    between atoms: O2_9  and  C6_10
REMARK    5  A    between atoms: C15_19  and  C16_20
REMARK       I    between atoms: C16_20  and  N2_22
ROOT
HETATM    1  C6  UNL     1     -10.291 204.033 115.240  1.00  0.00     0.142 C
HETATM    2  C7  UNL     1     -11.738 204.480 115.313  1.00  0.00     0.016 C
HETATM    3  C8  UNL     1     -12.341 204.589 113.934  1.00  0.00     0.012 C
HETATM    4  C9  UNL     1     -12.333 203.255 113.275  1.00  0.00    -0.000 C
HETATM    5  C10 UNL     1     -10.868 202.855 113.094  1.00  0.00     0.012 C
HETATM    6  C11 UNL     1     -10.213 202.748 114.438  1.00  0.00     0.016 C
HETATM    7  C12 UNL     1     -10.907 201.680 115.258  1.00  0.00     0.012 C
HETATM    8  C13 UNL     1     -12.355 202.087 115.455  1.00  0.00    -0.000 C
HETATM    9  C14 UNL     1     -12.482 203.441 116.121  1.00  0.00     0.012 C
HETATM   10  C15 UNL     1     -12.983 202.147 114.066  1.00  0.00     0.086 C
ENDROOT
BRANCH   1  11
HETATM   11  O2  UNL     1      -9.435 205.022 114.760  1.00  0.00    -0.298 OA
BRANCH  11  12
HETATM   12  C1  UNL     1      -8.058 204.925 114.911  1.00  0.00     0.360 C
HETATM   13  O1  UNL     1      -7.560 205.615 115.843  1.00  0.00    -0.239 OA
HETATM   14  N1  UNL     1      -7.242 204.114 114.085  1.00  0.00    -0.337 N
ATOM     15  H1  UNL     1      -7.651 203.560 113.333  1.00  0.00     0.164 HD
BRANCH  14  16
HETATM   16  C2  UNL     1      -5.823 204.089 114.330  1.00  0.00     0.129 C
BRANCH  16  17
HETATM   17  C3  UNL     1      -5.031 204.765 113.251  1.00  0.00     0.003 A
HETATM   18  C4  UNL     1      -5.378 204.578 111.819  1.00  0.00     0.007 A
HETATM   19  C5  UNL     1      -4.155 203.925 112.332  1.00  0.00     0.007 A
ENDBRANCH  16  17
ENDBRANCH  14  16
ENDBRANCH  11  12
ENDBRANCH   1  11
BRANCH  10  20
HETATM   20  C16 UNL     1     -14.452 202.281 114.114  1.00  0.00     0.224 C
HETATM   21  O3  UNL     1     -15.053 202.008 115.210  1.00  0.00    -0.273 OA
HETATM   22  N2  UNL     1     -15.256 202.691 113.032  1.00  0.00    -0.352 N
HETATM   23  C17 UNL     1     -16.698 202.812 113.009  1.00  0.00     0.126 C
HETATM   24  C20 UNL     1     -14.806 203.088 111.718  1.00  0.00     0.126 C
HETATM   25  C18 UNL     1     -17.012 203.869 111.970  1.00  0.00     0.021 C
HETATM   26  C19 UNL     1     -15.663 204.340 111.468  1.00  0.00     0.021 C
ENDBRANCH  10  20
TORSDOF 5
ENDMDL