MODEL 2
REMARK VINA RESULT: -9.121472048      1.286      1.519
REMARK  4 active torsions:
REMARK  status: ('A' for Active; 'I' for Inactive)
REMARK    1  A    between atoms: C4_4  and  C5_5
REMARK    2  A    between atoms: C7_7  and  C8_8
REMARK    3  A    between atoms: C13_13  and  C14_14
REMARK    4  A    between atoms: C14_14  and  C15_16
REMARK       I    between atoms: C15_16  and  N2_18
ROOT
HETATM    1  C8  UNL     1     -13.532 203.099 111.515  1.00  0.00    -0.032 C
HETATM    2  C9  UNL     1     -14.186 203.652 110.263  1.00  0.00     0.016 C
HETATM    3  C10 UNL     1     -13.573 201.557 111.183  1.00  0.00     0.010 C
HETATM    4  C11 UNL     1     -14.645 200.937 111.963  1.00  0.00     0.002 C
HETATM    5  C12 UNL     1     -15.492 202.121 112.398  1.00  0.00     0.011 C
HETATM    6  C13 UNL     1     -14.334 203.081 112.723  1.00  0.00     0.047 C
ENDROOT
BRANCH   6   7
HETATM    7  C14 UNL     1     -14.833 204.181 113.502  1.00  0.00     0.096 C
HETATM    8  N1  UNL     1     -16.132 204.074 114.117  1.00  0.00    -0.101 NA
BRANCH   7   9
HETATM    9  C15 UNL     1     -13.963 204.855 114.488  1.00  0.00     0.264 C
HETATM   10  O1  UNL     1     -13.867 206.141 114.486  1.00  0.00    -0.267 OA
HETATM   11  N2  UNL     1     -13.185 204.251 115.488  1.00  0.00    -0.343 N
HETATM   12  C16 UNL     1     -13.167 202.837 115.722  1.00  0.00     0.152 C
HETATM   13  C19 UNL     1     -12.343 205.053 116.350  1.00  0.00     0.152 C
HETATM   14  C17 UNL     1     -12.636 202.562 117.157  1.00  0.00     0.187 C
HETATM   15  O2  UNL     1     -11.335 203.023 117.227  1.00  0.00    -0.388 OA
HETATM   16  C18 UNL     1     -11.137 204.316 116.835  1.00  0.00     0.187 C
ENDBRANCH   7   9
ENDBRANCH   6   7
BRANCH   1  17
HETATM   17  C7  UNL     1     -12.073 203.373 111.551  1.00  0.00    -0.004 C
HETATM   18  C6  UNL     1     -11.288 203.096 112.798  1.00  0.00     0.014 C
HETATM   19  C5  UNL     1     -10.514 204.334 112.654  1.00  0.00     0.009 C
HETATM   20  C20 UNL     1     -11.451 204.682 111.464  1.00  0.00     0.014 C
BRANCH  19  21
HETATM   21  C4  UNL     1      -9.106 204.401 112.327  1.00  0.00    -0.020 C
HETATM   22  C2  UNL     1      -8.155 205.246 112.459  1.00  0.00    -0.091 C
HETATM   23  C1  UNL     1      -6.778 204.877 111.950  1.00  0.00     0.042 C
HETATM   24  C3  UNL     1      -8.274 206.579 113.052  1.00  0.00     0.042 C
ENDBRANCH  19  21
ENDBRANCH   1  17
TORSDOF 4
ENDMDL