MODEL 1
REMARK VINA RESULT: -8.357263615      0.000      0.000
REMARK  4 active torsions:
REMARK  status: ('A' for Active; 'I' for Inactive)
REMARK    1  A    between atoms: N2_8  and  C6_9
REMARK    2  A    between atoms: C6_9  and  C7_10
REMARK    3  A    between atoms: C7_10  and  C8_11
REMARK    4  A    between atoms: C8_11  and  N3_12
ROOT
HETATM    1  C1  UNL     1     -10.521 204.429 110.169  1.00  0.00     0.068 C
HETATM    2  C2  UNL     1     -11.486 204.101 111.259  1.00  0.00     0.007 A
HETATM    3  C3  UNL     1     -12.688 203.451 111.080  1.00  0.00     0.036 A
HETATM    4  C4  UNL     1     -13.292 203.337 112.305  1.00  0.00    -0.004 A
HETATM    5  C5  UNL     1     -12.464 203.919 113.249  1.00  0.00     0.111 A
HETATM    6  N1  UNL     1     -11.393 204.362 112.570  1.00  0.00    -0.346 N
ATOM      7  H1  UNL     1     -10.602 204.841 113.002  1.00  0.00     0.167 HD
HETATM    8  N2  UNL     1     -12.861 203.948 114.620  1.00  0.00    -0.358 N
HETATM    9  C14 UNL     1     -14.297 204.012 114.816  1.00  0.00     0.028 C
HETATM   10  C15 UNL     1     -14.731 203.933 116.238  1.00  0.00     0.038 C
HETATM   11  C16 UNL     1     -14.793 205.328 114.247  1.00  0.00     0.038 C
HETATM   12  C17 UNL     1     -15.015 202.918 114.064  1.00  0.00     0.044 C
HETATM   13  C18 UNL     1     -14.584 202.706 112.661  1.00  0.00    -0.015 C
HETATM   14  C19 UNL     1     -14.344 201.191 112.511  1.00  0.00     0.020 C
HETATM   15  C20 UNL     1     -15.680 203.035 111.669  1.00  0.00     0.020 C
ENDROOT
BRANCH   8  16
HETATM   16  C6  UNL     1     -11.882 203.911 115.655  1.00  0.00     0.127 C
BRANCH  16  17
HETATM   17  C7  UNL     1     -11.395 205.249 116.145  1.00  0.00     0.050 C
BRANCH  17  18
HETATM   18  C8  UNL     1      -9.921 205.319 116.318  1.00  0.00     0.274 C
BRANCH  18  19
HETATM   19  N3  UNL     1      -9.169 205.101 115.079  1.00  0.00     0.091 N
HETATM   20  C9  UNL     1      -9.001 206.426 114.466  1.00  0.00     0.302 C
HETATM   21  C10 UNL     1      -7.993 206.388 113.368  1.00  0.00     0.302 C
HETATM   22  N4  UNL     1      -7.729 205.029 112.948  1.00  0.00     0.087 N
HETATM   23  C11 UNL     1      -6.783 205.132 111.835  1.00  0.00     0.310 C
HETATM   24  C12 UNL     1      -7.198 204.238 114.019  1.00  0.00     0.302 C
HETATM   25  C13 UNL     1      -7.860 204.524 115.339  1.00  0.00     0.302 C
ENDBRANCH  18  19
ENDBRANCH  17  18
ENDBRANCH  16  17
ENDBRANCH   8  16
TORSDOF 4
ENDMDL