MODEL 1
REMARK VINA RESULT: -8.396878542      0.000      0.000
REMARK  4 active torsions:
REMARK  status: ('A' for Active; 'I' for Inactive)
REMARK    1  A    between atoms: C5_6  and  C6_7
REMARK       I    between atoms: C6_7  and  N2_9
REMARK    2  A    between atoms: N2_9  and  C7_11
REMARK    3  A    between atoms: C7_11  and  C8_12
REMARK    4  A    between atoms: C8_12  and  N3_13
ROOT
HETATM    1  C7  UNL     1     -12.458 202.451 114.283  1.00  0.00     0.154 C
ENDROOT
BRANCH   1   2
HETATM    2  N2  UNL     1     -11.205 203.087 114.138  1.00  0.00    -0.358 N
HETATM    3  C6  UNL     1     -10.559 204.035 114.942  1.00  0.00     0.221 C
HETATM    4  O1  UNL     1     -10.933 204.570 115.991  1.00  0.00    -0.273 OA
ATOM      5  H2  UNL     1     -10.683 202.810 113.307  1.00  0.00     0.162 HD
BRANCH   3   6
HETATM    6  C5  UNL     1      -9.169 204.518 114.502  1.00  0.00     0.079 C
HETATM    7  C4  UNL     1      -9.209 205.020 113.103  1.00  0.00     0.016 C
HETATM    8  C3  UNL     1      -7.929 204.770 112.337  1.00  0.00     0.031 C
HETATM    9  C2  UNL     1      -6.910 205.807 112.780  1.00  0.00     0.272 C
HETATM   10  N1  UNL     1      -6.614 205.701 114.189  1.00  0.00     0.084 N
HETATM   11  C1  UNL     1      -5.307 206.269 114.407  1.00  0.00     0.309 C
HETATM   12  C20 UNL     1      -7.635 206.452 114.910  1.00  0.00     0.272 C
HETATM   13  C19 UNL     1      -8.643 205.516 115.492  1.00  0.00     0.044 C
ENDBRANCH   3   6
ENDBRANCH   1   2
BRANCH   1  14
HETATM   14  C8  UNL     1     -13.629 202.871 113.456  1.00  0.00     0.051 C
HETATM   15  C14 UNL     1     -14.551 201.656 113.359  1.00  0.00     0.033 C
HETATM   16  C15 UNL     1     -14.495 200.870 112.115  1.00  0.00     0.002 C
HETATM   17  C16 UNL     1     -14.094 201.545 110.859  1.00  0.00     0.000 C
HETATM   18  C17 UNL     1     -14.319 203.043 111.064  1.00  0.00     0.002 C
HETATM   19  C18 UNL     1     -13.234 203.383 112.141  1.00  0.00     0.033 C
BRANCH  14  20
HETATM   20  N3  UNL     1     -14.343 203.802 114.294  1.00  0.00    -0.362 N
HETATM   21  C9  UNL     1     -14.245 205.157 114.008  1.00  0.00     0.064 C
HETATM   22  C10 UNL     1     -13.854 206.077 115.140  1.00  0.00     0.045 C
HETATM   23  C11 UNL     1     -14.859 205.801 116.259  1.00  0.00     0.010 C
HETATM   24  C12 UNL     1     -14.632 204.385 116.684  1.00  0.00     0.045 C
HETATM   25  C13 UNL     1     -14.821 203.383 115.534  1.00  0.00     0.064 C
ENDBRANCH  14  20
ENDBRANCH   1  14
TORSDOF 4
ENDMDL