MODEL 2
REMARK VINA RESULT: -7.467516016      2.381      4.857
REMARK  6 active torsions:
REMARK  status: ('A' for Active; 'I' for Inactive)
REMARK    1  A    between atoms: N1_7  and  C5_8
REMARK    2  A    between atoms: C5_8  and  C6_9
REMARK    3  A    between atoms: C6_9  and  C7_10
REMARK    4  A    between atoms: C7_10  and  N2_11
REMARK    5  A    between atoms: N2_11  and  C8_13
REMARK    6  A    between atoms: C8_13  and  N3_15
ROOT
HETATM    1  N2  UNL     1     -13.232 205.551 116.981  1.00  0.00    -0.367 N
ATOM      2  H2  UNL     1     -12.850 206.393 117.412  1.00  0.00     0.161 HD
ENDROOT
BRANCH   1   3
HETATM    3  C7  UNL     1     -14.596 205.566 116.506  1.00  0.00     0.123 C
BRANCH   3   4
HETATM    4  C6  UNL     1     -14.607 205.308 115.041  1.00  0.00     0.039 C
BRANCH   4   5
HETATM    5  C5  UNL     1     -15.424 204.156 114.580  1.00  0.00     0.129 C
BRANCH   5   6
HETATM    6  N1  UNL     1     -14.850 203.306 113.606  1.00  0.00    -0.328 N
HETATM    7  C1  UNL     1     -14.608 201.931 113.857  1.00  0.00     0.362 C
HETATM    8  O1  UNL     1     -14.664 201.438 115.025  1.00  0.00    -0.238 OA
HETATM    9  O2  UNL     1     -14.299 201.088 112.809  1.00  0.00    -0.304 OA
HETATM   10  C2  UNL     1     -13.941 201.530 111.515  1.00  0.00     0.182 C
HETATM   11  C3  UNL     1     -14.674 202.811 111.215  1.00  0.00     0.047 C
HETATM   12  C4  UNL     1     -14.489 203.838 112.314  1.00  0.00     0.130 C
ENDBRANCH   5   6
ENDBRANCH   4   5
ENDBRANCH   3   4
ENDBRANCH   1   3
BRANCH   1  13
HETATM   13  C8  UNL     1     -12.405 204.402 116.866  1.00  0.00     0.169 C
HETATM   14  S1  UNL     1     -12.781 203.082 117.738  1.00  0.00    -0.041 SA
BRANCH  13  15
HETATM   15  N3  UNL     1     -11.275 204.382 116.021  1.00  0.00    -0.358 N
HETATM   16  C9  UNL     1     -10.784 203.074 115.692  1.00  0.00     0.125 C
HETATM   17  C10 UNL     1     -10.801 202.806 114.207  1.00  0.00     0.021 C
HETATM   18  C11 UNL     1     -10.697 204.083 113.403  1.00  0.00     0.011 C
HETATM   19  C12 UNL     1      -9.422 204.832 113.708  1.00  0.00    -0.039 C
HETATM   20  C13 UNL     1      -8.954 205.562 112.466  1.00  0.00     0.010 C
HETATM   21  C15 UNL     1      -8.167 203.989 113.607  1.00  0.00     0.010 C
HETATM   22  C16 UNL     1      -9.517 205.715 114.895  1.00  0.00     0.029 C
HETATM   23  C14 UNL     1      -7.606 204.884 112.520  1.00  0.00     0.002 C
HETATM   24  C17 UNL     1     -10.811 205.706 115.636  1.00  0.00     0.126 C
ENDBRANCH  13  15
ENDBRANCH   1  13
TORSDOF 6
ENDMDL