MODEL 4
REMARK VINA RESULT: -7.659039226      1.916      4.168
REMARK  4 active torsions:
REMARK  status: ('A' for Active; 'I' for Inactive)
REMARK    1  A    between atoms: C2_2  and  N1_3
REMARK       I    between atoms: N1_3  and  C4_5
REMARK    2  A    between atoms: C4_5  and  C5_7
REMARK    3  A    between atoms: C7_9  and  C8_10
REMARK       I    between atoms: C8_10  and  N2_12
REMARK    4  A    between atoms: N2_12  and  C9_14
ROOT
HETATM    1  C8  UNL     1     -13.867 205.027 115.075  1.00  0.00     0.223 C
HETATM    2  O2  UNL     1     -13.942 206.026 114.350  1.00  0.00    -0.273 OA
HETATM    3  N2  UNL     1     -13.210 203.888 114.551  1.00  0.00    -0.353 N
ATOM      4  H2  UNL     1     -13.141 203.056 115.137  1.00  0.00     0.163 HD
ENDROOT
BRANCH   3   5
HETATM    5  C9  UNL     1     -12.633 203.845 113.222  1.00  0.00     0.119 C
HETATM    6  C10 UNL     1     -11.246 203.263 113.224  1.00  0.00     0.028 C
HETATM    7  C11 UNL     1     -10.326 204.295 112.600  1.00  0.00     0.002 C
HETATM    8  C12 UNL     1     -10.280 204.117 111.075  1.00  0.00     0.000 C
HETATM    9  C13 UNL     1     -11.305 204.933 110.374  1.00  0.00     0.000 C
HETATM   10  C14 UNL     1     -12.691 204.451 110.382  1.00  0.00     0.003 C
HETATM   11  C15 UNL     1     -12.963 203.093 110.876  1.00  0.00     0.040 C
HETATM   12  C16 UNL     1     -13.478 203.020 112.293  1.00  0.00     0.081 C
HETATM   13  C17 UNL     1     -13.536 201.574 112.685  1.00  0.00     0.042 C
HETATM   14  O3  UNL     1     -14.802 203.443 112.307  1.00  0.00    -0.378 OA
HETATM   15  C18 UNL     1     -14.861 201.126 112.120  1.00  0.00     0.029 C
HETATM   16  C19 UNL     1     -15.588 202.406 111.872  1.00  0.00     0.169 C
ENDBRANCH   3   5
BRANCH   1  17
HETATM   17  C7  UNL     1     -14.434 205.017 116.423  1.00  0.00     0.091 A
HETATM   18  C5  UNL     1     -13.725 204.870 117.685  1.00  0.00     0.092 A
HETATM   19  C6  UNL     1     -14.656 203.765 117.205  1.00  0.00     0.030 A
BRANCH  18  20
HETATM   20  C4  UNL     1     -12.374 204.426 117.936  1.00  0.00     0.224 C
HETATM   21  N1  UNL     1     -11.985 203.845 119.190  1.00  0.00    -0.356 N
HETATM   22  C3  UNL     1     -12.968 203.688 120.266  1.00  0.00     0.152 C
HETATM   23  O1  UNL     1     -11.468 204.517 117.089  1.00  0.00    -0.273 OA
BRANCH  21  24
HETATM   24  C2  UNL     1     -10.645 203.389 119.472  1.00  0.00     0.120 C
HETATM   25  C1  UNL     1     -10.503 201.894 119.331  1.00  0.00     0.026 C
ENDBRANCH  21  24
ENDBRANCH  18  20
ENDBRANCH   1  17
TORSDOF 4
ENDMDL