MODEL 4
REMARK VINA RESULT: -9.035399434      1.356      1.693
REMARK  5 active torsions:
REMARK  status: ('A' for Active; 'I' for Inactive)
REMARK    1  A    between atoms: C2_2  and  O1_3
REMARK    2  A    between atoms: O1_3  and  C3_4
REMARK       I    between atoms: C3_4  and  N1_6
REMARK    3  A    between atoms: N1_6  and  C4_8
REMARK    4  A    between atoms: C4_8  and  C5_9
REMARK       I    between atoms: N2_14  and  C10_15
REMARK    5  A    between atoms: C10_15  and  C11_17
ROOT
HETATM    1  C5  UNL     1     -11.630 203.704 116.748  1.00  0.00     0.105 C
HETATM    2  C6  UNL     1     -11.901 205.059 117.405  1.00  0.00     0.027 C
HETATM    3  C7  UNL     1     -13.300 205.135 117.944  1.00  0.00     0.004 C
HETATM    4  C8  UNL     1     -14.328 204.623 116.967  1.00  0.00     0.020 C
HETATM    5  C9  UNL     1     -13.956 203.205 116.486  1.00  0.00     0.126 C
HETATM    6  N2  UNL     1     -12.678 203.358 115.825  1.00  0.00    -0.345 N
HETATM    7  C10 UNL     1     -12.489 203.200 114.480  1.00  0.00     0.229 C
HETATM    8  O3  UNL     1     -11.277 203.394 114.055  1.00  0.00    -0.272 OA
ENDROOT
BRANCH   1   9
HETATM    9  C4  UNL     1     -10.231 203.638 116.320  1.00  0.00     0.150 C
BRANCH   9  10
HETATM   10  N1  UNL     1      -9.790 204.945 115.850  1.00  0.00    -0.335 N
HETATM   11  C3  UNL     1      -8.437 205.309 115.676  1.00  0.00     0.360 C
HETATM   12  O2  UNL     1      -7.491 204.528 115.904  1.00  0.00    -0.239 OA
ATOM     13  H1  UNL     1     -10.503 205.640 115.633  1.00  0.00     0.164 HD
BRANCH  11  14
HETATM   14  O1  UNL     1      -8.059 206.578 115.233  1.00  0.00    -0.304 OA
BRANCH  14  15
HETATM   15  C2  UNL     1      -7.344 206.762 114.023  1.00  0.00     0.176 C
HETATM   16  C1  UNL     1      -8.202 206.626 112.812  1.00  0.00     0.034 C
ENDBRANCH  14  15
ENDBRANCH  11  14
ENDBRANCH   9  10
ENDBRANCH   1   9
BRANCH   7  17
HETATM   17  C11 UNL     1     -13.403 202.846 113.376  1.00  0.00     0.042 C
HETATM   18  C12 UNL     1     -14.149 201.584 113.490  1.00  0.00     0.024 C
HETATM   19  C13 UNL     1     -15.023 201.431 112.236  1.00  0.00    -0.013 C
HETATM   20  C14 UNL     1     -15.932 202.605 112.023  1.00  0.00     0.009 C
HETATM   21  C18 UNL     1     -14.168 201.280 111.005  1.00  0.00     0.009 C
HETATM   22  C15 UNL     1     -15.107 203.869 111.835  1.00  0.00    -0.013 C
HETATM   23  C16 UNL     1     -14.143 203.735 110.700  1.00  0.00     0.009 C
HETATM   24  C20 UNL     1     -14.307 204.024 113.118  1.00  0.00     0.024 C
HETATM   25  C17 UNL     1     -13.296 202.510 110.892  1.00  0.00    -0.013 C
HETATM   26  C19 UNL     1     -12.486 202.644 112.127  1.00  0.00     0.024 C
ENDBRANCH   7  17
TORSDOF 5
ENDMDL