MODEL 2
REMARK VINA RESULT: -7.801220794      0.927      1.210
REMARK  14 active torsions:
REMARK  status: ('A' for Active; 'I' for Inactive)
REMARK    1  A    between atoms: C3_3  and  C4_4
REMARK       I    between atoms: C4_4  and  N1_6
REMARK    2  A    between atoms: N1_6  and  C5_8
REMARK    3  A    between atoms: C5_8  and  C6_9
REMARK    4  A    between atoms: C6_9  and  N2_10
REMARK    5  A    between atoms: C10_14  and  O2_15
REMARK    6  A    between atoms: C11_17  and  C12_18
REMARK    7  A    between atoms: C12_18  and  C13_19
REMARK    8  A    between atoms: C16_24  and  O3_25
REMARK    9  A    between atoms: C17_27  and  C18_28
REMARK   10  A    between atoms: C18_28  and  C19_29
REMARK   11  A    between atoms: C19_29  and  N4_30
REMARK   12  A    between atoms: C27_44  and  C28_45
REMARK   13  A    between atoms: C28_45  and  C29_46
REMARK   14  A    between atoms: C32_51  and  O6_52
ROOT
HETATM    1  C1  UNL     1      11.801  24.808   6.350  1.00  0.00     0.054 C
HETATM    2  C2  UNL     1      10.570  24.562   5.547  1.00  0.00     0.007 C
HETATM    3  C3  UNL     1      10.781  24.043   4.310  1.00  0.00     0.077 C
HETATM    4  C10 UNL     1       9.801  23.695   3.339  1.00  0.00     0.104 C
HETATM    5  C11 UNL     1       8.884  24.450   2.387  1.00  0.00     0.045 C
HETATM    6  N3  UNL     1       7.585  23.918   2.457  1.00  0.00    -0.340 N
ATOM      7  H3  UNL     1       7.499  23.143   1.800  1.00  0.00     0.167 HD
HETATM    8  C16 UNL     1       6.392  24.093   3.117  1.00  0.00     0.139 C
HETATM    9  C17 UNL     1       5.357  25.142   3.087  1.00  0.00     0.161 C
HETATM   10  N5  UNL     1       4.704  25.284   4.406  1.00  0.00    -0.347 N
ATOM     11  H5  UNL     1       4.560  24.428   4.941  1.00  0.00     0.163 HD
HETATM   12  C22 UNL     1       4.265  26.470   4.992  1.00  0.00     0.246 C
HETATM   13  O4  UNL     1       3.046  26.435   5.421  1.00  0.00    -0.271 OA
HETATM   14  C23 UNL     1       4.933  27.759   5.213  1.00  0.00     0.106 C
HETATM   15  C24 UNL     1       4.682  28.135   6.660  1.00  0.00     0.048 C
HETATM   16  C25 UNL     1       4.065  28.808   4.447  1.00  0.00     0.048 C
HETATM   17  N6  UNL     1       6.242  27.953   4.747  1.00  0.00    -0.342 N
ATOM     18  H6  UNL     1       6.281  28.213   3.762  1.00  0.00     0.163 HD
HETATM   19  C26 UNL     1       7.510  27.866   5.342  1.00  0.00     0.241 C
HETATM   20  O5  UNL     1       8.439  28.578   4.865  1.00  0.00    -0.271 OA
HETATM   21  C27 UNL     1       7.934  27.028   6.494  1.00  0.00     0.176 C
HETATM   22  N7  UNL     1       8.239  25.691   6.159  1.00  0.00    -0.357 N
ATOM     23  H7  UNL     1       7.428  25.239   5.735  1.00  0.00     0.162 HD
HETATM   24  C32 UNL     1       9.314  24.794   6.229  1.00  0.00     0.143 C
ENDROOT
BRANCH   3  25
HETATM   25  C4  UNL     1      12.203  23.763   3.879  1.00  0.00     0.255 C
HETATM   26  O1  UNL     1      13.047  24.648   3.652  1.00  0.00    -0.268 OA
HETATM   27  N1  UNL     1      12.698  22.446   3.703  1.00  0.00    -0.355 N
ATOM     28  H1  UNL     1      12.042  21.684   3.870  1.00  0.00     0.162 HD
BRANCH  27  29
HETATM   29  C5  UNL     1      14.011  22.083   3.317  1.00  0.00     0.151 C
BRANCH  29  30
HETATM   30  C6  UNL     1      14.708  21.314   4.407  1.00  0.00     0.255 C
BRANCH  30  31
HETATM   31  N2  UNL     1      15.227  20.077   3.829  1.00  0.00    -0.077 N
HETATM   32  C7  UNL     1      14.944  19.955   2.426  1.00  0.00     0.271 C
HETATM   33  C8  UNL     1      16.657  19.998   4.016  1.00  0.00     0.271 C
HETATM   34  C9  UNL     1      14.613  18.995   4.584  1.00  0.00     0.271 C
ENDBRANCH  30  31
ENDBRANCH  29  30
ENDBRANCH  27  29
ENDBRANCH   3  25
BRANCH   4  35
HETATM   35  O2  UNL     1       9.586  22.417   3.166  1.00  0.00    -0.358 OA
ATOM     36  H2  UNL     1       8.815  22.186   2.661  1.00  0.00     0.217 HD
ENDBRANCH   4  35
BRANCH  24  37
HETATM   37  O6  UNL     1       9.079  23.896   7.232  1.00  0.00    -0.346 OA
ATOM     38  H6  UNL     1       8.180  23.908   7.537  1.00  0.00     0.219 HD
ENDBRANCH  24  37
BRANCH   5  39
HETATM   39  C12 UNL     1       9.225  25.866   2.288  1.00  0.00     0.064 C
BRANCH  39  40
HETATM   40  C13 UNL     1       8.197  26.772   1.678  1.00  0.00    -0.017 C
HETATM   41  C14 UNL     1       7.773  26.271   0.298  1.00  0.00     0.010 C
HETATM   42  C15 UNL     1       8.737  28.194   1.553  1.00  0.00     0.010 C
ENDBRANCH  39  40
ENDBRANCH   5  39
BRANCH  21  43
HETATM   43  C28 UNL     1       8.854  27.880   7.290  1.00  0.00     0.038 C
BRANCH  43  44
HETATM   44  C29 UNL     1       9.124  27.319   8.658  1.00  0.00    -0.020 C
HETATM   45  C30 UNL     1       8.376  28.154   9.717  1.00  0.00     0.009 C
HETATM   46  C31 UNL     1      10.612  27.392   8.995  1.00  0.00     0.009 C
ENDBRANCH  43  44
ENDBRANCH  21  43
BRANCH   8  47
HETATM   47  O3  UNL     1       6.088  23.131   3.959  1.00  0.00    -0.348 OA
ATOM     48  H3  UNL     1       5.288  22.662   3.750  1.00  0.00     0.219 HD
ENDBRANCH   8  47
BRANCH   9  49
HETATM   49  C18 UNL     1       4.363  24.995   1.995  1.00  0.00     0.064 C
BRANCH  49  50
HETATM   50  C19 UNL     1       3.065  24.362   2.274  1.00  0.00     0.273 C
BRANCH  50  51
HETATM   51  N4  UNL     1       2.947  22.955   1.959  1.00  0.00     0.080 N
HETATM   52  C20 UNL     1       1.688  22.765   1.216  1.00  0.00     0.309 C
HETATM   53  C21 UNL     1       2.762  22.212   3.210  1.00  0.00     0.309 C
ENDBRANCH  50  51
ENDBRANCH  49  50
ENDBRANCH   9  49
TORSDOF 14
ENDMDL