MODEL 2
REMARK VINA RESULT: -7.419908179      3.940      9.262
REMARK  14 active torsions:
REMARK  status: ('A' for Active; 'I' for Inactive)
REMARK    1  A    between atoms: C2_2  and  C3_3
REMARK    2  A    between atoms: C3_3  and  C5_5
REMARK    3  A    between atoms: C6_8  and  O1_9
REMARK    4  A    between atoms: C7_11  and  C8_12
REMARK    5  A    between atoms: C8_12  and  C9_13
REMARK    6  A    between atoms: C12_18  and  O2_19
REMARK    7  A    between atoms: C13_21  and  C14_22
REMARK    8  A    between atoms: C14_22  and  C15_23
REMARK    9  A    between atoms: C19_30  and  C20_31
REMARK   10  A    between atoms: C20_31  and  C21_32
REMARK   11  A    between atoms: C21_32  and  C22_33
REMARK   12  A    between atoms: C22_33  and  C23_34
REMARK   13  A    between atoms: C23_34  and  N4_35
REMARK   14  A    between atoms: C31_49  and  O6_50
ROOT
HETATM    1  C5  UNL     1       8.043  24.929   1.847  1.00  0.00     0.070 C
HETATM    2  N1  UNL     1       6.708  25.413   2.106  1.00  0.00    -0.339 N
ATOM      3  H1  UNL     1       6.414  26.119   1.431  1.00  0.00     0.167 HD
HETATM    4  C6  UNL     1       5.736  25.150   3.046  1.00  0.00     0.139 C
HETATM    5  C7  UNL     1       5.484  25.637   4.458  1.00  0.00     0.158 C
HETATM    6  N2  UNL     1       6.324  26.735   4.824  1.00  0.00    -0.361 N
ATOM      7  H2  UNL     1       6.491  27.361   4.037  1.00  0.00     0.162 HD
HETATM    8  C12 UNL     1       6.959  27.161   5.950  1.00  0.00     0.135 C
HETATM    9  C13 UNL     1       8.031  26.605   6.811  1.00  0.00     0.159 C
HETATM   10  N3  UNL     1       8.401  25.247   6.546  1.00  0.00    -0.347 N
ATOM     11  H3  UNL     1       7.720  24.679   6.041  1.00  0.00     0.163 HD
HETATM   12  C18 UNL     1       9.612  24.608   6.911  1.00  0.00     0.241 C
HETATM   13  O3  UNL     1       9.451  23.471   7.512  1.00  0.00    -0.271 OA
HETATM   14  C19 UNL     1      10.987  25.043   6.706  1.00  0.00     0.176 C
HETATM   15  N5  UNL     1      11.256  25.731   5.463  1.00  0.00    -0.346 N
ATOM     16  H5  UNL     1      10.969  26.705   5.367  1.00  0.00     0.163 HD
HETATM   17  C28 UNL     1      11.914  25.090   4.364  1.00  0.00     0.240 C
HETATM   18  O5  UNL     1      12.716  25.732   3.612  1.00  0.00    -0.271 OA
HETATM   19  C29 UNL     1      11.646  23.664   4.115  1.00  0.00     0.171 C
HETATM   20  C30 UNL     1      13.046  23.003   4.064  1.00  0.00     0.042 C
HETATM   21  N6  UNL     1      11.005  23.346   2.881  1.00  0.00    -0.355 N
ATOM     22  H6  UNL     1      11.617  23.400   2.066  1.00  0.00     0.162 HD
HETATM   23  C31 UNL     1       9.672  22.969   2.581  1.00  0.00     0.190 C
HETATM   24  C32 UNL     1       8.463  23.760   2.599  1.00  0.00     0.244 C
HETATM   25  O7  UNL     1       7.573  23.352   3.447  1.00  0.00    -0.282 OA
ENDROOT
BRANCH  14  26
HETATM   26  C20 UNL     1      11.457  25.900   7.856  1.00  0.00     0.035 C
BRANCH  26  27
HETATM   27  C21 UNL     1      12.477  25.113   8.692  1.00  0.00     0.004 C
BRANCH  27  28
HETATM   28  C22 UNL     1      13.424  24.396   7.780  1.00  0.00     0.020 C
BRANCH  28  29
HETATM   29  C23 UNL     1      13.425  22.924   8.024  1.00  0.00     0.125 C
BRANCH  29  30
HETATM   30  N4  UNL     1      14.707  22.388   8.379  1.00  0.00    -0.352 N
HETATM   31  C24 UNL     1      15.172  22.158   9.734  1.00  0.00     0.126 C
HETATM   32  C25 UNL     1      16.654  22.429   9.587  1.00  0.00     0.029 C
HETATM   33  C26 UNL     1      16.985  21.822   8.245  1.00  0.00     0.104 C
HETATM   34  C27 UNL     1      15.724  21.998   7.490  1.00  0.00     0.219 C
HETATM   35  O4  UNL     1      15.648  21.808   6.239  1.00  0.00    -0.273 OA
ENDBRANCH  29  30
ENDBRANCH  28  29
ENDBRANCH  27  28
ENDBRANCH  26  27
ENDBRANCH  14  26
BRANCH   9  36
HETATM   36  C14 UNL     1       7.800  26.937   8.263  1.00  0.00     0.037 C
BRANCH  36  37
HETATM   37  C15 UNL     1       8.890  27.642   8.973  1.00  0.00    -0.020 C
HETATM   38  C16 UNL     1       9.642  28.627   8.111  1.00  0.00     0.009 C
HETATM   39  C17 UNL     1       8.225  28.471  10.081  1.00  0.00     0.009 C
ENDBRANCH  36  37
ENDBRANCH   9  36
BRANCH   8  40
HETATM   40  O2  UNL     1       6.585  28.328   6.433  1.00  0.00    -0.348 OA
ATOM     41  H2  UNL     1       6.744  28.478   7.357  1.00  0.00     0.219 HD
ENDBRANCH   8  40
BRANCH  23  42
HETATM   42  O6  UNL     1       9.565  21.690   2.240  1.00  0.00    -0.343 OA
ATOM     43  H6  UNL     1       9.139  21.570   1.399  1.00  0.00     0.219 HD
ENDBRANCH  23  42
BRANCH   5  44
HETATM   44  C8  UNL     1       4.000  26.082   4.412  1.00  0.00     0.037 C
BRANCH  44  45
HETATM   45  C9  UNL     1       3.153  25.648   5.521  1.00  0.00    -0.020 C
HETATM   46  C10 UNL     1       3.318  26.612   6.721  1.00  0.00     0.009 C
HETATM   47  C11 UNL     1       1.666  25.702   5.229  1.00  0.00     0.009 C
ENDBRANCH  44  45
ENDBRANCH   5  44
BRANCH   4  48
HETATM   48  O1  UNL     1       4.765  24.308   2.754  1.00  0.00    -0.348 OA
ATOM     49  H1  UNL     1       4.066  24.586   2.172  1.00  0.00     0.219 HD
ENDBRANCH   4  48
BRANCH   1  50
HETATM   50  C3  UNL     1       9.053  25.968   1.508  1.00  0.00     0.035 C
HETATM   51  C4  UNL     1       9.436  26.897   2.635  1.00  0.00     0.016 C
BRANCH  50  52
HETATM   52  C2  UNL     1       8.563  26.926   0.401  1.00  0.00     0.006 C
HETATM   53  C1  UNL     1       8.601  28.365   0.848  1.00  0.00     0.006 C
ENDBRANCH  50  52
ENDBRANCH   1  50
TORSDOF 14
ENDMDL