MODEL 3
REMARK VINA RESULT: -7.495754633     11.096     16.709
REMARK  14 active torsions:
REMARK  status: ('A' for Active; 'I' for Inactive)
REMARK    1  A    between atoms: C2_2  and  C4_4
REMARK    2  A    between atoms: C4_4  and  C5_5
REMARK    3  A    between atoms: C6_8  and  O1_9
REMARK    4  A    between atoms: C8_13  and  C9_14
REMARK    5  A    between atoms: C9_14  and  C10_15
REMARK    6  A    between atoms: C10_15  and  C11_16
REMARK    7  A    between atoms: N2_17  and  N3_19
REMARK    8  A    between atoms: C13_26  and  C14_27
REMARK    9  A    between atoms: C14_27  and  C15_28
REMARK   10  A    between atoms: C19_33  and  O4_34
REMARK   11  A    between atoms: C20_36  and  C21_37
REMARK   12  A    between atoms: C21_37  and  C22_38
REMARK   13  A    between atoms: C26_45  and  C27_46
REMARK   14  A    between atoms: C27_46  and  C28_47
ROOT
HETATM    1  C5  UNL     1      16.878  18.787   5.179  1.00  0.00     0.176 C
HETATM    2  N1  UNL     1      17.399  20.069   5.673  1.00  0.00    -0.355 N
ATOM      3  H1  UNL     1      17.163  20.902   5.134  1.00  0.00     0.162 HD
HETATM    4  C6  UNL     1      18.192  20.256   6.815  1.00  0.00     0.185 C
HETATM    5  C7  UNL     1      17.979  19.830   8.155  1.00  0.00     0.222 C
HETATM    6  O2  UNL     1      18.999  19.804   8.940  1.00  0.00    -0.286 OA
HETATM    7  C8  UNL     1      16.729  19.398   8.813  1.00  0.00     0.163 C
HETATM    8  N4  UNL     1      16.813  19.322  10.258  1.00  0.00    -0.344 N
ATOM      9  H4  UNL     1      16.116  19.872  10.759  1.00  0.00     0.163 HD
HETATM   10  C12 UNL     1      17.691  18.620  11.064  1.00  0.00     0.264 C
HETATM   11  O3  UNL     1      18.406  19.324  11.883  1.00  0.00    -0.266 OA
HETATM   12  C13 UNL     1      17.944  17.142  11.138  1.00  0.00     0.081 C
HETATM   13  N5  UNL     1      19.250  16.763  10.716  1.00  0.00    -0.329 N
HETATM   14  C18 UNL     1      20.289  16.905  11.804  1.00  0.00     0.158 C
HETATM   15  C19 UNL     1      19.803  16.318   9.511  1.00  0.00     0.165 C
HETATM   16  C20 UNL     1      19.365  15.450   8.421  1.00  0.00     0.063 C
HETATM   17  N6  UNL     1      18.400  16.008   7.493  1.00  0.00    -0.325 N
ATOM     18  H6  UNL     1      17.555  16.406   7.902  1.00  0.00     0.169 HD
HETATM   19  C25 UNL     1      18.499  16.059   6.081  1.00  0.00     0.244 C
HETATM   20  O5  UNL     1      17.601  15.489   5.342  1.00  0.00    -0.271 OA
HETATM   21  C26 UNL     1      19.565  16.724   5.340  1.00  0.00     0.177 C
HETATM   22  N7  UNL     1      19.143  17.768   4.440  1.00  0.00    -0.346 N
ATOM     23  H7  UNL     1      19.893  18.219   3.916  1.00  0.00     0.163 HD
HETATM   24  C31 UNL     1      17.856  18.254   4.178  1.00  0.00     0.241 C
HETATM   25  O6  UNL     1      17.472  18.252   2.983  1.00  0.00    -0.271 OA
ENDROOT
BRANCH   7  26
HETATM   26  C9  UNL     1      15.689  20.467   8.444  1.00  0.00     0.038 C
BRANCH  26  27
HETATM   27  C10 UNL     1      16.030  21.742   9.229  1.00  0.00     0.048 C
BRANCH  27  28
HETATM   28  C11 UNL     1      15.764  22.946   8.417  1.00  0.00     0.079 C
HETATM   29  N2  UNL     1      15.955  22.966   7.152  1.00  0.00    -0.322 N
ATOM     30  H2  UNL     1      16.303  22.125   6.691  1.00  0.00     0.185 HD
BRANCH  29  31
HETATM   31  N3  UNL     1      15.705  24.091   6.393  1.00  0.00    -0.346 N
ATOM     32  H32 UNL     1      16.347  24.879   6.479  1.00  0.00     0.176 HD
ATOM     33  H31 UNL     1      14.907  24.149   5.761  1.00  0.00     0.176 HD
ENDBRANCH  29  31
ENDBRANCH  27  28
ENDBRANCH  26  27
ENDBRANCH   7  26
BRANCH   4  34
HETATM   34  O1  UNL     1      19.295  20.921   6.633  1.00  0.00    -0.344 OA
ATOM     35  H1  UNL     1      20.077  20.396   6.511  1.00  0.00     0.219 HD
ENDBRANCH   4  34
BRANCH  12  36
HETATM   36  C14 UNL     1      16.765  16.309  10.839  1.00  0.00     0.067 C
BRANCH  36  37
HETATM   37  C15 UNL     1      15.766  16.285  12.022  1.00  0.00    -0.017 C
HETATM   38  C16 UNL     1      14.423  15.806  11.562  1.00  0.00     0.010 C
HETATM   39  C17 UNL     1      16.307  15.434  13.153  1.00  0.00     0.010 C
ENDBRANCH  36  37
ENDBRANCH  12  36
BRANCH   1  40
HETATM   40  C4  UNL     1      15.584  19.105   4.518  1.00  0.00     0.038 C
BRANCH  40  41
HETATM   41  C2  UNL     1      15.200  20.525   4.355  1.00  0.00    -0.020 C
HETATM   42  C1  UNL     1      14.770  20.802   2.910  1.00  0.00     0.009 C
HETATM   43  C3  UNL     1      13.959  20.826   5.203  1.00  0.00     0.009 C
ENDBRANCH  40  41
ENDBRANCH   1  40
BRANCH  15  44
HETATM   44  O4  UNL     1      21.023  16.789   9.284  1.00  0.00    -0.344 OA
ATOM     45  H4  UNL     1      21.231  17.563   9.793  1.00  0.00     0.219 HD
ENDBRANCH  15  44
BRANCH  16  46
HETATM   46  C21 UNL     1      19.087  14.017   8.667  1.00  0.00     0.065 C
BRANCH  46  47
HETATM   47  C22 UNL     1      20.003  12.976   8.206  1.00  0.00    -0.017 C
HETATM   48  C23 UNL     1      19.887  12.572   6.778  1.00  0.00     0.010 C
HETATM   49  C24 UNL     1      20.024  11.716   9.041  1.00  0.00     0.010 C
ENDBRANCH  46  47
ENDBRANCH  16  46
BRANCH  21  50
HETATM   50  C27 UNL     1      20.297  15.613   4.585  1.00  0.00     0.038 C
BRANCH  50  51
HETATM   51  C28 UNL     1      21.778  15.711   4.694  1.00  0.00    -0.020 C
HETATM   52  C29 UNL     1      22.345  14.433   4.062  1.00  0.00     0.009 C
HETATM   53  C30 UNL     1      22.177  15.787   6.135  1.00  0.00     0.009 C
ENDBRANCH  50  51
ENDBRANCH  21  50
TORSDOF 14
ENDMDL