MODEL 3
REMARK VINA RESULT: -5.179039243      3.619      7.373
REMARK  13 active torsions:
REMARK  status: ('A' for Active; 'I' for Inactive)
REMARK    1  A    between atoms: C2_2  and  C3_3
REMARK    2  A    between atoms: C3_3  and  C4_4
REMARK    3  A    between atoms: C4_4  and  C5_5
REMARK    4  A    between atoms: C10_16  and  C11_17
REMARK    5  A    between atoms: C11_17  and  C12_18
REMARK    6  A    between atoms: C12_18  and  C13_19
REMARK    7  A    between atoms: C16_23  and  O3_24
REMARK    8  A    between atoms: C17_26  and  C18_27
REMARK    9  A    between atoms: C21_32  and  O4_33
REMARK   10  A    between atoms: N5_39  and  C26_40
REMARK   11  A    between atoms: C26_40  and  C27_41
REMARK   12  A    between atoms: C27_41  and  C28_42
REMARK   13  A    between atoms: C28_42  and  C29_43
ROOT
HETATM    1  C5  UNL     1       4.145  25.888   4.167  1.00  0.00     0.177 C
HETATM    2  N1  UNL     1       3.833  26.800   3.093  1.00  0.00    -0.346 N
ATOM      3  H1  UNL     1       4.278  26.643   2.189  1.00  0.00     0.163 HD
HETATM    4  C6  UNL     1       2.951  27.896   3.215  1.00  0.00     0.240 C
HETATM    5  O1  UNL     1       2.556  28.442   2.155  1.00  0.00    -0.271 OA
HETATM    6  C7  UNL     1       2.454  28.454   4.499  1.00  0.00     0.172 C
HETATM    7  C8  UNL     1       3.237  29.765   4.693  1.00  0.00     0.042 C
HETATM    8  N2  UNL     1       1.068  28.825   4.483  1.00  0.00    -0.346 N
ATOM      9  H2  UNL     1       0.812  29.637   3.922  1.00  0.00     0.163 HD
HETATM   10  C9  UNL     1       0.014  28.156   5.182  1.00  0.00     0.241 C
HETATM   11  O2  UNL     1      -1.123  28.691   5.086  1.00  0.00    -0.271 OA
HETATM   12  C10 UNL     1       0.165  26.934   5.975  1.00  0.00     0.177 C
HETATM   13  N3  UNL     1      -0.806  25.910   5.820  1.00  0.00    -0.355 N
HETATM   14  C15 UNL     1      -1.554  25.502   7.034  1.00  0.00     0.152 C
HETATM   15  C16 UNL     1      -1.164  25.190   4.665  1.00  0.00     0.137 C
HETATM   16  C17 UNL     1      -1.369  25.637   3.276  1.00  0.00     0.161 C
HETATM   17  N4  UNL     1      -0.226  25.811   2.448  1.00  0.00    -0.361 N
ATOM     18  H4  UNL     1       0.102  26.778   2.446  1.00  0.00     0.162 HD
HETATM   19  C21 UNL     1       0.556  24.992   1.642  1.00  0.00     0.125 C
HETATM   20  C22 UNL     1       1.464  23.844   1.984  1.00  0.00     0.049 C
HETATM   21  C23 UNL     1       2.619  23.778   1.008  1.00  0.00     0.029 C
HETATM   22  C24 UNL     1       0.653  22.561   1.672  1.00  0.00     0.029 C
HETATM   23  C25 UNL     1       1.967  23.854   3.354  1.00  0.00     0.084 C
HETATM   24  N5  UNL     1       3.317  23.503   3.669  1.00  0.00    -0.329 N
HETATM   25  C32 UNL     1       4.371  24.479   3.678  1.00  0.00     0.246 C
HETATM   26  O6  UNL     1       5.487  24.083   3.256  1.00  0.00    -0.271 OA
ENDROOT
BRANCH  24  27
HETATM   27  C26 UNL     1       3.617  22.143   4.059  1.00  0.00     0.131 C
BRANCH  27  28
HETATM   28  C27 UNL     1       3.421  21.087   3.046  1.00  0.00     0.026 C
BRANCH  28  29
HETATM   29  C28 UNL     1       2.912  19.852   3.816  1.00  0.00     0.060 C
BRANCH  29  30
HETATM   30  C29 UNL     1       3.775  18.694   3.588  1.00  0.00     0.029 A
HETATM   31  C30 UNL     1       4.045  18.101   2.390  1.00  0.00     0.117 A
HETATM   32  N6  UNL     1       4.878  17.068   2.575  1.00  0.00    -0.317 N
HETATM   33  C31 UNL     1       5.116  17.029   3.895  1.00  0.00     0.324 A
ATOM     34  H6  UNL     1       5.251  16.442   1.863  1.00  0.00     0.170 HD
HETATM   35  O5  UNL     1       5.854  16.209   4.525  1.00  0.00    -0.247 OA
HETATM   36  N7  UNL     1       4.450  18.017   4.521  1.00  0.00    -0.311 N
ATOM     37  H7  UNL     1       4.457  18.212   5.523  1.00  0.00     0.170 HD
ENDBRANCH  29  30
ENDBRANCH  28  29
ENDBRANCH  27  28
ENDBRANCH  24  27
BRANCH   1  38
HETATM   38  C4  UNL     1       5.448  26.331   4.792  1.00  0.00     0.035 C
BRANCH  38  39
HETATM   39  C3  UNL     1       5.290  26.911   6.161  1.00  0.00     0.002 C
BRANCH  39  40
HETATM   40  C2  UNL     1       6.319  28.023   6.303  1.00  0.00    -0.004 C
HETATM   41  C1  UNL     1       7.001  27.821   7.654  1.00  0.00     0.005 C
ENDBRANCH  39  40
ENDBRANCH  38  39
ENDBRANCH   1  38
BRANCH  19  42
HETATM   42  O4  UNL     1       0.546  25.206   0.357  1.00  0.00    -0.349 OA
ATOM     43  H4  UNL     1      -0.096  24.744  -0.168  1.00  0.00     0.219 HD
ENDBRANCH  19  42
BRANCH  16  44
HETATM   44  C18 UNL     1      -2.440  24.727   2.611  1.00  0.00     0.008 C
HETATM   45  C19 UNL     1      -2.705  25.197   1.227  1.00  0.00     0.012 C
HETATM   46  C20 UNL     1      -3.693  24.872   3.443  1.00  0.00     0.012 C
ENDBRANCH  16  44
BRANCH  15  47
HETATM   47  O3  UNL     1      -1.356  23.914   4.823  1.00  0.00    -0.348 OA
ATOM     48  H3  UNL     1      -1.926  23.496   4.189  1.00  0.00     0.219 HD
ENDBRANCH  15  47
BRANCH  12  49
HETATM   49  C11 UNL     1       0.456  27.376   7.369  1.00  0.00     0.035 C
BRANCH  49  50
HETATM   50  C12 UNL     1       1.851  27.461   7.821  1.00  0.00     0.002 C
BRANCH  50  51
HETATM   51  C13 UNL     1       1.971  28.792   8.588  1.00  0.00    -0.004 C
HETATM   52  C14 UNL     1       3.373  29.297   8.315  1.00  0.00     0.005 C
ENDBRANCH  50  51
ENDBRANCH  49  50
ENDBRANCH  12  49
TORSDOF 13
ENDMDL