MODEL 4
REMARK VINA RESULT: -7.443066733      2.422      8.419
REMARK  10 active torsions:
REMARK  status: ('A' for Active; 'I' for Inactive)
REMARK    1  A    between atoms: C2_2  and  C3_3
REMARK    2  A    between atoms: C5_8  and  C6_9
REMARK    3  A    between atoms: C6_9  and  C7_10
REMARK    4  A    between atoms: C14_23  and  C15_24
REMARK    5  A    between atoms: C15_24  and  C16_25
REMARK    6  A    between atoms: C20_32  and  C21_33
REMARK    7  A    between atoms: C21_33  and  C22_34
REMARK    8  A    between atoms: C22_34  and  C23_35
REMARK    9  A    between atoms: C23_35  and  N5_36
REMARK       I    between atoms: C24_38  and  N7_40
REMARK   10  A    between atoms: C28_46  and  C29_47
ROOT
HETATM    1  C3  UNL     1       4.585  27.906   6.162  1.00  0.00     0.102 C
HETATM    2  C4  UNL     1       3.744  26.817   6.677  1.00  0.00     0.224 C
HETATM    3  O1  UNL     1       3.627  26.724   7.944  1.00  0.00    -0.273 OA
HETATM    4  N1  UNL     1       3.053  25.861   5.902  1.00  0.00    -0.347 N
ATOM      5  H1  UNL     1       3.029  24.893   6.221  1.00  0.00     0.163 HD
HETATM    6  C5  UNL     1       2.365  26.215   4.645  1.00  0.00     0.177 C
HETATM    7  C10 UNL     1       2.552  25.007   3.790  1.00  0.00     0.241 C
HETATM    8  O2  UNL     1       2.117  23.922   4.292  1.00  0.00    -0.271 OA
HETATM    9  N2  UNL     1       3.148  24.989   2.527  1.00  0.00    -0.346 N
ATOM     10  H2  UNL     1       2.712  24.401   1.818  1.00  0.00     0.163 HD
HETATM   11  C11 UNL     1       4.330  25.728   2.130  1.00  0.00     0.172 C
HETATM   12  C12 UNL     1       3.955  27.114   1.580  1.00  0.00     0.042 C
HETATM   13  C13 UNL     1       4.961  25.023   0.989  1.00  0.00     0.240 C
HETATM   14  O3  UNL     1       4.183  24.421   0.201  1.00  0.00    -0.271 OA
HETATM   15  N3  UNL     1       6.347  24.968   0.713  1.00  0.00    -0.346 N
ATOM     16  H3  UNL     1       6.630  25.055  -0.264  1.00  0.00     0.163 HD
HETATM   17  C14 UNL     1       7.400  24.800   1.693  1.00  0.00     0.177 C
HETATM   18  C19 UNL     1       8.066  26.129   1.833  1.00  0.00     0.241 C
HETATM   19  O4  UNL     1       8.571  26.555   0.726  1.00  0.00    -0.271 OA
HETATM   20  N4  UNL     1       8.183  26.903   2.980  1.00  0.00    -0.346 N
ATOM     21  H4  UNL     1       8.443  27.880   2.847  1.00  0.00     0.163 HD
HETATM   22  C20 UNL     1       7.979  26.477   4.311  1.00  0.00     0.176 C
HETATM   23  C27 UNL     1       7.810  27.656   5.269  1.00  0.00     0.243 C
HETATM   24  O5  UNL     1       8.483  28.626   4.834  1.00  0.00    -0.271 OA
HETATM   25  N8  UNL     1       7.022  27.573   6.413  1.00  0.00    -0.336 N
HETATM   26  C28 UNL     1       6.560  27.146   7.716  1.00  0.00     0.111 A
HETATM   27  C31 UNL     1       5.843  28.166   6.905  1.00  0.00     0.123 A
ENDROOT
BRANCH  22  28
HETATM   28  C21 UNL     1       8.946  25.499   4.842  1.00  0.00     0.036 C
BRANCH  28  29
HETATM   29  C22 UNL     1      10.293  25.926   5.235  1.00  0.00     0.022 C
BRANCH  29  30
HETATM   30  C23 UNL     1      11.415  24.947   5.058  1.00  0.00     0.122 C
BRANCH  30  31
HETATM   31  N5  UNL     1      11.111  23.663   5.673  1.00  0.00    -0.365 N
HETATM   32  C24 UNL     1      11.905  22.652   5.659  1.00  0.00     0.185 C
HETATM   33  N6  UNL     1      11.395  21.480   6.333  1.00  0.00    -0.064 NA
HETATM   34  N7  UNL     1      13.178  22.603   5.062  1.00  0.00    -0.364 N
HETATM   35  C25 UNL     1      14.348  22.829   5.885  1.00  0.00     0.151 C
HETATM   36  C26 UNL     1      13.365  22.330   3.652  1.00  0.00     0.151 C
ATOM     37  H5  UNL     1      10.212  23.558   6.143  1.00  0.00     0.162 HD
ENDBRANCH  30  31
ENDBRANCH  29  30
ENDBRANCH  28  29
ENDBRANCH  22  28
BRANCH  17  38
HETATM   38  C15 UNL     1       8.484  23.856   1.225  1.00  0.00     0.038 C
BRANCH  38  39
HETATM   39  C16 UNL     1       9.567  23.562   2.189  1.00  0.00    -0.020 C
HETATM   40  C17 UNL     1      10.872  24.037   1.512  1.00  0.00     0.009 C
HETATM   41  C18 UNL     1       9.799  22.133   2.542  1.00  0.00     0.009 C
ENDBRANCH  38  39
ENDBRANCH  17  38
BRANCH  26  42
HETATM   42  C29 UNL     1       7.387  27.514   8.899  1.00  0.00     0.023 C
HETATM   43  C30 UNL     1       8.748  26.864   8.898  1.00  0.00     0.007 C
ENDBRANCH  26  42
BRANCH   1  44
HETATM   44  C2  UNL     1       3.695  29.160   6.185  1.00  0.00     0.012 C
HETATM   45  C1  UNL     1       3.573  29.718   4.761  1.00  0.00     0.006 C
ENDBRANCH   1  44
BRANCH   6  46
HETATM   46  C6  UNL     1       0.946  26.435   4.959  1.00  0.00     0.038 C
BRANCH  46  47
HETATM   47  C7  UNL     1       0.224  27.575   4.387  1.00  0.00    -0.020 C
HETATM   48  C8  UNL     1       0.669  28.178   3.120  1.00  0.00     0.009 C
HETATM   49  C9  UNL     1       0.045  28.724   5.394  1.00  0.00     0.009 C
ENDBRANCH  46  47
ENDBRANCH   6  46
TORSDOF 10
ENDMDL