MODEL 1
REMARK VINA RESULT: -7.050804851      0.000      0.000
REMARK  12 active torsions:
REMARK  status: ('A' for Active; 'I' for Inactive)
REMARK    1  A    between atoms: C2_2  and  C3_3
REMARK    2  A    between atoms: C3_3  and  C4_4
REMARK    3  A    between atoms: C4_4  and  C5_5
REMARK    4  A    between atoms: C5_5  and  C6_6
REMARK    5  A    between atoms: C6_6  and  C7_7
REMARK    6  A    between atoms: C11_18  and  C12_19
REMARK    7  A    between atoms: C12_19  and  C13_20
REMARK    8  A    between atoms: C17_27  and  C18_28
REMARK    9  A    between atoms: C18_28  and  C19_29
REMARK   10  A    between atoms: C19_29  and  C21_31
REMARK   11  A    between atoms: C24_35  and  O4_36
REMARK   12  A    between atoms: C27_43  and  C28_44
ROOT
HETATM    1  C7  UNL     1       8.821  26.903   5.629  1.00  0.00     0.207 C
HETATM    2  N1  UNL     1       7.624  26.607   6.438  1.00  0.00    -0.112 NA
HETATM    3  N2  UNL     1       6.949  27.772   6.804  1.00  0.00    -0.271 N
ATOM      4  H2  UNL     1       7.457  28.425   7.401  1.00  0.00     0.185 HD
HETATM    5  C8  UNL     1       5.652  28.138   6.441  1.00  0.00     0.250 C
HETATM    6  O1  UNL     1       5.456  29.355   6.096  1.00  0.00    -0.270 OA
HETATM    7  C9  UNL     1       4.457  27.233   6.416  1.00  0.00     0.226 C
HETATM    8  N3  UNL     1       3.378  27.855   5.677  1.00  0.00    -0.350 N
ATOM      9  H3  UNL     1       2.672  28.321   6.247  1.00  0.00     0.163 HD
HETATM   10  C10 UNL     1       3.164  27.909   4.310  1.00  0.00     0.240 C
HETATM   11  O2  UNL     1       3.078  29.104   3.804  1.00  0.00    -0.271 OA
HETATM   12  C11 UNL     1       3.017  26.861   3.303  1.00  0.00     0.177 C
HETATM   13  N4  UNL     1       3.942  26.937   2.209  1.00  0.00    -0.342 N
ATOM     14  H4  UNL     1       3.823  27.799   1.676  1.00  0.00     0.163 HD
HETATM   15  C16 UNL     1       4.958  26.147   1.681  1.00  0.00     0.268 C
HETATM   16  O3  UNL     1       4.859  25.965   0.397  1.00  0.00    -0.266 OA
HETATM   17  C17 UNL     1       6.118  25.501   2.344  1.00  0.00     0.101 C
HETATM   18  N5  UNL     1       7.204  26.472   2.534  1.00  0.00    -0.326 N
HETATM   19  C23 UNL     1       6.726  27.869   2.457  1.00  0.00     0.159 C
HETATM   20  C24 UNL     1       8.570  26.323   2.719  1.00  0.00     0.176 C
HETATM   21  C25 UNL     1       9.408  25.506   3.622  1.00  0.00     0.158 C
HETATM   22  C26 UNL     1       9.567  24.094   3.182  1.00  0.00     0.273 C
HETATM   23  O5  UNL     1       9.250  23.827   2.002  1.00  0.00    -0.266 OA
HETATM   24  N6  UNL     1      10.051  23.085   4.031  1.00  0.00    -0.342 N
ATOM     25  H6  UNL     1      10.412  22.212   3.645  1.00  0.00     0.163 HD
HETATM   26  C27 UNL     1      10.031  23.298   5.449  1.00  0.00     0.180 C
HETATM   27  C31 UNL     1       9.390  24.545   5.871  1.00  0.00     0.249 C
HETATM   28  O6  UNL     1       8.987  24.580   7.085  1.00  0.00    -0.271 OA
HETATM   29  N7  UNL     1       9.205  25.676   5.026  1.00  0.00    -0.287 N
ENDROOT
BRANCH   1  30
HETATM   30  C6  UNL     1       9.916  27.443   6.526  1.00  0.00     0.045 C
BRANCH  30  31
HETATM   31  C5  UNL     1       9.382  28.088   7.783  1.00  0.00     0.003 C
BRANCH  31  32
HETATM   32  C4  UNL     1      10.123  27.446   8.940  1.00  0.00     0.000 C
BRANCH  32  33
HETATM   33  C3  UNL     1      11.310  26.722   8.314  1.00  0.00    -0.000 C
BRANCH  33  34
HETATM   34  C2  UNL     1      11.945  25.812   9.347  1.00  0.00    -0.005 C
HETATM   35  C1  UNL     1      12.998  24.986   8.625  1.00  0.00     0.005 C
ENDBRANCH  33  34
ENDBRANCH  32  33
ENDBRANCH  31  32
ENDBRANCH  30  31
ENDBRANCH   1  30
BRANCH  20  36
HETATM   36  O4  UNL     1       9.351  27.058   1.935  1.00  0.00    -0.344 OA
ATOM     37  H4  UNL     1      10.269  26.816   1.913  1.00  0.00     0.219 HD
ENDBRANCH  20  36
BRANCH  26  38
HETATM   38  C28 UNL     1      11.434  23.137   5.979  1.00  0.00     0.009 C
HETATM   39  C29 UNL     1      11.895  21.694   5.957  1.00  0.00     0.012 C
HETATM   40  C30 UNL     1      12.415  23.926   5.138  1.00  0.00     0.012 C
ENDBRANCH  26  38
BRANCH  17  41
HETATM   41  C18 UNL     1       5.866  24.529   3.389  1.00  0.00     0.013 C
BRANCH  41  42
HETATM   42  C19 UNL     1       4.767  23.624   3.581  1.00  0.00     0.006 C
HETATM   43  C20 UNL     1       3.730  24.136   4.622  1.00  0.00     0.014 C
BRANCH  42  44
HETATM   44  C21 UNL     1       4.833  22.170   3.835  1.00  0.00     0.003 C
HETATM   45  C22 UNL     1       3.570  21.409   4.031  1.00  0.00     0.006 C
ENDBRANCH  42  44
ENDBRANCH  41  42
ENDBRANCH  17  41
BRANCH  12  46
HETATM   46  C12 UNL     1       1.578  26.962   2.777  1.00  0.00     0.038 C
BRANCH  46  47
HETATM   47  C13 UNL     1       0.716  25.796   2.882  1.00  0.00    -0.020 C
HETATM   48  C14 UNL     1       1.105  24.617   2.017  1.00  0.00     0.009 C
HETATM   49  C15 UNL     1       0.229  25.405   4.233  1.00  0.00     0.009 C
ENDBRANCH  46  47
ENDBRANCH  12  46
TORSDOF 12
ENDMDL