MODEL 3
REMARK VINA RESULT: -5.954879759      1.963      2.383
REMARK  12 active torsions:
REMARK  status: ('A' for Active; 'I' for Inactive)
REMARK    1  A    between atoms: C2_2  and  C3_3
REMARK    2  A    between atoms: C3_3  and  C4_4
REMARK    3  A    between atoms: C6_9  and  C7_10
REMARK    4  A    between atoms: C7_10  and  C8_11
REMARK    5  A    between atoms: C12_18  and  C13_19
REMARK    6  A    between atoms: C13_19  and  C14_20
REMARK    7  A    between atoms: C18_27  and  C19_28
REMARK    8  A    between atoms: C19_28  and  C20_29
REMARK    9  A    between atoms: C26_36  and  O5_37
REMARK   10  A    between atoms: C27_41  and  C28_42
REMARK   11  A    between atoms: C28_42  and  C29_43
REMARK   12  A    between atoms: C30_46  and  O7_47
ROOT
HETATM    1  C4  UNL     1       7.960  25.009   2.977  1.00  0.00     0.178 C
HETATM    2  C5  UNL     1       7.668  25.005   1.520  1.00  0.00     0.241 C
HETATM    3  O1  UNL     1       8.623  25.395   0.792  1.00  0.00    -0.271 OA
HETATM    4  N1  UNL     1       6.497  24.624   0.871  1.00  0.00    -0.346 N
ATOM      5  H1  UNL     1       6.646  23.854   0.219  1.00  0.00     0.163 HD
HETATM    6  C6  UNL     1       5.134  25.055   0.901  1.00  0.00     0.177 C
HETATM    7  C11 UNL     1       4.828  26.279   1.658  1.00  0.00     0.244 C
HETATM    8  O2  UNL     1       5.706  27.206   1.413  1.00  0.00    -0.271 OA
HETATM    9  N2  UNL     1       3.841  26.659   2.540  1.00  0.00    -0.324 N
ATOM     10  H2  UNL     1       3.101  27.160   2.049  1.00  0.00     0.169 HD
HETATM   11  C12 UNL     1       3.539  26.566   3.934  1.00  0.00     0.080 C
HETATM   12  C17 UNL     1       3.337  27.964   4.481  1.00  0.00     0.264 C
HETATM   13  O3  UNL     1       2.285  28.511   4.028  1.00  0.00    -0.266 OA
HETATM   14  N3  UNL     1       4.130  28.685   5.369  1.00  0.00    -0.344 N
ATOM     15  H3  UNL     1       4.512  29.543   4.970  1.00  0.00     0.163 HD
HETATM   16  C18 UNL     1       4.516  28.465   6.723  1.00  0.00     0.155 C
HETATM   17  C23 UNL     1       6.019  28.116   6.746  1.00  0.00     0.161 C
HETATM   18  O4  UNL     1       6.675  28.511   5.802  1.00  0.00    -0.295 OA
HETATM   19  C24 UNL     1       6.627  27.357   7.826  1.00  0.00     0.128 C
HETATM   20  C25 UNL     1       7.309  28.293   8.790  1.00  0.00     0.027 C
HETATM   21  C26 UNL     1       7.384  26.130   7.506  1.00  0.00     0.127 C
HETATM   22  N4  UNL     1       8.130  25.624   6.463  1.00  0.00    -0.339 N
ATOM     23  H4  UNL     1       7.509  25.162   5.799  1.00  0.00     0.167 HD
HETATM   24  C27 UNL     1       9.471  25.525   5.996  1.00  0.00     0.070 C
HETATM   25  C30 UNL     1       9.736  25.844   4.579  1.00  0.00     0.162 C
HETATM   26  N6  UNL     1       8.953  25.932   3.430  1.00  0.00    -0.351 N
HETATM   27  C31 UNL     1       9.235  27.108   2.609  1.00  0.00     0.152 C
ENDROOT
BRANCH   6  28
HETATM   28  C7  UNL     1       4.582  25.341  -0.486  1.00  0.00     0.038 C
BRANCH  28  29
HETATM   29  C8  UNL     1       3.282  24.845  -0.883  1.00  0.00    -0.020 C
HETATM   30  C9  UNL     1       2.865  23.519  -0.289  1.00  0.00     0.009 C
HETATM   31  C10 UNL     1       2.898  25.030  -2.323  1.00  0.00     0.009 C
ENDBRANCH  28  29
ENDBRANCH   6  28
BRANCH   1  32
HETATM   32  C3  UNL     1       8.353  23.558   3.259  1.00  0.00     0.035 C
BRANCH  32  33
HETATM   33  C2  UNL     1       9.377  23.024   2.342  1.00  0.00    -0.002 C
HETATM   34  C1  UNL     1      10.618  22.634   3.115  1.00  0.00     0.005 C
ENDBRANCH  32  33
ENDBRANCH   1  32
BRANCH  11  35
HETATM   35  C13 UNL     1       4.215  25.637   4.822  1.00  0.00     0.067 C
BRANCH  35  36
HETATM   36  C14 UNL     1       3.647  24.239   4.909  1.00  0.00    -0.017 C
HETATM   37  C15 UNL     1       4.418  23.357   3.916  1.00  0.00     0.010 C
HETATM   38  C16 UNL     1       2.220  24.279   4.294  1.00  0.00     0.010 C
ENDBRANCH  35  36
ENDBRANCH  11  35
BRANCH  25  39
HETATM   39  O7  UNL     1      10.997  26.102   4.359  1.00  0.00    -0.345 OA
ATOM     40  H7  UNL     1      11.390  26.603   5.065  1.00  0.00     0.219 HD
ENDBRANCH  25  39
BRANCH  24  41
HETATM   41  C28 UNL     1      10.576  26.095   6.823  1.00  0.00     0.161 C
BRANCH  41  42
HETATM   42  C29 UNL     1      11.025  25.383   7.999  1.00  0.00     0.236 C
HETATM   43  N5  UNL     1      12.226  24.682   8.213  1.00  0.00    -0.062 NA
HETATM   44  O6  UNL     1      10.228  25.376   9.005  1.00  0.00    -0.277 OA
ENDBRANCH  41  42
ENDBRANCH  24  41
BRANCH  16  45
HETATM   45  C19 UNL     1       4.415  29.596   7.688  1.00  0.00     0.037 C
BRANCH  45  46
HETATM   46  C20 UNL     1       3.116  29.724   8.394  1.00  0.00    -0.020 C
HETATM   47  C21 UNL     1       2.170  30.602   7.499  1.00  0.00     0.009 C
HETATM   48  C22 UNL     1       2.373  28.412   8.484  1.00  0.00     0.009 C
ENDBRANCH  45  46
ENDBRANCH  16  45
BRANCH  21  49
HETATM   49  O5  UNL     1       7.284  25.304   8.554  1.00  0.00    -0.349 OA
ATOM     50  H5  UNL     1       6.444  24.865   8.497  1.00  0.00     0.219 HD
ENDBRANCH  21  49
TORSDOF 12
ENDMDL