MODEL 4
REMARK VINA RESULT: -5.893332629      3.165      7.874
REMARK  12 active torsions:
REMARK  status: ('A' for Active; 'I' for Inactive)
REMARK    1  A    between atoms: C2_2  and  C3_3
REMARK    2  A    between atoms: C3_3  and  C5_5
REMARK    3  A    between atoms: C7_10  and  C8_11
REMARK    4  A    between atoms: C12_16  and  O2_17
REMARK    5  A    between atoms: C13_19  and  C14_20
REMARK    6  A    between atoms: C14_20  and  C16_22
REMARK    7  A    between atoms: C19_28  and  N4_29
REMARK    8  A    between atoms: N4_29  and  C20_30
REMARK       I    between atoms: N4_29  and  C22_32
REMARK    9  A    between atoms: C25_37  and  C26_38
REMARK   10  A    between atoms: C26_38  and  C27_39
REMARK   11  A    between atoms: C27_39  and  C28_40
REMARK   12  A    between atoms: C28_40  and  N5_41
ROOT
HETATM    1  C5  UNL     1       5.427  26.197   2.388  1.00  0.00     0.180 C
HETATM    2  N1  UNL     1       4.765  25.078   1.782  1.00  0.00    -0.342 N
ATOM      3  H1  UNL     1       5.318  24.607   1.065  1.00  0.00     0.163 HD
HETATM    4  C6  UNL     1       3.512  24.517   1.989  1.00  0.00     0.265 C
HETATM    5  O1  UNL     1       3.469  23.264   2.136  1.00  0.00    -0.266 OA
HETATM    6  C7  UNL     1       2.178  25.199   2.061  1.00  0.00     0.084 C
HETATM    7  N2  UNL     1       2.149  26.500   1.530  1.00  0.00    -0.333 N
HETATM    8  C11 UNL     1       2.717  26.521   0.123  1.00  0.00     0.158 C
HETATM    9  C12 UNL     1       1.736  27.761   1.953  1.00  0.00     0.141 C
HETATM   10  C13 UNL     1       0.705  28.269   2.847  1.00  0.00     0.163 C
HETATM   11  N3  UNL     1       0.894  28.086   4.260  1.00  0.00    -0.347 N
ATOM     12  H3  UNL     1       0.199  27.480   4.697  1.00  0.00     0.163 HD
HETATM   13  C18 UNL     1       1.841  28.577   5.135  1.00  0.00     0.248 C
HETATM   14  O3  UNL     1       1.450  28.657   6.366  1.00  0.00    -0.271 OA
HETATM   15  C19 UNL     1       3.214  29.023   4.929  1.00  0.00     0.251 C
HETATM   16  C24 UNL     1       4.127  28.243   5.865  1.00  0.00     0.181 C
HETATM   17  O5  UNL     1       3.655  27.988   6.951  1.00  0.00    -0.293 OA
HETATM   18  C25 UNL     1       5.514  27.836   5.434  1.00  0.00     0.157 C
HETATM   19  N8  UNL     1       5.566  26.472   4.966  1.00  0.00    -0.348 N
ATOM     20  H8  UNL     1       5.250  25.772   5.637  1.00  0.00     0.163 HD
HETATM   21  C30 UNL     1       5.985  25.965   3.731  1.00  0.00     0.241 C
HETATM   22  O6  UNL     1       7.002  25.181   3.764  1.00  0.00    -0.271 OA
ENDROOT
BRANCH  18  23
HETATM   23  C26 UNL     1       6.344  27.796   6.731  1.00  0.00     0.034 C
BRANCH  23  24
HETATM   24  C27 UNL     1       7.813  27.773   6.487  1.00  0.00     0.022 C
BRANCH  24  25
HETATM   25  C28 UNL     1       8.401  26.581   7.259  1.00  0.00     0.122 C
BRANCH  25  26
HETATM   26  N5  UNL     1       8.704  25.504   6.358  1.00  0.00    -0.367 N
HETATM   27  C29 UNL     1       9.877  25.247   5.907  1.00  0.00     0.196 C
HETATM   28  N6  UNL     1      10.044  24.150   5.019  1.00  0.00    -0.067 NA
HETATM   29  N7  UNL     1      11.021  26.015   6.256  1.00  0.00    -0.067 NA
ATOM     30  H5  UNL     1       7.936  24.903   6.058  1.00  0.00     0.161 HD
ENDBRANCH  25  26
ENDBRANCH  24  25
ENDBRANCH  23  24
ENDBRANCH  18  23
BRANCH  15  31
HETATM   31  N4  UNL     1       3.497  30.405   5.135  1.00  0.00    -0.333 N
HETATM   32  C22 UNL     1       3.125  31.407   4.216  1.00  0.00     0.216 C
HETATM   33  C23 UNL     1       3.390  32.846   4.377  1.00  0.00     0.117 C
HETATM   34  O4  UNL     1       2.517  31.057   3.173  1.00  0.00    -0.274 OA
BRANCH  31  35
HETATM   35  C20 UNL     1       4.197  30.804   6.322  1.00  0.00     0.122 C
HETATM   36  C21 UNL     1       3.304  31.402   7.381  1.00  0.00     0.026 C
ENDBRANCH  31  35
ENDBRANCH  15  31
BRANCH   1  37
HETATM   37  C3  UNL     1       6.586  26.671   1.509  1.00  0.00     0.013 C
HETATM   38  C4  UNL     1       7.399  25.569   0.929  1.00  0.00     0.012 C
BRANCH  37  39
HETATM   39  C2  UNL     1       7.506  27.623   2.234  1.00  0.00     0.002 C
HETATM   40  C1  UNL     1       8.531  28.222   1.333  1.00  0.00     0.005 C
ENDBRANCH  37  39
ENDBRANCH   1  37
BRANCH  10  41
HETATM   41  C14 UNL     1      -0.710  27.934   2.405  1.00  0.00     0.012 C
HETATM   42  C15 UNL     1      -1.392  26.972   3.311  1.00  0.00     0.012 C
BRANCH  41  43
HETATM   43  C16 UNL     1      -1.582  29.163   2.316  1.00  0.00     0.002 C
HETATM   44  C17 UNL     1      -0.793  30.395   1.957  1.00  0.00     0.005 C
ENDBRANCH  41  43
ENDBRANCH  10  41
BRANCH   9  45
HETATM   45  O2  UNL     1       2.444  28.719   1.415  1.00  0.00    -0.348 OA
ATOM     46  H2  UNL     1       2.141  29.580   1.679  1.00  0.00     0.219 HD
ENDBRANCH   9  45
BRANCH   6  47
HETATM   47  C8  UNL     1       1.416  24.705   3.198  1.00  0.00     0.033 C
HETATM   48  C9  UNL     1       1.113  23.192   3.124  1.00  0.00     0.016 C
HETATM   49  C10 UNL     1       2.246  24.723   4.516  1.00  0.00     0.016 C
ENDBRANCH   6  47
TORSDOF 12
ENDMDL