MODEL 3
REMARK VINA RESULT: -6.096636020      1.958      3.237
REMARK  11 active torsions:
REMARK  status: ('A' for Active; 'I' for Inactive)
REMARK    1  A    between atoms: C2_2  and  C3_3
REMARK    2  A    between atoms: C3_3  and  C4_4
REMARK    3  A    between atoms: C5_5  and  N1_6
REMARK    4  A    between atoms: N1_6  and  C6_8
REMARK    5  A    between atoms: C11_13  and  O1_14
REMARK    6  A    between atoms: C12_18  and  C13_19
REMARK    7  A    between atoms: C13_19  and  C14_20
REMARK    8  A    between atoms: C22_35  and  C23_36
REMARK    9  A    between atoms: C23_36  and  C24_37
REMARK   10  A    between atoms: C28_44  and  C29_45
REMARK   11  A    between atoms: C29_45  and  C30_46
ROOT
HETATM    1  C4  UNL     1       7.481  27.341   5.363  1.00  0.00     0.114 C
HETATM    2  C5  UNL     1       7.994  26.572   4.181  1.00  0.00     0.102 C
HETATM    3  C9  UNL     1       7.331  27.494   3.100  1.00  0.00     0.060 C
HETATM    4  C10 UNL     1       5.887  27.499   3.683  1.00  0.00     0.164 C
HETATM    5  C11 UNL     1       5.158  26.515   2.914  1.00  0.00     0.135 C
HETATM    6  N2  UNL     1       4.529  25.314   3.130  1.00  0.00    -0.359 N
ATOM      7  H2  UNL     1       5.028  24.528   2.714  1.00  0.00     0.162 HD
HETATM    8  C12 UNL     1       3.325  24.909   3.810  1.00  0.00     0.177 C
HETATM    9  C17 UNL     1       2.099  25.010   2.982  1.00  0.00     0.260 C
HETATM   10  O2  UNL     1       2.213  25.046   1.739  1.00  0.00    -0.269 OA
HETATM   11  N3  UNL     1       0.792  25.070   3.533  1.00  0.00    -0.268 N
HETATM   12  C18 UNL     1      -0.297  24.819   2.618  1.00  0.00     0.180 C
HETATM   13  N4  UNL     1       0.588  25.335   4.834  1.00  0.00    -0.319 N
ATOM     14  H4  UNL     1       1.369  25.207   5.476  1.00  0.00     0.181 HD
HETATM   15  C19 UNL     1      -0.619  25.772   5.357  1.00  0.00     0.187 C
HETATM   16  C20 UNL     1      -1.792  24.809   5.219  1.00  0.00     0.044 C
HETATM   17  C21 UNL     1      -1.050  27.166   5.010  1.00  0.00     0.242 C
HETATM   18  O3  UNL     1      -2.265  27.389   5.366  1.00  0.00    -0.271 OA
HETATM   19  N5  UNL     1      -0.338  28.165   4.394  1.00  0.00    -0.346 N
ATOM     20  H5  UNL     1      -0.817  28.613   3.613  1.00  0.00     0.163 HD
HETATM   21  C22 UNL     1       0.991  28.686   4.675  1.00  0.00     0.177 C
HETATM   22  C27 UNL     1       1.386  28.439   6.085  1.00  0.00     0.241 C
HETATM   23  O4  UNL     1       0.474  28.524   6.982  1.00  0.00    -0.271 OA
HETATM   24  N6  UNL     1       2.679  28.116   6.546  1.00  0.00    -0.346 N
ATOM     25  H6  UNL     1       2.764  27.566   7.401  1.00  0.00     0.163 HD
HETATM   26  C28 UNL     1       3.864  28.515   5.882  1.00  0.00     0.177 C
HETATM   27  C33 UNL     1       4.996  27.516   5.996  1.00  0.00     0.243 C
HETATM   28  O5  UNL     1       4.946  26.746   6.975  1.00  0.00    -0.271 OA
HETATM   29  N7  UNL     1       6.043  27.447   5.072  1.00  0.00    -0.331 N
ENDROOT
BRANCH   2  30
HETATM   30  N1  UNL     1       9.418  26.599   3.993  1.00  0.00    -0.412 N
ATOM     31  H1  UNL     1       9.910  27.448   3.715  1.00  0.00     0.154 HD
BRANCH  30  32
HETATM   32  C6  UNL     1      10.106  25.367   4.220  1.00  0.00     0.068 C
HETATM   33  C7  UNL     1      10.761  24.942   2.903  1.00  0.00     0.031 C
HETATM   34  C8  UNL     1      11.259  25.609   5.223  1.00  0.00     0.031 C
ENDBRANCH  30  32
ENDBRANCH   2  30
BRANCH   1  35
HETATM   35  C3  UNL     1       7.804  26.777   6.672  1.00  0.00     0.053 C
BRANCH  35  36
HETATM   36  C2  UNL     1       8.426  27.808   7.551  1.00  0.00    -0.035 C
HETATM   37  C1  UNL     1       7.924  27.862   8.822  1.00  0.00     0.007 C
ENDBRANCH  35  36
ENDBRANCH   1  35
BRANCH   5  38
HETATM   38  O1  UNL     1       5.103  26.915   1.652  1.00  0.00    -0.348 OA
ATOM     39  H1  UNL     1       4.477  27.627   1.584  1.00  0.00     0.219 HD
ENDBRANCH   5  38
BRANCH  26  40
HETATM   40  C29 UNL     1       4.423  29.811   6.330  1.00  0.00     0.038 C
BRANCH  40  41
HETATM   41  C30 UNL     1       3.535  31.014   6.229  1.00  0.00    -0.020 C
HETATM   42  C31 UNL     1       4.151  32.191   5.571  1.00  0.00     0.009 C
HETATM   43  C32 UNL     1       3.226  31.408   7.682  1.00  0.00     0.009 C
ENDBRANCH  40  41
ENDBRANCH  26  40
BRANCH   8  44
HETATM   44  C13 UNL     1       3.473  23.576   4.451  1.00  0.00     0.038 C
BRANCH  44  45
HETATM   45  C14 UNL     1       3.498  22.377   3.586  1.00  0.00    -0.020 C
HETATM   46  C15 UNL     1       2.173  21.790   3.208  1.00  0.00     0.009 C
HETATM   47  C16 UNL     1       4.232  21.294   4.404  1.00  0.00     0.009 C
ENDBRANCH  44  45
ENDBRANCH   8  44
BRANCH  21  48
HETATM   48  C23 UNL     1       1.087  30.145   4.324  1.00  0.00     0.038 C
BRANCH  48  49
HETATM   49  C24 UNL     1      -0.152  30.943   4.363  1.00  0.00    -0.020 C
HETATM   50  C25 UNL     1      -0.020  31.876   5.590  1.00  0.00     0.009 C
HETATM   51  C26 UNL     1      -0.426  31.861   3.210  1.00  0.00     0.009 C
ENDBRANCH  48  49
ENDBRANCH  21  48
TORSDOF 11
ENDMDL