MODEL 1
REMARK VINA RESULT: -5.794945445      0.000      0.000
REMARK  16 active torsions:
REMARK  status: ('A' for Active; 'I' for Inactive)
REMARK    1  A    between atoms: C2_2  and  C3_3
REMARK    2  A    between atoms: C3_3  and  C4_4
REMARK    3  A    between atoms: C4_4  and  C5_5
REMARK    4  A    between atoms: C7_10  and  C8_11
REMARK    5  A    between atoms: C11_16  and  O2_17
REMARK    6  A    between atoms: C12_19  and  C13_20
REMARK    7  A    between atoms: C13_20  and  C14_21
REMARK    8  A    between atoms: C17_26  and  O3_27
REMARK    9  A    between atoms: C18_29  and  C19_30
REMARK   10  A    between atoms: C22_35  and  O4_36
REMARK   11  A    between atoms: N5_38  and  C23_39
REMARK   12  A    between atoms: C23_39  and  C24_40
REMARK   13  A    between atoms: C24_40  and  N6_41
REMARK   14  A    between atoms: C26_47  and  C27_48
REMARK   15  A    between atoms: C27_48  and  C28_49
REMARK   16  A    between atoms: C32_54  and  O6_55
ROOT
HETATM    1  C5  UNL     1       4.125  29.510   6.846  1.00  0.00     0.159 C
HETATM    2  N1  UNL     1       4.371  28.176   6.387  1.00  0.00    -0.347 N
ATOM      3  H1  UNL     1       3.732  27.804   5.685  1.00  0.00     0.163 HD
HETATM    4  C6  UNL     1       5.432  27.314   6.820  1.00  0.00     0.241 C
HETATM    5  O1  UNL     1       5.108  26.109   6.971  1.00  0.00    -0.271 OA
HETATM    6  C7  UNL     1       6.791  27.734   7.082  1.00  0.00     0.179 C
HETATM    7  N2  UNL     1       7.784  27.557   6.054  1.00  0.00    -0.359 N
ATOM      8  H2  UNL     1       8.709  27.383   6.448  1.00  0.00     0.162 HD
HETATM    9  C11 UNL     1       7.809  27.562   4.693  1.00  0.00     0.135 C
HETATM   10  C12 UNL     1       7.262  26.621   3.628  1.00  0.00     0.158 C
HETATM   11  N3  UNL     1       5.935  26.956   3.352  1.00  0.00    -0.357 N
ATOM     12  H3  UNL     1       5.761  27.877   3.753  1.00  0.00     0.162 HD
HETATM   13  C17 UNL     1       4.774  26.539   2.756  1.00  0.00     0.160 C
HETATM   14  C18 UNL     1       3.808  25.445   2.883  1.00  0.00     0.066 C
HETATM   15  N4  UNL     1       2.871  25.500   3.971  1.00  0.00    -0.321 N
ATOM     16  H4  UNL     1       3.306  25.327   4.878  1.00  0.00     0.169 HD
HETATM   17  C22 UNL     1       1.484  25.740   4.065  1.00  0.00     0.226 C
HETATM   18  N5  UNL     1       0.699  26.919   3.965  1.00  0.00    -0.277 N
HETATM   19  C25 UNL     1       0.846  28.121   4.744  1.00  0.00     0.273 C
HETATM   20  O5  UNL     1       0.972  29.184   4.085  1.00  0.00    -0.266 OA
HETATM   21  C26 UNL     1       0.866  28.277   6.218  1.00  0.00     0.082 C
HETATM   22  N7  UNL     1       1.497  29.476   6.653  1.00  0.00    -0.333 N
HETATM   23  C31 UNL     1       0.620  30.706   6.487  1.00  0.00     0.158 C
HETATM   24  C32 UNL     1       2.738  29.808   7.204  1.00  0.00     0.141 C
ENDROOT
BRANCH  18  25
HETATM   25  C23 UNL     1      -0.405  26.888   2.967  1.00  0.00     0.163 C
BRANCH  25  26
HETATM   26  C24 UNL     1       0.130  26.779   1.558  1.00  0.00     0.250 C
BRANCH  26  27
HETATM   27  N6  UNL     1       1.121  27.837   1.337  1.00  0.00    -0.078 N
ATOM     28  H63 UNL     1       0.888  28.697   1.833  1.00  0.00     0.274 HD
ATOM     29  H62 UNL     1       2.008  27.640   1.801  1.00  0.00     0.274 HD
ATOM     30  H61 UNL     1       1.232  27.986   0.335  1.00  0.00     0.274 HD
ENDBRANCH  26  27
ENDBRANCH  25  26
ENDBRANCH  18  25
BRANCH  17  31
HETATM   31  O4  UNL     1       0.705  24.691   4.299  1.00  0.00    -0.332 OA
ATOM     32  H4  UNL     1       0.029  24.794   4.958  1.00  0.00     0.221 HD
ENDBRANCH  17  31
BRANCH  21  33
HETATM   33  C27 UNL     1       1.068  27.015   6.975  1.00  0.00     0.067 C
BRANCH  33  34
HETATM   34  C28 UNL     1      -0.129  26.654   7.825  1.00  0.00    -0.017 C
HETATM   35  C29 UNL     1      -1.146  26.021   6.876  1.00  0.00     0.010 C
HETATM   36  C30 UNL     1      -0.776  27.932   8.346  1.00  0.00     0.010 C
ENDBRANCH  33  34
ENDBRANCH  21  33
BRANCH  14  37
HETATM   37  C19 UNL     1       3.270  24.971   1.556  1.00  0.00     0.032 C
HETATM   38  C20 UNL     1       4.174  24.924   0.401  1.00  0.00     0.016 C
HETATM   39  C21 UNL     1       2.599  23.607   1.670  1.00  0.00     0.016 C
ENDBRANCH  14  37
BRANCH  13  40
HETATM   40  O3  UNL     1       4.373  27.335   1.774  1.00  0.00    -0.345 OA
ATOM     41  H3  UNL     1       4.805  27.159   0.948  1.00  0.00     0.219 HD
ENDBRANCH  13  40
BRANCH  24  42
HETATM   42  O6  UNL     1       2.661  30.556   8.283  1.00  0.00    -0.348 OA
ATOM     43  H6  UNL     1       1.961  30.274   8.860  1.00  0.00     0.219 HD
ENDBRANCH  24  42
BRANCH   1  44
HETATM   44  C4  UNL     1       4.737  30.546   5.913  1.00  0.00     0.033 C
BRANCH  44  45
HETATM   45  C3  UNL     1       4.326  31.922   6.375  1.00  0.00     0.002 C
BRANCH  45  46
HETATM   46  C2  UNL     1       4.072  32.833   5.172  1.00  0.00    -0.004 C
HETATM   47  C1  UNL     1       3.165  32.157   4.200  1.00  0.00     0.005 C
ENDBRANCH  45  46
ENDBRANCH  44  45
ENDBRANCH   1  44
BRANCH  10  48
HETATM   48  C13 UNL     1       7.805  25.301   3.914  1.00  0.00     0.037 C
BRANCH  48  49
HETATM   49  C14 UNL     1       7.772  24.211   2.900  1.00  0.00    -0.020 C
HETATM   50  C15 UNL     1       9.099  23.427   3.104  1.00  0.00     0.009 C
HETATM   51  C16 UNL     1       7.888  24.771   1.502  1.00  0.00     0.009 C
ENDBRANCH  48  49
ENDBRANCH  10  48
BRANCH   9  52
HETATM   52  O2  UNL     1       8.427  28.574   4.115  1.00  0.00    -0.348 OA
ATOM     53  H2  UNL     1       8.166  28.782   3.226  1.00  0.00     0.219 HD
ENDBRANCH   9  52
BRANCH   6  54
HETATM   54  C8  UNL     1       7.260  27.095   8.370  1.00  0.00     0.009 C
HETATM   55  C9  UNL     1       7.919  28.082   9.274  1.00  0.00     0.012 C
HETATM   56  C10 UNL     1       8.165  25.911   8.114  1.00  0.00     0.012 C
ENDBRANCH   6  54
TORSDOF 16
ENDMDL