MODEL 5
REMARK VINA RESULT: -7.975972633      2.306      3.704
REMARK  8 active torsions:
REMARK  status: ('A' for Active; 'I' for Inactive)
REMARK    1  A    between atoms: C1_2  and  C2_4
REMARK    2  A    between atoms: C2_4  and  N2_5
REMARK    3  A    between atoms: N2_5  and  C3_6
REMARK    4  A    between atoms: N2_5  and  C15_21
REMARK    5  A    between atoms: C3_6  and  C4_7
REMARK       I    between atoms: C4_7  and  N3_9
REMARK    6  A    between atoms: N3_9  and  C5_11
REMARK    7  A    between atoms: C15_21  and  O3_22
REMARK    8  A    between atoms: C15_21  and  C16_24
ROOT
HETATM    1  N2  UNL     1       5.343   4.727  19.861  1.00  0.00    -0.348 N
ENDROOT
BRANCH   1   2
HETATM    2  C2  UNL     1       5.459   6.041  19.220  1.00  0.00     0.224 C
BRANCH   2   3
HETATM    3  C1  UNL     1       6.380   6.930  19.941  1.00  0.00     0.248 C
HETATM    4  N1  UNL     1       6.430   7.026  21.349  1.00  0.00    -0.061 NA
HETATM    5  O1  UNL     1       7.173   7.652  19.298  1.00  0.00    -0.275 OA
ENDBRANCH   2   3
ENDBRANCH   1   2
BRANCH   1   6
HETATM    6  C3  UNL     1       4.093   4.423  20.453  1.00  0.00     0.227 C
BRANCH   6   7
HETATM    7  C4  UNL     1       4.054   4.560  21.936  1.00  0.00     0.235 C
HETATM    8  O2  UNL     1       4.462   3.564  22.597  1.00  0.00    -0.272 OA
HETATM    9  N3  UNL     1       3.583   5.746  22.497  1.00  0.00    -0.355 N
ATOM     10  H3  UNL     1       3.281   6.482  21.858  1.00  0.00     0.162 HD
BRANCH   9  11
HETATM   11  C5  UNL     1       3.488   6.019  23.947  1.00  0.00     0.084 C
HETATM   12  C6  UNL     1       2.231   5.409  24.373  1.00  0.00     0.025 C
HETATM   13  C7  UNL     1       0.933   6.073  23.988  1.00  0.00     0.002 C
HETATM   14  C8  UNL     1       0.157   6.679  25.121  1.00  0.00     0.000 C
HETATM   15  C9  UNL     1      -0.289   8.084  25.034  1.00  0.00     0.000 C
HETATM   16  C10 UNL     1       0.593   9.128  25.773  1.00  0.00     0.000 C
HETATM   17  C11 UNL     1       1.927   8.625  25.619  1.00  0.00     0.000 C
HETATM   18  C12 UNL     1       3.247   9.231  25.785  1.00  0.00     0.000 C
HETATM   19  C13 UNL     1       4.153   8.009  25.438  1.00  0.00     0.002 C
HETATM   20  C14 UNL     1       3.920   7.396  24.122  1.00  0.00     0.025 C
ENDBRANCH   9  11
ENDBRANCH   6   7
ENDBRANCH   1   6
BRANCH   1  21
HETATM   21  C15 UNL     1       6.443   3.883  19.897  1.00  0.00     0.123 C
BRANCH  21  22
HETATM   22  O3  UNL     1       7.090   3.959  21.049  1.00  0.00    -0.349 OA
ATOM     23  H3  UNL     1       7.429   3.115  21.323  1.00  0.00     0.219 HD
ENDBRANCH  21  22
BRANCH  21  24
HETATM   24  C16 UNL     1       7.015   2.956  18.941  1.00  0.00     0.029 C
HETATM   25  C17 UNL     1       6.112   2.130  18.101  1.00  0.00     0.023 C
HETATM   26  C18 UNL     1       7.091   1.674  16.995  1.00  0.00    -0.013 C
HETATM   27  C19 UNL     1       8.207   0.839  17.528  1.00  0.00     0.009 C
HETATM   28  C23 UNL     1       7.677   3.024  16.613  1.00  0.00     0.010 C
HETATM   29  C20 UNL     1       8.853   1.511  18.721  1.00  0.00    -0.013 C
HETATM   30  C21 UNL     1       9.368   2.876  18.319  1.00  0.00     0.010 C
HETATM   31  C24 UNL     1       7.832   1.914  19.755  1.00  0.00     0.023 C
HETATM   32  C22 UNL     1       8.031   3.564  18.001  1.00  0.00     0.003 C
ENDBRANCH  21  24
ENDBRANCH   1  21
TORSDOF 8
ENDMDL