MODEL 3
REMARK VINA RESULT: -9.463151011      1.378      1.941
REMARK  6 active torsions:
REMARK  status: ('A' for Active; 'I' for Inactive)
REMARK       I    between atoms: C2_2  and  N1_4
REMARK    1  A    between atoms: N2_7  and  C5_8
REMARK    2  A    between atoms: C5_8  and  C6_9
REMARK    3  A    between atoms: C6_9  and  C7_10
REMARK    4  A    between atoms: C7_10  and  C8_11
REMARK    5  A    between atoms: C8_11  and  N3_12
REMARK       I    between atoms: N3_12  and  C9_14
REMARK       I    between atoms: C9_14  and  N4_16
REMARK    6  A    between atoms: N4_16  and  C10_18
ROOT
HETATM    1  N3  UNL     1       3.907   5.272  20.419  1.00  0.00    -0.343 N
ATOM      2  H3  UNL     1       3.354   5.478  19.588  1.00  0.00     0.164 HD
HETATM    3  C9  UNL     1       5.196   4.727  20.227  1.00  0.00     0.316 C
HETATM    4  O2  UNL     1       5.874   4.466  21.247  1.00  0.00    -0.247 OA
HETATM    5  N4  UNL     1       5.646   4.508  18.899  1.00  0.00    -0.334 N
ATOM      6  H4  UNL     1       5.025   4.752  18.128  1.00  0.00     0.165 HD
ENDROOT
BRANCH   1   7
HETATM    7  C8  UNL     1       3.311   5.560  21.702  1.00  0.00     0.124 C
BRANCH   7   8
HETATM    8  C7  UNL     1       3.513   6.986  22.122  1.00  0.00     0.021 C
BRANCH   8   9
HETATM    9  C6  UNL     1       3.990   7.006  23.575  1.00  0.00     0.032 C
BRANCH   9  10
HETATM   10  C5  UNL     1       5.474   6.894  23.648  1.00  0.00     0.272 C
BRANCH  10  11
HETATM   11  N2  UNL     1       6.176   8.165  23.541  1.00  0.00     0.091 N
HETATM   12  C4  UNL     1       6.426   8.680  24.872  1.00  0.00     0.292 C
HETATM   13  C3  UNL     1       7.839   8.420  25.356  1.00  0.00     0.156 C
HETATM   14  N1  UNL     1       8.777   8.922  24.383  1.00  0.00    -0.349 N
HETATM   15  C2  UNL     1      10.137   9.113  24.689  1.00  0.00     0.215 C
HETATM   16  C23 UNL     1       8.281   9.230  23.066  1.00  0.00     0.156 C
HETATM   17  C1  UNL     1      10.696   8.804  26.050  1.00  0.00     0.117 C
HETATM   18  O1  UNL     1      10.980   9.551  23.858  1.00  0.00    -0.274 OA
HETATM   19  C22 UNL     1       7.335   8.079  22.709  1.00  0.00     0.292 C
ENDBRANCH  10  11
ENDBRANCH   9  10
ENDBRANCH   8   9
ENDBRANCH   7   8
ENDBRANCH   1   7
BRANCH   5  20
HETATM   20  C10 UNL     1       6.961   3.947  18.588  1.00  0.00     0.035 C
HETATM   21  C11 UNL     1       7.936   4.783  19.396  1.00  0.00     0.039 C
HETATM   22  C12 UNL     1       7.280   4.067  17.124  1.00  0.00     0.036 C
HETATM   23  C13 UNL     1       7.529   2.773  16.423  1.00  0.00    -0.007 C
HETATM   24  C14 UNL     1       8.928   2.289  16.741  1.00  0.00     0.014 C
HETATM   25  C18 UNL     1       6.567   1.677  16.752  1.00  0.00    -0.009 C
HETATM   26  C15 UNL     1       8.624   1.158  17.701  1.00  0.00    -0.043 C
HETATM   27  C16 UNL     1       9.763   0.210  17.875  1.00  0.00     0.015 C
HETATM   28  C17 UNL     1       7.487   0.488  16.960  1.00  0.00     0.014 C
HETATM   29  C21 UNL     1       8.199   1.770  19.002  1.00  0.00     0.016 C
HETATM   30  C20 UNL     1       6.928   2.500  18.991  1.00  0.00     0.014 C
HETATM   31  C19 UNL     1       5.891   1.846  18.087  1.00  0.00     0.012 C
ENDBRANCH   5  20
TORSDOF 6
ENDMDL