MODEL 1
REMARK VINA RESULT: -8.114534109      0.000      0.000
REMARK  6 active torsions:
REMARK  status: ('A' for Active; 'I' for Inactive)
REMARK    1  A    between atoms: C2_2  and  C3_3
REMARK    2  A    between atoms: C9_9  and  N1_10
REMARK    3  A    between atoms: N1_10  and  S1_12
REMARK    4  A    between atoms: S1_12  and  C10_15
REMARK    5  A    between atoms: C10_15  and  C11_16
REMARK    6  A    between atoms: C20_25  and  C21_26
ROOT
HETATM    1  C3  UNL     1       6.650   8.109  19.745  1.00  0.00    -0.024 C
HETATM    2  C4  UNL     1       5.952   8.095  21.132  1.00  0.00     0.015 C
HETATM    3  C5  UNL     1       4.540   7.768  20.700  1.00  0.00    -0.012 C
HETATM    4  C6  UNL     1       4.441   6.403  20.074  1.00  0.00     0.011 C
HETATM    5  C7  UNL     1       5.551   6.024  19.169  1.00  0.00     0.010 C
HETATM    6  C8  UNL     1       6.906   6.593  19.536  1.00  0.00     0.017 C
HETATM    7  C9  UNL     1       5.337   6.436  17.709  1.00  0.00     0.098 C
HETATM    8  C19 UNL     1       5.281   7.895  17.612  1.00  0.00     0.045 C
HETATM    9  C20 UNL     1       5.656   8.684  18.858  1.00  0.00     0.048 C
HETATM   10  C22 UNL     1       4.345   8.813  19.633  1.00  0.00     0.024 C
ENDROOT
BRANCH   7  11
HETATM   11  N1  UNL     1       4.324   5.635  17.189  1.00  0.00    -0.314 N
ATOM     12  H1  UNL     1       3.347   5.913  17.277  1.00  0.00     0.172 HD
BRANCH  11  13
HETATM   13  S1  UNL     1       4.741   4.192  16.406  1.00  0.00     0.227 S
HETATM   14  O1  UNL     1       4.403   3.093  17.406  1.00  0.00    -0.206 OA
HETATM   15  O2  UNL     1       3.835   3.956  15.232  1.00  0.00    -0.206 OA
BRANCH  13  16
HETATM   16  C10 UNL     1       6.418   4.026  15.984  1.00  0.00     0.167 C
BRANCH  16  17
HETATM   17  C11 UNL     1       7.237   3.127  16.848  1.00  0.00     0.001 C
HETATM   18  C12 UNL     1       8.015   2.096  16.070  1.00  0.00     0.006 C
HETATM   19  C13 UNL     1       8.221   0.824  16.843  1.00  0.00     0.005 C
HETATM   20  C14 UNL     1       8.932   0.994  18.134  1.00  0.00    -0.014 C
HETATM   21  C15 UNL     1       8.101   1.685  19.205  1.00  0.00     0.009 C
HETATM   22  C17 UNL     1       9.858   2.188  18.176  1.00  0.00     0.009 C
HETATM   23  C16 UNL     1       8.750   2.960  18.837  1.00  0.00    -0.013 C
HETATM   24  C18 UNL     1       8.004   3.846  17.890  1.00  0.00     0.010 C
ENDBRANCH  16  17
ENDBRANCH  13  16
ENDBRANCH  11  13
ENDBRANCH   7  11
BRANCH   9  25
HETATM   25  C21 UNL     1       5.976  10.045  18.351  1.00  0.00     0.240 C
HETATM   26  N2  UNL     1       6.416  10.186  16.973  1.00  0.00    -0.061 NA
HETATM   27  O3  UNL     1       5.917  11.115  18.974  1.00  0.00    -0.276 OA
ENDBRANCH   9  25
BRANCH   1  28
HETATM   28  C2  UNL     1       7.993   8.745  19.879  1.00  0.00     0.006 C
HETATM   29  C1  UNL     1       8.342   8.746  21.373  1.00  0.00     0.006 C
ENDBRANCH   1  28
TORSDOF 6
ENDMDL