MODEL 2
REMARK VINA RESULT: -8.061588530      1.467      1.624
REMARK  10 active torsions:
REMARK  status: ('A' for Active; 'I' for Inactive)
REMARK    1  A    between atoms: C2_2  and  C3_3
REMARK    2  A    between atoms: C3_3  and  C4_4
REMARK    3  A    between atoms: C4_4  and  C5_5
REMARK    4  A    between atoms: C5_5  and  C6_6
REMARK       I    between atoms: C6_6  and  N1_8
REMARK    5  A    between atoms: N1_8  and  C7_9
REMARK    6  A    between atoms: C7_9  and  C8_10
REMARK    7  A    between atoms: C18_20  and  O2_21
REMARK    8  A    between atoms: N2_24  and  C20_25
REMARK    9  A    between atoms: C20_25  and  O3_26
REMARK   10  A    between atoms: C20_25  and  N3_28
ROOT
HETATM    1  C8  UNL     1       5.802   7.588  20.315  1.00  0.00     0.078 C
HETATM    2  C9  UNL     1       6.620   8.867  19.978  1.00  0.00     0.046 C
HETATM    3  C10 UNL     1       4.376   7.894  20.004  1.00  0.00     0.044 C
HETATM    4  C11 UNL     1       3.580   7.476  21.198  1.00  0.00     0.013 C
HETATM    5  C12 UNL     1       2.698   6.293  20.842  1.00  0.00     0.012 C
HETATM    6  C13 UNL     1       4.524   7.315  22.310  1.00  0.00     0.043 C
HETATM    7  C14 UNL     1       4.307   6.026  23.070  1.00  0.00     0.032 C
HETATM    8  C15 UNL     1       2.972   5.940  23.729  1.00  0.00     0.009 C
HETATM    9  C16 UNL     1       2.381   7.264  24.176  1.00  0.00     0.010 C
HETATM   10  C17 UNL     1       1.596   7.073  25.478  1.00  0.00     0.012 C
HETATM   11  C18 UNL     1       3.528   8.166  24.495  1.00  0.00     0.124 C
HETATM   12  C19 UNL     1       4.319   8.469  23.277  1.00  0.00     0.063 C
HETATM   13  N2  UNL     1       5.868   7.399  21.751  1.00  0.00    -0.323 N
ENDROOT
BRANCH   1  14
HETATM   14  C7  UNL     1       6.344   6.515  19.471  1.00  0.00     0.190 C
BRANCH  14  15
HETATM   15  N1  UNL     1       6.044   5.176  19.796  1.00  0.00    -0.385 NA
HETATM   16  C6  UNL     1       5.754   3.910  20.103  1.00  0.00     0.290 C
HETATM   17  O1  UNL     1       4.654   3.354  20.089  1.00  0.00    -0.257 OA
BRANCH  16  18
HETATM   18  C5  UNL     1       6.884   2.927  20.524  1.00  0.00     0.119 C
BRANCH  18  19
HETATM   19  C4  UNL     1       7.511   2.293  19.343  1.00  0.00     0.014 C
BRANCH  19  20
HETATM   20  C3  UNL     1       8.604   2.976  18.627  1.00  0.00     0.027 C
BRANCH  20  21
HETATM   21  C2  UNL     1       9.749   2.058  18.241  1.00  0.00    -0.037 C
HETATM   22  C1  UNL     1       9.592   0.775  18.299  1.00  0.00     0.007 C
ENDBRANCH  20  21
ENDBRANCH  19  20
ENDBRANCH  18  19
ENDBRANCH  16  18
ENDBRANCH  14  15
ENDBRANCH   1  14
BRANCH  13  23
HETATM   23  C20 UNL     1       7.081   7.315  22.465  1.00  0.00     0.218 C
BRANCH  23  24
HETATM   24  O3  UNL     1       7.615   6.091  22.295  1.00  0.00    -0.332 OA
ATOM     25  H3  UNL     1       7.530   5.834  21.385  1.00  0.00     0.220 HD
ENDBRANCH  23  24
BRANCH  23  26
HETATM   26  N3  UNL     1       7.830   8.157  23.272  1.00  0.00    -0.347 N
HETATM   27  C21 UNL     1       8.660   9.302  23.521  1.00  0.00     0.128 C
HETATM   28  C22 UNL     1       9.224   8.670  24.785  1.00  0.00     0.040 C
HETATM   29  C23 UNL     1       7.912   7.977  24.792  1.00  0.00     0.128 C
ENDBRANCH  23  26
ENDBRANCH  13  23
BRANCH  11  30
HETATM   30  O2  UNL     1       3.014   9.406  24.966  1.00  0.00    -0.395 OA
ATOM     31  H2  UNL     1       2.481   9.793  24.282  1.00  0.00     0.210 HD
ENDBRANCH  11  30
TORSDOF 10
ENDMDL