MODEL 1
REMARK VINA RESULT: -9.979642214      0.000      0.000
REMARK  6 active torsions:
REMARK  status: ('A' for Active; 'I' for Inactive)
REMARK       I    between atoms: C1_2  and  N1_3
REMARK    1  A    between atoms: C1_2  and  C8_14
REMARK    2  A    between atoms: N1_3  and  C2_5
REMARK    3  A    between atoms: C2_5  and  C3_6
REMARK       I    between atoms: N3_17  and  C11_18
REMARK    4  A    between atoms: C11_18  and  C12_20
REMARK    5  A    between atoms: C12_20  and  C13_21
REMARK    6  A    between atoms: C13_21  and  C14_22
ROOT
HETATM    1  C8  UNL     1       4.330   7.108  22.715  1.00  0.00     0.097 C
HETATM    2  C9  UNL     1       5.326   6.880  21.619  1.00  0.00     0.035 C
HETATM    3  C10 UNL     1       4.787   5.658  20.913  1.00  0.00     0.127 C
HETATM    4  N3  UNL     1       4.277   4.872  22.047  1.00  0.00    -0.351 N
HETATM    5  C11 UNL     1       4.296   3.473  22.097  1.00  0.00     0.219 C
HETATM    6  O2  UNL     1       3.827   2.875  23.109  1.00  0.00    -0.273 OA
HETATM    7  C24 UNL     1       3.788   5.754  23.051  1.00  0.00     0.139 C
ENDROOT
BRANCH   5   8
HETATM    8  C12 UNL     1       4.872   2.689  20.955  1.00  0.00     0.103 C
BRANCH   8   9
HETATM    9  C13 UNL     1       6.374   2.602  21.100  1.00  0.00     0.018 C
BRANCH   9  10
HETATM   10  C14 UNL     1       7.085   2.625  19.783  1.00  0.00    -0.039 C
HETATM   11  C15 UNL     1       8.080   1.471  19.726  1.00  0.00     0.014 C
HETATM   12  C16 UNL     1       8.667   1.338  18.352  1.00  0.00    -0.013 C
HETATM   13  C17 UNL     1       9.430   2.603  18.055  1.00  0.00     0.009 C
HETATM   14  C21 UNL     1       7.554   1.097  17.361  1.00  0.00     0.009 C
HETATM   15  C18 UNL     1       8.447   3.751  18.113  1.00  0.00    -0.013 C
HETATM   16  C19 UNL     1       7.411   3.560  17.035  1.00  0.00     0.009 C
HETATM   17  C23 UNL     1       7.829   3.884  19.491  1.00  0.00     0.014 C
HETATM   18  C20 UNL     1       6.650   2.301  17.339  1.00  0.00    -0.013 C
HETATM   19  C22 UNL     1       6.021   2.432  18.703  1.00  0.00     0.014 C
ENDBRANCH   9  10
ENDBRANCH   8   9
ENDBRANCH   5   8
BRANCH   1  20
HETATM   20  C1  UNL     1       5.147   7.568  23.906  1.00  0.00     0.223 C
HETATM   21  O1  UNL     1       4.830   7.053  24.991  1.00  0.00    -0.273 OA
HETATM   22  N1  UNL     1       6.165   8.500  23.739  1.00  0.00    -0.359 N
ATOM     23  H1  UNL     1       6.264   8.817  22.775  1.00  0.00     0.162 HD
BRANCH  22  24
HETATM   24  C2  UNL     1       7.093   9.105  24.620  1.00  0.00     0.155 C
BRANCH  24  25
HETATM   25  C3  UNL     1       8.443   8.524  24.814  1.00  0.00     0.203 C
HETATM   26  C4  UNL     1       8.714   7.886  26.091  1.00  0.00     0.035 C
HETATM   27  C5  UNL     1      10.202   7.734  26.416  1.00  0.00     0.004 C
HETATM   28  C6  UNL     1      10.991   8.945  26.045  1.00  0.00     0.027 C
HETATM   29  C7  UNL     1      10.748   9.169  24.546  1.00  0.00     0.233 C
HETATM   30  N2  UNL     1       9.390   9.543  24.404  1.00  0.00    -0.069 N
ATOM     31  H22 UNL     1       9.200   9.840  23.447  1.00  0.00     0.277 HD
ATOM     32  H21 UNL     1       9.208  10.417  24.897  1.00  0.00     0.277 HD
ENDBRANCH  24  25
ENDBRANCH  22  24
ENDBRANCH   1  20
TORSDOF 6
ENDMDL