MODEL 2
REMARK VINA RESULT: -9.062938317      1.194      1.721
REMARK  6 active torsions:
REMARK  status: ('A' for Active; 'I' for Inactive)
REMARK    1  A    between atoms: C3_3  and  N1_4
REMARK       I    between atoms: N1_4  and  C4_6
REMARK    2  A    between atoms: C4_6  and  C5_8
REMARK    3  A    between atoms: C12_15  and  C13_16
REMARK       I    between atoms: C13_16  and  N2_18
REMARK    4  A    between atoms: N2_18  and  C14_20
REMARK    5  A    between atoms: C14_20  and  C15_21
REMARK    6  A    between atoms: C15_21  and  N3_22
ROOT
HETATM    1  C1  UNL     1       6.516   3.908  16.226  1.00  0.00     0.015 C
HETATM    2  C2  UNL     1       6.996   3.411  17.205  1.00  0.00    -0.086 C
HETATM    3  C3  UNL     1       7.588   2.775  18.406  1.00  0.00     0.095 C
HETATM    4  C21 UNL     1       7.672   1.298  18.216  1.00  0.00     0.044 C
HETATM    5  C22 UNL     1       9.094   0.967  18.613  1.00  0.00     0.004 C
HETATM    6  C23 UNL     1       9.851   2.172  18.097  1.00  0.00     0.004 C
HETATM    7  C24 UNL     1       8.975   3.301  18.657  1.00  0.00     0.044 C
ENDROOT
BRANCH   3   8
HETATM    8  N1  UNL     1       6.719   3.051  19.533  1.00  0.00    -0.341 N
HETATM    9  C4  UNL     1       6.544   4.345  20.051  1.00  0.00     0.224 C
HETATM   10  O1  UNL     1       7.172   5.290  19.508  1.00  0.00    -0.273 OA
ATOM     11  H1  UNL     1       6.215   2.277  19.966  1.00  0.00     0.164 HD
BRANCH   9  12
HETATM   12  C5  UNL     1       5.653   4.628  21.204  1.00  0.00     0.095 C
HETATM   13  C6  UNL     1       4.798   3.411  21.507  1.00  0.00    -0.001 C
HETATM   14  C7  UNL     1       3.702   3.307  20.487  1.00  0.00     0.006 C
HETATM   15  C11 UNL     1       4.162   3.590  22.867  1.00  0.00     0.006 C
HETATM   16  C8  UNL     1       2.680   4.433  20.665  1.00  0.00     0.006 C
HETATM   17  C9  UNL     1       3.353   5.480  21.520  1.00  0.00    -0.001 C
HETATM   18  C10 UNL     1       3.442   4.907  22.926  1.00  0.00     0.006 C
HETATM   19  C12 UNL     1       4.759   5.805  21.002  1.00  0.00     0.095 C
BRANCH  19  20
HETATM   20  C13 UNL     1       5.203   6.995  21.781  1.00  0.00     0.223 C
HETATM   21  O2  UNL     1       4.520   8.053  21.759  1.00  0.00    -0.273 OA
HETATM   22  N2  UNL     1       6.387   6.997  22.564  1.00  0.00    -0.359 N
ATOM     23  H2  UNL     1       6.945   6.144  22.586  1.00  0.00     0.162 HD
BRANCH  22  24
HETATM   24  C14 UNL     1       6.846   8.114  23.324  1.00  0.00     0.152 C
BRANCH  24  25
HETATM   25  C15 UNL     1       7.162   7.666  24.729  1.00  0.00     0.292 C
BRANCH  25  26
HETATM   26  N3  UNL     1       8.319   8.413  25.222  1.00  0.00     0.090 N
HETATM   27  C16 UNL     1       9.260   8.665  24.148  1.00  0.00     0.272 C
HETATM   28  C17 UNL     1      10.222   9.724  24.642  1.00  0.00     0.030 C
HETATM   29  C18 UNL     1      10.894   9.285  25.932  1.00  0.00     0.003 C
HETATM   30  C19 UNL     1      10.450   7.912  26.348  1.00  0.00     0.030 C
HETATM   31  C20 UNL     1       8.953   7.741  26.340  1.00  0.00     0.272 C
ENDBRANCH  25  26
ENDBRANCH  24  25
ENDBRANCH  22  24
ENDBRANCH  19  20
ENDBRANCH   9  12
ENDBRANCH   3   8
TORSDOF 6
ENDMDL