MODEL 4
REMARK VINA RESULT: -7.773761307      2.312      7.148
REMARK  6 active torsions:
REMARK  status: ('A' for Active; 'I' for Inactive)
REMARK    1  A    between atoms: C3_3  and  N1_4
REMARK       I    between atoms: N1_4  and  C4_6
REMARK    2  A    between atoms: C4_6  and  C5_8
REMARK    3  A    between atoms: C5_8  and  C6_9
REMARK    4  A    between atoms: C6_9  and  N2_10
REMARK    5  A    between atoms: C12_16  and  N3_17
REMARK       I    between atoms: N3_17  and  C13_19
REMARK    6  A    between atoms: C13_19  and  C14_21
ROOT
HETATM    1  C1  UNL     1       9.367   9.097  24.227  1.00  0.00     0.014 C
HETATM    2  C2  UNL     1       8.497   8.495  24.765  1.00  0.00    -0.098 C
HETATM    3  C3  UNL     1       7.444   7.748  25.409  1.00  0.00     0.216 C
ENDROOT
BRANCH   3   4
HETATM    4  N1  UNL     1       6.399   7.331  24.489  1.00  0.00    -0.350 N
HETATM    5  C4  UNL     1       5.219   8.097  24.342  1.00  0.00     0.232 C
HETATM    6  O1  UNL     1       5.122   9.164  25.048  1.00  0.00    -0.272 OA
ATOM      7  H1  UNL     1       6.518   6.477  23.943  1.00  0.00     0.163 HD
BRANCH   5   8
HETATM    8  C5  UNL     1       4.083   7.765  23.436  1.00  0.00     0.076 C
HETATM    9  C19 UNL     1       3.565   9.078  22.897  1.00  0.00     0.025 C
HETATM   10  C20 UNL     1       2.236   8.599  22.301  1.00  0.00     0.007 C
HETATM   11  C21 UNL     1       1.668   7.818  23.466  1.00  0.00    -0.009 C
HETATM   12  C22 UNL     1       0.967   6.556  23.075  1.00  0.00     0.005 C
HETATM   13  C25 UNL     1       2.866   7.412  24.295  1.00  0.00     0.012 C
HETATM   14  C23 UNL     1       1.621   5.406  23.809  1.00  0.00     0.001 C
HETATM   15  C24 UNL     1       2.711   6.014  24.682  1.00  0.00     0.006 C
BRANCH   8  16
HETATM   16  C6  UNL     1       4.385   6.708  22.451  1.00  0.00     0.079 C
BRANCH  16  17
HETATM   17  N2  UNL     1       4.720   7.020  21.151  1.00  0.00    -0.383 N
HETATM   18  C7  UNL     1       4.542   6.234  20.030  1.00  0.00     0.086 C
HETATM   19  C8  UNL     1       4.983   7.208  18.903  1.00  0.00     0.027 C
HETATM   20  C18 UNL     1       5.499   5.067  19.895  1.00  0.00     0.050 C
HETATM   21  C9  UNL     1       5.952   8.120  19.573  1.00  0.00     0.027 C
HETATM   22  C10 UNL     1       6.056   7.587  20.984  1.00  0.00     0.086 C
HETATM   23  C11 UNL     1       7.111   6.479  21.056  1.00  0.00     0.050 C
HETATM   24  C12 UNL     1       6.902   5.610  19.841  1.00  0.00     0.088 C
BRANCH  24  25
HETATM   25  N3  UNL     1       7.808   4.495  19.774  1.00  0.00    -0.356 N
HETATM   26  C13 UNL     1       8.169   3.855  18.559  1.00  0.00     0.222 C
HETATM   27  O2  UNL     1       7.646   4.319  17.495  1.00  0.00    -0.273 OA
ATOM     28  H3  UNL     1       8.211   4.146  20.643  1.00  0.00     0.162 HD
BRANCH  26  29
HETATM   29  C14 UNL     1       9.081   2.723  18.430  1.00  0.00     0.078 C
HETATM   30  C15 UNL     1       9.142   2.058  17.070  1.00  0.00     0.014 C
HETATM   31  C16 UNL     1       9.381   0.746  17.832  1.00  0.00     0.002 C
HETATM   32  C17 UNL     1       8.563   1.386  18.965  1.00  0.00     0.014 C
ENDBRANCH  26  29
ENDBRANCH  24  25
ENDBRANCH  16  17
ENDBRANCH   8  16
ENDBRANCH   5   8
ENDBRANCH   3   4
TORSDOF 6
ENDMDL