MODEL 1
REMARK VINA RESULT: -7.429784030      0.000      0.000
REMARK  7 active torsions:
REMARK  status: ('A' for Active; 'I' for Inactive)
REMARK    1  A    between atoms: C2_2  and  C3_3
REMARK    2  A    between atoms: C3_3  and  N1_4
REMARK       I    between atoms: N1_4  and  C4_6
REMARK    3  A    between atoms: C4_6  and  C5_8
REMARK    4  A    between atoms: C6_9  and  C7_10
REMARK    5  A    between atoms: C14_20  and  C15_21
REMARK    6  A    between atoms: C16_22  and  C17_23
REMARK    7  A    between atoms: C18_24  and  C19_25
ROOT
HETATM    1  C5  UNL     1       5.121   5.459  21.805  1.00  0.00     0.099 C
HETATM    2  C6  UNL     1       3.842   5.729  22.599  1.00  0.00     0.089 C
HETATM    3  C8  UNL     1       2.781   5.824  21.553  1.00  0.00     0.020 C
HETATM    4  C9  UNL     1       3.206   4.701  20.593  1.00  0.00     0.001 C
HETATM    5  C10 UNL     1       2.715   3.431  21.166  1.00  0.00     0.009 C
HETATM    6  C11 UNL     1       1.536   2.851  20.371  1.00  0.00     0.084 C
HETATM    7  C12 UNL     1       2.262   1.536  20.248  1.00  0.00     0.132 C
HETATM    8  O3  UNL     1       2.018   0.417  19.882  1.00  0.00    -0.298 OA
HETATM    9  C13 UNL     1       3.454   2.206  20.782  1.00  0.00     0.068 C
HETATM   10  C14 UNL     1       4.524   2.434  19.746  1.00  0.00     0.025 C
HETATM   11  C22 UNL     1       5.416   3.582  20.140  1.00  0.00    -0.001 C
HETATM   12  C23 UNL     1       6.334   3.047  21.237  1.00  0.00     0.011 C
HETATM   13  C24 UNL     1       4.706   4.845  20.508  1.00  0.00    -0.023 C
HETATM   14  C25 UNL     1       4.929   5.814  19.335  1.00  0.00     0.017 C
ENDROOT
BRANCH   1  15
HETATM   15  C4  UNL     1       5.993   6.629  21.728  1.00  0.00     0.223 C
HETATM   16  N1  UNL     1       7.199   6.810  22.453  1.00  0.00    -0.357 N
ATOM     17  H1  UNL     1       7.504   6.073  23.088  1.00  0.00     0.162 HD
HETATM   18  O1  UNL     1       5.690   7.608  20.957  1.00  0.00    -0.273 OA
BRANCH  16  19
HETATM   19  C3  UNL     1       8.017   8.004  22.325  1.00  0.00     0.149 C
BRANCH  19  20
HETATM   20  C2  UNL     1       8.115   8.770  23.579  1.00  0.00    -0.018 C
HETATM   21  C1  UNL     1       8.186   8.116  24.723  1.00  0.00     0.008 C
ENDBRANCH  19  20
ENDBRANCH  16  19
ENDBRANCH   1  15
BRANCH   2  22
HETATM   22  C7  UNL     1       3.941   6.872  23.486  1.00  0.00     0.236 C
HETATM   23  N2  UNL     1       4.744   6.817  24.648  1.00  0.00    -0.062 NA
HETATM   24  O2  UNL     1       3.317   7.927  23.240  1.00  0.00    -0.276 OA
ENDBRANCH   2  22
BRANCH  10  25
HETATM   25  C15 UNL     1       4.007   2.505  18.377  1.00  0.00    -0.012 C
HETATM   26  C16 UNL     1       4.727   2.158  17.322  1.00  0.00     0.061 C
BRANCH  26  27
HETATM   27  C17 UNL     1       6.071   1.693  17.519  1.00  0.00    -0.074 C
HETATM   28  C18 UNL     1       7.219   1.314  17.695  1.00  0.00    -0.074 C
BRANCH  28  29
HETATM   29  C19 UNL     1       8.570   0.894  17.892  1.00  0.00     0.060 C
HETATM   30  C20 UNL     1       9.480   1.737  18.292  1.00  0.00    -0.022 C
HETATM   31  C21 UNL     1       9.125   3.145  18.548  1.00  0.00     0.036 C
ENDBRANCH  28  29
ENDBRANCH  26  27
ENDBRANCH  10  25
TORSDOF 7
ENDMDL