MODEL 5
REMARK VINA RESULT: -8.431576344      1.469      1.982
REMARK  6 active torsions:
REMARK  status: ('A' for Active; 'I' for Inactive)
REMARK    1  A    between atoms: C2_2  and  C3_4
REMARK    2  A    between atoms: C5_9  and  C6_10
REMARK    3  A    between atoms: C6_10  and  N2_11
REMARK    4  A    between atoms: C10_15  and  C11_16
REMARK    5  A    between atoms: C11_16  and  C12_17
REMARK       I    between atoms: C12_17  and  N3_19
REMARK    6  A    between atoms: N3_19  and  C13_21
ROOT
HETATM    1  C3  UNL     1       7.112   8.491  24.224  1.00  0.00     0.159 C
HETATM    2  N1  UNL     1       6.053   7.860  25.027  1.00  0.00    -0.349 N
ATOM      3  H1  UNL     1       5.895   8.009  26.023  1.00  0.00     0.163 HD
HETATM    4  C4  UNL     1       5.271   6.990  24.165  1.00  0.00     0.229 C
HETATM    5  O2  UNL     1       4.527   6.120  24.664  1.00  0.00    -0.273 OA
HETATM    6  C5  UNL     1       5.619   7.428  22.833  1.00  0.00     0.073 C
HETATM    7  C9  UNL     1       5.725   6.375  21.770  1.00  0.00     0.026 C
HETATM    8  C10 UNL     1       6.917   6.825  20.949  1.00  0.00    -0.004 C
HETATM    9  C23 UNL     1       7.534   8.003  21.726  1.00  0.00     0.013 C
HETATM   10  C24 UNL     1       7.121   7.627  23.064  1.00  0.00     0.036 C
ENDROOT
BRANCH   8  11
HETATM   11  C11 UNL     1       6.588   7.186  19.553  1.00  0.00     0.107 C
BRANCH  11  12
HETATM   12  C12 UNL     1       6.703   5.974  18.682  1.00  0.00     0.218 C
HETATM   13  O3  UNL     1       6.200   6.001  17.541  1.00  0.00    -0.274 OA
HETATM   14  N3  UNL     1       7.361   4.803  19.112  1.00  0.00    -0.352 N
ATOM     15  H3  UNL     1       7.764   4.804  20.049  1.00  0.00     0.163 HD
BRANCH  14  16
HETATM   16  C13 UNL     1       7.507   3.609  18.325  1.00  0.00     0.034 C
HETATM   17  C14 UNL     1       7.052   3.837  16.888  1.00  0.00     0.035 C
HETATM   18  C15 UNL     1       7.453   2.657  16.039  1.00  0.00    -0.012 C
HETATM   19  C16 UNL     1       6.696   1.451  16.552  1.00  0.00     0.009 C
HETATM   20  C20 UNL     1       8.918   2.362  16.079  1.00  0.00     0.009 C
HETATM   21  C17 UNL     1       7.036   1.229  18.010  1.00  0.00    -0.012 C
HETATM   22  C18 UNL     1       8.508   0.864  18.060  1.00  0.00     0.009 C
HETATM   23  C22 UNL     1       6.696   2.438  18.834  1.00  0.00     0.035 C
HETATM   24  C19 UNL     1       9.277   2.033  17.507  1.00  0.00    -0.012 C
HETATM   25  C21 UNL     1       8.978   3.228  18.363  1.00  0.00     0.035 C
ENDBRANCH  14  16
ENDBRANCH  11  12
ENDBRANCH   8  11
BRANCH   6  26
HETATM   26  C6  UNL     1       4.889   8.637  22.422  1.00  0.00     0.290 C
BRANCH  26  27
HETATM   27  N2  UNL     1       3.490   8.549  22.442  1.00  0.00     0.081 N
HETATM   28  C7  UNL     1       2.719   9.359  23.297  1.00  0.00     0.309 C
HETATM   29  C8  UNL     1       2.972   8.613  21.092  1.00  0.00     0.309 C
ENDBRANCH  26  27
ENDBRANCH   6  26
BRANCH   1  30
HETATM   30  C2  UNL     1       8.436   8.330  24.947  1.00  0.00     0.146 C
HETATM   31  C1  UNL     1       9.478   9.309  24.599  1.00  0.00     0.093 C
HETATM   32  O1  UNL     1       8.616   7.443  25.762  1.00  0.00    -0.296 OA
ENDBRANCH   1  30
TORSDOF 6
ENDMDL