MODEL 3
REMARK VINA RESULT: -8.709234501      1.024      1.069
REMARK  6 active torsions:
REMARK  status: ('A' for Active; 'I' for Inactive)
REMARK       I    between atoms: C1_2  and  N1_3
REMARK    1  A    between atoms: C1_2  and  C10_16
REMARK    2  A    between atoms: N1_3  and  C2_5
REMARK    3  A    between atoms: C2_5  and  C3_6
REMARK       I    between atoms: C3_6  and  N2_8
REMARK    4  A    between atoms: N2_8  and  C4_10
REMARK    5  A    between atoms: C4_10  and  C5_11
REMARK       I    between atoms: N3_23  and  C17_24
REMARK    6  A    between atoms: C17_24  and  C18_26
ROOT
HETATM    1  C10 UNL     1       6.219   5.902  20.179  1.00  0.00     0.082 C
HETATM    2  C11 UNL     1       5.006   6.057  19.289  1.00  0.00     0.039 C
HETATM    3  C12 UNL     1       4.555   4.731  18.714  1.00  0.00     0.088 C
HETATM    4  C13 UNL     1       3.730   4.037  19.752  1.00  0.00     0.027 C
HETATM    5  C14 UNL     1       4.589   2.889  20.238  1.00  0.00     0.027 C
HETATM    6  C15 UNL     1       5.995   3.422  19.913  1.00  0.00     0.088 C
HETATM    7  C16 UNL     1       6.230   4.563  20.883  1.00  0.00     0.039 C
HETATM    8  N3  UNL     1       5.775   3.920  18.566  1.00  0.00    -0.342 N
HETATM    9  C17 UNL     1       6.484   3.724  17.369  1.00  0.00     0.224 C
HETATM   10  O3  UNL     1       6.034   4.283  16.313  1.00  0.00    -0.273 OA
ENDROOT
BRANCH   1  11
HETATM   11  C1  UNL     1       6.218   6.951  21.227  1.00  0.00     0.223 C
HETATM   12  O1  UNL     1       5.646   8.038  20.973  1.00  0.00    -0.273 OA
HETATM   13  N1  UNL     1       6.836   6.749  22.475  1.00  0.00    -0.343 N
ATOM     14  H1  UNL     1       7.290   5.847  22.620  1.00  0.00     0.163 HD
BRANCH  13  15
HETATM   15  C2  UNL     1       6.894   7.681  23.564  1.00  0.00     0.114 A
HETATM   16  C8  UNL     1       7.749   8.905  23.451  1.00  0.00     0.044 A
HETATM   17  C9  UNL     1       8.199   7.784  24.315  1.00  0.00     0.044 A
BRANCH  15  18
HETATM   18  C3  UNL     1       5.643   7.873  24.319  1.00  0.00     0.246 C
HETATM   19  O2  UNL     1       5.082   6.831  24.792  1.00  0.00    -0.271 OA
HETATM   20  N2  UNL     1       5.072   9.137  24.521  1.00  0.00    -0.359 N
ATOM     21  H2  UNL     1       5.525   9.965  24.132  1.00  0.00     0.162 HD
BRANCH  20  22
HETATM   22  C4  UNL     1       3.846   9.279  25.276  1.00  0.00     0.127 C
BRANCH  22  23
HETATM   23  C5  UNL     1       2.673   9.256  24.324  1.00  0.00     0.003 A
HETATM   24  C6  UNL     1       1.305   9.512  24.846  1.00  0.00     0.007 A
HETATM   25  C7  UNL     1       1.681   8.094  24.610  1.00  0.00     0.007 A
ENDBRANCH  22  23
ENDBRANCH  20  22
ENDBRANCH  15  18
ENDBRANCH  13  15
ENDBRANCH   1  11
BRANCH   9  26
HETATM   26  C18 UNL     1       7.705   2.926  17.231  1.00  0.00     0.078 C
HETATM   27  C19 UNL     1       7.346   1.464  17.348  1.00  0.00     0.014 C
HETATM   28  C20 UNL     1       8.568   0.565  17.357  1.00  0.00     0.001 C
HETATM   29  C21 UNL     1       9.468   0.914  18.519  1.00  0.00     0.000 C
HETATM   30  C22 UNL     1       9.901   2.367  18.293  1.00  0.00     0.001 C
HETATM   31  C23 UNL     1       8.687   3.236  18.327  1.00  0.00     0.014 C
ENDBRANCH   9  26
TORSDOF 6
ENDMDL