MODEL 3
REMARK VINA RESULT: -9.114479851      1.036      1.086
REMARK  14 active torsions:
REMARK  status: ('A' for Active; 'I' for Inactive)
REMARK    1  A    between atoms: C5_7  and  C6_8
REMARK    2  A    between atoms: C6_8  and  O1_9
REMARK    3  A    between atoms: C6_8  and  N2_11
REMARK    4  A    between atoms: C12_17  and  C13_18
REMARK       I    between atoms: C13_18  and  N3_20
REMARK    5  A    between atoms: N3_20  and  C14_22
REMARK    6  A    between atoms: C14_22  and  C15_23
REMARK    7  A    between atoms: C14_22  and  C19_31
REMARK    8  A    between atoms: C15_23  and  C16_24
REMARK    9  A    between atoms: C16_24  and  C17_25
REMARK   10  A    between atoms: C17_25  and  N4_26
REMARK   11  A    between atoms: N7_34  and  C20_35
REMARK   12  A    between atoms: C20_35  and  C21_36
REMARK   13  A    between atoms: C21_36  and  C22_37
REMARK   14  A    between atoms: C26_41  and  C27_42
ROOT
HETATM    1  C27 UNL     1      11.736  25.360   7.855  1.00  0.00     0.133 C
HETATM    2  C28 UNL     1      11.792  26.432   8.825  1.00  0.00     0.059 C
HETATM    3  N8  UNL     1      11.863  27.286   9.602  1.00  0.00    -0.197 NA
ENDROOT
BRANCH   1   4
HETATM    4  C26 UNL     1      10.357  25.083   7.291  1.00  0.00     0.035 C
HETATM    5  C4  UNL     1      10.238  25.236   5.840  1.00  0.00    -0.014 A
HETATM    6  C3  UNL     1       9.711  26.346   5.248  1.00  0.00     0.017 A
HETATM    7  C5  UNL     1      10.636  24.385   4.744  1.00  0.00     0.045 A
HETATM    8  N1  UNL     1       9.755  26.247   3.924  1.00  0.00    -0.362 N
HETATM    9  C31 UNL     1       9.157  27.440   6.096  1.00  0.00     0.057 C
HETATM   10  C2  UNL     1      10.312  25.061   3.591  1.00  0.00     0.020 A
ATOM     11  H1  UNL     1       9.422  26.951   3.266  1.00  0.00     0.165 HD
HETATM   12  C1  UNL     1      10.404  24.612   2.151  1.00  0.00     0.069 C
HETATM   13  C30 UNL     1       8.485  26.800   7.261  1.00  0.00     0.007 C
HETATM   14  C29 UNL     1       9.342  25.908   8.064  1.00  0.00     0.011 C
BRANCH   7  15
HETATM   15  C6  UNL     1      11.370  23.169   4.922  1.00  0.00     0.151 C
BRANCH  15  16
HETATM   16  O1  UNL     1      10.682  22.102   4.469  1.00  0.00    -0.345 OA
ATOM     17  H1  UNL     1      11.255  21.462   4.064  1.00  0.00     0.219 HD
ENDBRANCH  15  16
BRANCH  15  18
HETATM   18  N2  UNL     1      12.581  22.731   5.431  1.00  0.00    -0.360 N
HETATM   19  C7  UNL     1      13.354  23.038   6.595  1.00  0.00     0.131 C
HETATM   20  C8  UNL     1      14.620  23.739   6.198  1.00  0.00     0.022 C
HETATM   21  C9  UNL     1      14.827  23.656   4.673  1.00  0.00     0.016 C
HETATM   22  C25 UNL     1      15.800  22.944   6.785  1.00  0.00     0.129 C
HETATM   23  C10 UNL     1      14.695  22.213   4.269  1.00  0.00     0.036 C
HETATM   24  C11 UNL     1      13.336  21.673   4.609  1.00  0.00     0.132 C
HETATM   25  C12 UNL     1      15.821  21.439   5.000  1.00  0.00     0.181 C
HETATM   26  N7  UNL     1      15.640  21.589   6.369  1.00  0.00    -0.379 N
BRANCH  25  27
HETATM   27  C13 UNL     1      15.888  20.070   4.431  1.00  0.00     0.241 C
HETATM   28  O2  UNL     1      15.198  19.097   4.804  1.00  0.00    -0.271 OA
HETATM   29  N3  UNL     1      16.809  19.806   3.365  1.00  0.00    -0.345 N
ATOM     30  H3  UNL     1      17.407  20.554   3.014  1.00  0.00     0.163 HD
BRANCH  29  31
HETATM   31  C14 UNL     1      16.896  18.469   2.778  1.00  0.00     0.185 C
BRANCH  31  32
HETATM   32  C15 UNL     1      18.272  17.942   3.069  1.00  0.00     0.038 C
BRANCH  32  33
HETATM   33  C16 UNL     1      18.233  16.827   4.043  1.00  0.00     0.022 C
BRANCH  33  34
HETATM   34  C17 UNL     1      19.581  16.625   4.731  1.00  0.00     0.122 C
BRANCH  34  35
HETATM   35  N4  UNL     1      19.714  17.445   5.911  1.00  0.00    -0.367 N
HETATM   36  C18 UNL     1      19.357  17.062   7.093  1.00  0.00     0.196 C
HETATM   37  N5  UNL     1      18.789  15.787   7.377  1.00  0.00    -0.067 NA
HETATM   38  N6  UNL     1      19.549  17.983   8.158  1.00  0.00    -0.067 NA
ATOM     39  H4  UNL     1      20.112  18.379   5.806  1.00  0.00     0.161 HD
ENDBRANCH  34  35
ENDBRANCH  33  34
ENDBRANCH  32  33
ENDBRANCH  31  32
BRANCH  31  40
HETATM   40  C19 UNL     1      16.619  18.516   1.351  1.00  0.00     0.196 C
HETATM   41  O3  UNL     1      16.050  19.580   0.901  1.00  0.00    -0.646 OA
HETATM   42  O4  UNL     1      16.880  17.568   0.401  1.00  0.00    -0.646 OA
ENDBRANCH  31  40
ENDBRANCH  29  31
ENDBRANCH  25  27
BRANCH  26  43
HETATM   43  C20 UNL     1      15.876  20.575   7.297  1.00  0.00     0.059 C
BRANCH  43  44
HETATM   44  C21 UNL     1      17.074  20.627   8.172  1.00  0.00     0.049 C
BRANCH  44  45
HETATM   45  C22 UNL     1      16.813  20.881   9.634  1.00  0.00    -0.010 A
HETATM   46  C23 UNL     1      16.116  19.738  10.325  1.00  0.00     0.005 A
HETATM   47  C24 UNL     1      15.413  21.059  10.119  1.00  0.00     0.005 A
ENDBRANCH  44  45
ENDBRANCH  43  44
ENDBRANCH  26  43
ENDBRANCH  15  18
ENDBRANCH   7  15
ENDBRANCH   1   4
TORSDOF 14
ENDMDL