MODEL 4
REMARK VINA RESULT: -7.650168172      4.984     11.304
REMARK  15 active torsions:
REMARK  status: ('A' for Active; 'I' for Inactive)
REMARK    1  A    between atoms: C2_2  and  C3_3
REMARK    2  A    between atoms: C3_3  and  C4_4
REMARK    3  A    between atoms: C4_4  and  C5_5
REMARK    4  A    between atoms: C5_5  and  C6_6
REMARK    5  A    between atoms: C6_6  and  C7_7
REMARK    6  A    between atoms: C12_18  and  O3_19
REMARK    7  A    between atoms: C13_21  and  C14_22
REMARK    8  A    between atoms: C14_22  and  C15_23
REMARK    9  A    between atoms: C15_23  and  C16_24
REMARK   10  A    between atoms: C17_29  and  O6_30
REMARK   11  A    between atoms: C18_32  and  C19_33
REMARK   12  A    between atoms: C19_33  and  C20_34
REMARK   13  A    between atoms: C21_35  and  C22_36
REMARK   14  A    between atoms: C22_36  and  C23_37
REMARK   15  A    between atoms: C25_41  and  N5_42
ROOT
HETATM    1  C7  UNL     1       5.505  26.122   2.763  1.00  0.00     0.087 C
HETATM    2  N1  UNL     1       4.466  26.838   3.394  1.00  0.00    -0.281 N
ATOM      3  H1  UNL     1       4.194  27.746   3.020  1.00  0.00     0.178 HD
HETATM    4  S1  UNL     1       3.670  26.246   4.730  1.00  0.00     0.252 S
HETATM    5  O1  UNL     1       4.280  25.001   5.370  1.00  0.00    -0.203 OA
HETATM    6  O2  UNL     1       2.376  25.608   4.139  1.00  0.00    -0.203 OA
HETATM    7  C8  UNL     1       3.075  27.377   5.855  1.00  0.00     0.230 C
HETATM    8  C9  UNL     1       2.414  26.633   7.039  1.00  0.00     0.045 C
HETATM    9  C10 UNL     1       1.913  27.813   7.831  1.00  0.00     0.023 C
HETATM   10  C11 UNL     1       2.669  28.989   7.261  1.00  0.00     0.127 C
HETATM   11  N2  UNL     1       3.831  28.363   6.539  1.00  0.00    -0.341 N
HETATM   12  C12 UNL     1       5.142  28.774   6.605  1.00  0.00     0.162 C
HETATM   13  C13 UNL     1       6.470  28.142   6.616  1.00  0.00     0.062 C
HETATM   14  N3  UNL     1       7.138  28.230   5.327  1.00  0.00    -0.339 N
ATOM     15  H3  UNL     1       6.774  28.982   4.741  1.00  0.00     0.167 HD
HETATM   16  C17 UNL     1       8.147  27.525   4.727  1.00  0.00     0.139 C
HETATM   17  C18 UNL     1       8.301  26.117   4.329  1.00  0.00     0.163 C
HETATM   18  N7  UNL     1       7.178  25.262   4.428  1.00  0.00    -0.344 N
ATOM     19  H7  UNL     1       7.108  24.738   5.300  1.00  0.00     0.163 HD
HETATM   20  C26 UNL     1       6.140  25.026   3.500  1.00  0.00     0.265 C
HETATM   21  O7  UNL     1       5.784  23.796   3.336  1.00  0.00    -0.266 OA
ENDROOT
BRANCH  17  22
HETATM   22  C19 UNL     1       9.509  25.421   4.988  1.00  0.00     0.060 C
BRANCH  22  23
HETATM   23  C20 UNL     1      10.012  24.277   4.244  1.00  0.00    -0.028 C
HETATM   24  C21 UNL     1      10.822  23.380   4.756  1.00  0.00    -0.025 C
BRANCH  24  25
HETATM   25  C22 UNL     1      11.348  23.368   6.125  1.00  0.00     0.086 C
BRANCH  25  26
HETATM   26  C23 UNL     1      12.826  23.541   6.108  1.00  0.00     0.046 A
HETATM   27  C24 UNL     1      13.656  23.610   7.184  1.00  0.00     0.132 A
HETATM   28  N4  UNL     1      14.926  23.770   6.719  1.00  0.00    -0.200 N
HETATM   29  C25 UNL     1      14.852  23.796   5.388  1.00  0.00     0.675 A
ATOM     30  H4  UNL     1      15.772  23.854   7.282  1.00  0.00     0.183 HD
HETATM   31  N6  UNL     1      13.579  23.657   4.987  1.00  0.00    -0.194 N
ATOM     32  H6  UNL     1      13.243  23.641   4.025  1.00  0.00     0.184 HD
BRANCH  29  33
HETATM   33  N5  UNL     1      15.873  23.934   4.613  1.00  0.00    -0.234 N
ATOM     34  H52 UNL     1      16.339  24.815   4.394  1.00  0.00     0.174 HD
ATOM     35  H51 UNL     1      16.329  23.161   4.129  1.00  0.00     0.174 HD
ENDBRANCH  29  33
ENDBRANCH  25  26
ENDBRANCH  24  25
ENDBRANCH  22  23
ENDBRANCH  17  22
BRANCH  16  36
HETATM   36  O6  UNL     1       9.220  28.214   4.421  1.00  0.00    -0.348 OA
ATOM     37  H6  UNL     1      10.020  27.950   4.859  1.00  0.00     0.219 HD
ENDBRANCH  16  36
BRANCH  13  38
HETATM   38  C14 UNL     1       6.765  26.981   7.450  1.00  0.00     0.072 C
BRANCH  38  39
HETATM   39  C15 UNL     1       8.069  26.914   8.181  1.00  0.00     0.119 C
BRANCH  39  40
HETATM   40  C16 UNL     1       8.766  28.119   8.523  1.00  0.00     0.172 C
HETATM   41  O4  UNL     1       9.417  28.743   7.648  1.00  0.00    -0.648 OA
HETATM   42  O5  UNL     1       8.750  28.628   9.812  1.00  0.00    -0.648 OA
ENDBRANCH  39  40
ENDBRANCH  38  39
ENDBRANCH  13  38
BRANCH   1  43
HETATM   43  C6  UNL     1       5.234  25.775   1.317  1.00  0.00     0.063 C
BRANCH  43  44
HETATM   44  C5  UNL     1       3.825  25.561   0.952  1.00  0.00     0.006 C
BRANCH  44  45
HETATM   45  C4  UNL     1       3.611  24.093   0.637  1.00  0.00     0.000 C
BRANCH  45  46
HETATM   46  C3  UNL     1       2.306  23.584   1.194  1.00  0.00    -0.000 C
BRANCH  46  47
HETATM   47  C2  UNL     1       2.575  22.160   1.687  1.00  0.00    -0.005 C
HETATM   48  C1  UNL     1       2.658  22.257   3.205  1.00  0.00     0.005 C
ENDBRANCH  46  47
ENDBRANCH  45  46
ENDBRANCH  44  45
ENDBRANCH  43  44
ENDBRANCH   1  43
BRANCH  12  49
HETATM   49  O3  UNL     1       5.283  30.089   6.674  1.00  0.00    -0.345 OA
ATOM     50  H3  UNL     1       6.033  30.417   6.193  1.00  0.00     0.219 HD
ENDBRANCH  12  49
TORSDOF 15
ENDMDL