MODEL 3
REMARK VINA RESULT: -4.949487199      2.387      5.757
REMARK  17 active torsions:
REMARK  status: ('A' for Active; 'I' for Inactive)
REMARK    1  A    between atoms: C2_2  and  C3_3
REMARK    2  A    between atoms: C3_3  and  C4_4
REMARK    3  A    between atoms: C4_4  and  C5_5
REMARK    4  A    between atoms: C7_10  and  C8_11
REMARK    5  A    between atoms: C8_11  and  C10_13
REMARK    6  A    between atoms: C12_17  and  O2_18
REMARK    7  A    between atoms: C13_20  and  C14_21
REMARK    8  A    between atoms: C14_21  and  C15_22
REMARK    9  A    between atoms: C18_27  and  O3_28
REMARK   10  A    between atoms: C19_30  and  O4_31
REMARK   11  A    between atoms: C20_33  and  C21_34
REMARK   12  A    between atoms: C21_34  and  C22_35
REMARK   13  A    between atoms: C22_35  and  C23_36
REMARK   14  A    between atoms: C23_36  and  C24_37
REMARK   15  A    between atoms: C24_37  and  N4_38
REMARK   16  A    between atoms: C25_44  and  O5_45
REMARK   17  A    between atoms: C26_47  and  C27_48
ROOT
HETATM    1  C5  UNL     1      20.400  13.901  10.694  1.00  0.00     0.177 C
HETATM    2  N1  UNL     1      19.290  13.878   9.781  1.00  0.00    -0.346 N
ATOM      3  H1  UNL     1      18.635  13.115   9.958  1.00  0.00     0.163 HD
HETATM    4  C6  UNL     1      18.925  14.681   8.705  1.00  0.00     0.241 C
HETATM    5  O1  UNL     1      18.781  14.082   7.574  1.00  0.00    -0.271 OA
HETATM    6  C7  UNL     1      18.668  16.147   8.680  1.00  0.00     0.179 C
HETATM    7  N2  UNL     1      18.274  16.637   9.962  1.00  0.00    -0.359 N
ATOM      8  H2  UNL     1      18.725  16.146  10.734  1.00  0.00     0.162 HD
HETATM    9  C12 UNL     1      17.403  17.644  10.384  1.00  0.00     0.135 C
HETATM   10  C13 UNL     1      17.479  19.048  10.067  1.00  0.00     0.158 C
HETATM   11  N3  UNL     1      18.284  19.897  10.887  1.00  0.00    -0.357 N
ATOM     12  H3  UNL     1      17.725  20.578  11.402  1.00  0.00     0.162 HD
HETATM   13  C18 UNL     1      19.653  20.023  11.158  1.00  0.00     0.168 C
HETATM   14  C19 UNL     1      20.672  19.212  11.761  1.00  0.00     0.116 C
HETATM   15  C20 UNL     1      20.762  18.424  13.007  1.00  0.00     0.145 C
HETATM   16  N5  UNL     1      19.612  17.638  13.335  1.00  0.00    -0.359 N
ATOM     17  H5  UNL     1      18.739  18.137  13.160  1.00  0.00     0.162 HD
HETATM   18  C25 UNL     1      19.402  16.388  13.821  1.00  0.00     0.160 C
HETATM   19  C26 UNL     1      20.125  15.119  13.954  1.00  0.00     0.066 C
HETATM   20  N6  UNL     1      19.493  14.089  13.133  1.00  0.00    -0.325 N
ATOM     21  H6  UNL     1      18.541  13.857  13.415  1.00  0.00     0.169 HD
HETATM   22  C30 UNL     1      19.952  13.370  12.039  1.00  0.00     0.244 C
HETATM   23  O6  UNL     1      20.017  12.119  12.132  1.00  0.00    -0.271 OA
ENDROOT
BRANCH  15  24
HETATM   24  C21 UNL     1      21.113  19.353  14.203  1.00  0.00     0.032 C
BRANCH  24  25
HETATM   25  C22 UNL     1      22.549  19.765  14.190  1.00  0.00     0.004 C
BRANCH  25  26
HETATM   26  C23 UNL     1      22.679  21.295  14.216  1.00  0.00     0.027 C
BRANCH  26  27
HETATM   27  C24 UNL     1      23.479  21.669  12.996  1.00  0.00     0.229 C
BRANCH  27  28
HETATM   28  N4  UNL     1      22.675  22.136  11.908  1.00  0.00    -0.079 N
ATOM     29  H43 UNL     1      23.067  21.838  11.015  1.00  0.00     0.274 HD
ATOM     30  H42 UNL     1      21.785  21.637  11.877  1.00  0.00     0.274 HD
ATOM     31  H41 UNL     1      22.523  23.144  11.919  1.00  0.00     0.274 HD
ENDBRANCH  27  28
ENDBRANCH  26  27
ENDBRANCH  25  26
ENDBRANCH  24  25
ENDBRANCH  15  24
BRANCH  14  32
HETATM   32  O4  UNL     1      21.827  19.065  11.164  1.00  0.00    -0.359 OA
ATOM     33  H4  UNL     1      22.126  18.197  10.917  1.00  0.00     0.217 HD
ENDBRANCH  14  32
BRANCH  13  34
HETATM   34  O3  UNL     1      20.113  21.185  10.758  1.00  0.00    -0.344 OA
ATOM     35  H3  UNL     1      20.875  21.448  11.262  1.00  0.00     0.219 HD
ENDBRANCH  13  34
BRANCH  18  36
HETATM   36  O5  UNL     1      18.187  16.250  14.332  1.00  0.00    -0.345 OA
ATOM     37  H5  UNL     1      17.915  15.340  14.367  1.00  0.00     0.219 HD
ENDBRANCH  18  36
BRANCH  19  38
HETATM   38  C27 UNL     1      21.598  15.097  13.976  1.00  0.00     0.032 C
HETATM   39  C28 UNL     1      21.977  13.662  14.429  1.00  0.00     0.016 C
HETATM   40  C29 UNL     1      22.059  15.960  15.162  1.00  0.00     0.016 C
ENDBRANCH  19  38
BRANCH  10  41
HETATM   41  C14 UNL     1      16.033  19.580   9.926  1.00  0.00     0.037 C
BRANCH  41  42
HETATM   42  C15 UNL     1      16.099  21.073   9.724  1.00  0.00    -0.020 C
HETATM   43  C16 UNL     1      15.564  21.367   8.333  1.00  0.00     0.009 C
HETATM   44  C17 UNL     1      15.175  21.677  10.783  1.00  0.00     0.009 C
ENDBRANCH  41  42
ENDBRANCH  10  41
BRANCH   9  45
HETATM   45  O2  UNL     1      16.390  17.339  11.158  1.00  0.00    -0.348 OA
ATOM     46  H2  UNL     1      15.995  18.012  11.700  1.00  0.00     0.219 HD
ENDBRANCH   9  45
BRANCH   1  47
HETATM   47  C4  UNL     1      21.645  13.267  10.226  1.00  0.00     0.035 C
BRANCH  47  48
HETATM   48  C3  UNL     1      22.970  13.808  10.505  1.00  0.00     0.002 C
BRANCH  48  49
HETATM   49  C2  UNL     1      23.108  15.299  10.654  1.00  0.00    -0.004 C
HETATM   50  C1  UNL     1      24.347  15.621  11.514  1.00  0.00     0.005 C
ENDBRANCH  48  49
ENDBRANCH  47  48
ENDBRANCH   1  47
BRANCH   6  51
HETATM   51  C8  UNL     1      19.718  16.884   7.955  1.00  0.00     0.013 C
HETATM   52  C9  UNL     1      21.048  16.212   7.783  1.00  0.00     0.012 C
BRANCH  51  53
HETATM   53  C10 UNL     1      19.257  17.329   6.587  1.00  0.00     0.002 C
HETATM   54  C11 UNL     1      18.925  18.836   6.623  1.00  0.00     0.005 C
ENDBRANCH  51  53
ENDBRANCH   6  51
TORSDOF 17
ENDMDL