MODEL 3
REMARK VINA RESULT: -7.842797653      3.543     10.496
REMARK  13 active torsions:
REMARK  status: ('A' for Active; 'I' for Inactive)
REMARK    1  A    between atoms: S1_2  and  C2_3
REMARK    2  A    between atoms: C2_3  and  C3_4
REMARK    3  A    between atoms: C3_4  and  C4_5
REMARK    4  A    between atoms: C6_10  and  C7_11
REMARK    5  A    between atoms: C7_11  and  C8_12
REMARK    6  A    between atoms: C8_12  and  C9_13
REMARK    7  A    between atoms: C9_13  and  C10_14
REMARK    8  A    between atoms: C10_14  and  N2_15
REMARK    9  A    between atoms: C12_22  and  O2_23
REMARK   10  A    between atoms: C13_25  and  C14_26
REMARK   11  A    between atoms: C14_26  and  C15_27
REMARK   12  A    between atoms: C25_39  and  C26_40
REMARK   13  A    between atoms: C26_40  and  C27_41
ROOT
HETATM    1  C4  UNL     1      12.250  22.940   4.325  1.00  0.00     0.177 C
HETATM    2  N1  UNL     1      13.361  22.826   3.444  1.00  0.00    -0.346 N
ATOM      3  H1  UNL     1      13.303  23.447   2.637  1.00  0.00     0.163 HD
HETATM    4  C5  UNL     1      14.525  22.033   3.455  1.00  0.00     0.241 C
HETATM    5  O1  UNL     1      15.603  22.699   3.588  1.00  0.00    -0.271 OA
HETATM    6  C6  UNL     1      14.695  20.590   3.337  1.00  0.00     0.175 C
HETATM    7  N5  UNL     1      15.303  19.871   4.419  1.00  0.00    -0.359 N
ATOM      8  H5  UNL     1      15.730  18.996   4.115  1.00  0.00     0.162 HD
HETATM    9  C12 UNL     1      15.448  20.086   5.782  1.00  0.00     0.135 C
HETATM   10  C13 UNL     1      16.412  20.890   6.561  1.00  0.00     0.152 C
HETATM   11  N6  UNL     1      15.741  21.274   7.753  1.00  0.00    -0.405 N
ATOM     12  H6  UNL     1      14.925  20.733   8.039  1.00  0.00     0.154 HD
HETATM   13  C21 UNL     1      16.126  22.333   8.548  1.00  0.00     0.085 A
HETATM   14  C22 UNL     1      17.123  23.368   8.333  1.00  0.00     0.036 A
HETATM   15  C23 UNL     1      15.581  23.666   8.398  1.00  0.00     0.034 A
HETATM   16  C24 UNL     1      15.125  24.258   7.160  1.00  0.00     0.005 C
HETATM   17  C25 UNL     1      13.721  24.219   6.713  1.00  0.00     0.009 C
HETATM   18  N7  UNL     1      13.022  22.975   6.780  1.00  0.00    -0.329 N
ATOM     19  H7  UNL     1      12.998  22.485   7.674  1.00  0.00     0.168 HD
HETATM   20  C30 UNL     1      12.353  22.376   5.662  1.00  0.00     0.244 C
HETATM   21  O3  UNL     1      11.818  21.267   5.888  1.00  0.00    -0.271 OA
ENDROOT
BRANCH   6  22
HETATM   22  C7  UNL     1      15.479  20.235   2.063  1.00  0.00     0.035 C
BRANCH  22  23
HETATM   23  C8  UNL     1      15.310  18.853   1.576  1.00  0.00     0.004 C
BRANCH  23  24
HETATM   24  C9  UNL     1      16.719  18.346   1.197  1.00  0.00     0.020 C
BRANCH  24  25
HETATM   25  C10 UNL     1      17.764  18.828   2.169  1.00  0.00     0.122 C
BRANCH  25  26
HETATM   26  N2  UNL     1      18.541  17.743   2.719  1.00  0.00    -0.367 N
HETATM   27  C11 UNL     1      18.216  17.058   3.746  1.00  0.00     0.196 C
HETATM   28  N3  UNL     1      19.074  16.012   4.185  1.00  0.00    -0.067 NA
HETATM   29  N4  UNL     1      17.026  17.287   4.479  1.00  0.00    -0.067 NA
ATOM     30  H2  UNL     1      19.416  17.506   2.252  1.00  0.00     0.161 HD
ENDBRANCH  25  26
ENDBRANCH  24  25
ENDBRANCH  23  24
ENDBRANCH  22  23
ENDBRANCH   6  22
BRANCH   9  31
HETATM   31  O2  UNL     1      14.593  19.485   6.594  1.00  0.00    -0.348 OA
ATOM     32  H2  UNL     1      14.449  19.873   7.449  1.00  0.00     0.219 HD
ENDBRANCH   9  31
BRANCH   1  33
HETATM   33  C3  UNL     1      10.980  22.613   3.600  1.00  0.00     0.045 C
BRANCH  33  34
HETATM   34  C2  UNL     1       9.924  23.633   3.552  1.00  0.00     0.076 C
BRANCH  34  35
HETATM   35  S1  UNL     1      10.299  24.746   2.143  1.00  0.00    -0.173 SA
HETATM   36  C1  UNL     1       8.901  25.775   1.706  1.00  0.00     0.089 C
ENDBRANCH  34  35
ENDBRANCH  33  34
ENDBRANCH   1  33
BRANCH  10  37
HETATM   37  C14 UNL     1      17.775  20.352   6.727  1.00  0.00     0.037 C
BRANCH  37  38
HETATM   38  C15 UNL     1      18.081  19.144   7.476  1.00  0.00    -0.012 C
HETATM   39  C16 UNL     1      19.240  18.289   7.079  1.00  0.00     0.005 C
HETATM   40  C17 UNL     1      19.013  16.942   7.758  1.00  0.00     0.000 C
HETATM   41  C18 UNL     1      19.157  17.218   9.248  1.00  0.00     0.000 C
HETATM   42  C19 UNL     1      18.250  18.285   9.755  1.00  0.00     0.000 C
HETATM   43  C20 UNL     1      18.383  19.543   8.941  1.00  0.00     0.005 C
ENDBRANCH  37  38
ENDBRANCH  10  37
BRANCH  17  44
HETATM   44  C26 UNL     1      12.940  25.412   7.173  1.00  0.00     0.060 C
BRANCH  44  45
HETATM   45  C27 UNL     1      11.769  25.207   8.031  1.00  0.00    -0.017 C
HETATM   46  C28 UNL     1      10.497  25.452   7.267  1.00  0.00     0.010 C
HETATM   47  C29 UNL     1      11.808  26.306   9.113  1.00  0.00     0.010 C
ENDBRANCH  44  45
ENDBRANCH  17  44
TORSDOF 13
ENDMDL