MODEL 3
REMARK VINA RESULT: -9.379132147      5.254     10.119
REMARK  12 active torsions:
REMARK  status: ('A' for Active; 'I' for Inactive)
REMARK       I    between atoms: C2_2  and  N1_4
REMARK    1  A    between atoms: N1_4  and  C3_6
REMARK    2  A    between atoms: C3_6  and  C4_7
REMARK       I    between atoms: C4_7  and  N2_9
REMARK    3  A    between atoms: N2_9  and  C5_11
REMARK    4  A    between atoms: C5_11  and  C6_12
REMARK    5  A    between atoms: C5_11  and  C12_18
REMARK    6  A    between atoms: C6_12  and  C7_13
REMARK       I    between atoms: C12_18  and  N3_20
REMARK    7  A    between atoms: C20_28  and  C21_29
REMARK       I    between atoms: C21_29  and  N4_31
REMARK    8  A    between atoms: N4_31  and  C22_33
REMARK    9  A    between atoms: C27_38  and  O5_39
REMARK   10  A    between atoms: O5_39  and  C28_40
REMARK   11  A    between atoms: C28_40  and  C29_41
REMARK   12  A    between atoms: C29_41  and  N5_42
REMARK       I    between atoms: N5_42  and  C30_44
ROOT
HETATM    1  C12 UNL     1      19.108  18.029   7.020  1.00  0.00     0.243 C
HETATM    2  O3  UNL     1      19.590  19.172   6.694  1.00  0.00    -0.271 OA
HETATM    3  N3  UNL     1      19.021  17.588   8.359  1.00  0.00    -0.336 N
HETATM    4  C13 UNL     1      18.665  16.233   8.693  1.00  0.00     0.132 C
HETATM    5  C14 UNL     1      18.901  16.110  10.190  1.00  0.00     0.010 C
HETATM    6  C15 UNL     1      17.989  15.156  10.856  1.00  0.00     0.007 C
HETATM    7  C16 UNL     1      18.086  15.335  12.346  1.00  0.00     0.000 C
HETATM    8  C17 UNL     1      17.919  16.754  12.789  1.00  0.00     0.000 C
HETATM    9  C18 UNL     1      18.836  17.701  11.989  1.00  0.00     0.007 C
HETATM   10  C19 UNL     1      18.466  17.508  10.579  1.00  0.00     0.023 C
HETATM   11  C20 UNL     1      19.234  18.320   9.556  1.00  0.00     0.183 C
ENDROOT
BRANCH  11  12
HETATM   12  C21 UNL     1      18.755  19.717   9.551  1.00  0.00     0.241 C
HETATM   13  O4  UNL     1      19.377  20.574  10.223  1.00  0.00    -0.271 OA
HETATM   14  N4  UNL     1      17.617  20.067   8.796  1.00  0.00    -0.348 N
ATOM     15  H4  UNL     1      17.119  19.354   8.261  1.00  0.00     0.163 HD
BRANCH  14  16
HETATM   16  C22 UNL     1      17.163  21.424   8.779  1.00  0.00     0.055 C
HETATM   17  C23 UNL     1      18.296  22.389   8.405  1.00  0.00     0.041 C
HETATM   18  C24 UNL     1      16.501  21.885  10.028  1.00  0.00     0.033 C
HETATM   19  C25 UNL     1      15.161  21.140   9.933  1.00  0.00     0.005 C
HETATM   20  C26 UNL     1      14.818  21.246   8.457  1.00  0.00     0.034 C
HETATM   21  C27 UNL     1      16.089  21.666   7.740  1.00  0.00     0.149 C
BRANCH  21  22
HETATM   22  O5  UNL     1      16.310  20.996   6.570  1.00  0.00    -0.382 OA
BRANCH  22  23
HETATM   23  C28 UNL     1      15.296  21.301   5.668  1.00  0.00     0.188 C
BRANCH  23  24
HETATM   24  C29 UNL     1      15.283  22.775   5.325  1.00  0.00     0.148 C
BRANCH  24  25
HETATM   25  N5  UNL     1      13.981  23.346   5.561  1.00  0.00    -0.363 N
HETATM   26  C30 UNL     1      13.394  24.335   4.761  1.00  0.00     0.181 C
HETATM   27  N6  UNL     1      13.804  25.560   4.679  1.00  0.00    -0.374 N
HETATM   28  N7  UNL     1      12.254  24.020   3.958  1.00  0.00    -0.064 NA
ATOM     29  H62 UNL     1      14.617  25.785   5.251  1.00  0.00     0.158 HD
ATOM     30  H61 UNL     1      13.376  26.280   4.097  1.00  0.00     0.158 HD
ATOM     31  H5  UNL     1      13.451  23.007   6.365  1.00  0.00     0.162 HD
ENDBRANCH  24  25
ENDBRANCH  23  24
ENDBRANCH  22  23
ENDBRANCH  21  22
ENDBRANCH  14  16
ENDBRANCH  11  12
BRANCH   1  32
HETATM   32  C5  UNL     1      18.658  17.238   5.846  1.00  0.00     0.177 C
BRANCH  32  33
HETATM   33  N2  UNL     1      19.895  16.617   5.313  1.00  0.00    -0.346 N
HETATM   34  C4  UNL     1      19.987  15.176   5.283  1.00  0.00     0.236 C
HETATM   35  O2  UNL     1      19.013  14.493   5.711  1.00  0.00    -0.272 OA
ATOM     36  H2  UNL     1      20.665  17.195   4.975  1.00  0.00     0.163 HD
BRANCH  34  37
HETATM   37  C3  UNL     1      21.181  14.515   4.763  1.00  0.00     0.225 C
BRANCH  37  38
HETATM   38  N1  UNL     1      22.194  15.484   4.461  1.00  0.00    -0.353 N
HETATM   39  C2  UNL     1      23.356  15.124   3.731  1.00  0.00     0.213 C
HETATM   40  C1  UNL     1      24.388  16.156   3.418  1.00  0.00     0.117 C
HETATM   41  O1  UNL     1      23.546  13.935   3.330  1.00  0.00    -0.274 OA
ATOM     42  H1  UNL     1      22.076  16.446   4.776  1.00  0.00     0.162 HD
ENDBRANCH  37  38
ENDBRANCH  34  37
ENDBRANCH  32  33
BRANCH  32  43
HETATM   43  C6  UNL     1      18.231  18.171   4.707  1.00  0.00     0.039 C
BRANCH  43  44
HETATM   44  C7  UNL     1      17.343  17.540   3.722  1.00  0.00    -0.012 C
HETATM   45  C8  UNL     1      17.770  17.702   2.283  1.00  0.00     0.005 C
HETATM   46  C9  UNL     1      16.930  18.863   1.805  1.00  0.00     0.000 C
HETATM   47  C10 UNL     1      15.603  18.714   2.551  1.00  0.00     0.000 C
HETATM   48  C11 UNL     1      15.919  17.962   3.803  1.00  0.00     0.005 C
ENDBRANCH  43  44
ENDBRANCH  32  43
ENDBRANCH   1  32
TORSDOF 12
ENDMDL