MODEL 2
REMARK VINA RESULT: -6.755605555      1.089      1.192
REMARK  14 active torsions:
REMARK  status: ('A' for Active; 'I' for Inactive)
REMARK    1  A    between atoms: C2_2  and  C3_3
REMARK    2  A    between atoms: C3_3  and  C4_4
REMARK    3  A    between atoms: C4_4  and  C5_5
REMARK    4  A    between atoms: C5_5  and  C6_6
REMARK    5  A    between atoms: C6_6  and  C7_7
REMARK    6  A    between atoms: C8_8  and  C9_9
REMARK    7  A    between atoms: C17_23  and  C18_24
REMARK    8  A    between atoms: C18_24  and  C19_25
REMARK    9  A    between atoms: C19_25  and  C20_26
REMARK   10  A    between atoms: C20_26  and  C21_27
REMARK   11  A    between atoms: C21_27  and  N3_28
REMARK   12  A    between atoms: C22_34  and  O3_35
REMARK   13  A    between atoms: C23_37  and  C24_38
REMARK   14  A    between atoms: C24_38  and  C25_39
ROOT
HETATM    1  C9  UNL     1      18.661  19.384   5.439  1.00  0.00     0.107 C
HETATM    2  C10 UNL     1      18.855  19.411   6.912  1.00  0.00     0.029 C
HETATM    3  C11 UNL     1      18.066  20.451   7.656  1.00  0.00     0.004 C
HETATM    4  C12 UNL     1      17.335  19.871   8.845  1.00  0.00     0.020 C
HETATM    5  C13 UNL     1      17.900  20.426  10.128  1.00  0.00     0.122 C
HETATM    6  N1  UNL     1      19.265  19.958  10.316  1.00  0.00    -0.360 N
ATOM      7  H1  UNL     1      19.749  19.563   9.509  1.00  0.00     0.162 HD
HETATM    8  C14 UNL     1      19.963  20.014  11.537  1.00  0.00     0.235 C
HETATM    9  O1  UNL     1      21.138  20.492  11.521  1.00  0.00    -0.272 OA
HETATM   10  C15 UNL     1      19.337  19.533  12.777  1.00  0.00     0.225 C
HETATM   11  N2  UNL     1      20.246  18.993  13.756  1.00  0.00    -0.347 N
ATOM     12  H2  UNL     1      20.201  19.427  14.678  1.00  0.00     0.163 HD
HETATM   13  C16 UNL     1      21.176  17.964  13.630  1.00  0.00     0.264 C
HETATM   14  O2  UNL     1      22.400  18.264  13.896  1.00  0.00    -0.266 OA
HETATM   15  C17 UNL     1      21.001  16.553  13.235  1.00  0.00     0.079 C
HETATM   16  N4  UNL     1      21.980  16.034  12.323  1.00  0.00    -0.338 N
ATOM     17  H4  UNL     1      22.928  16.069  12.700  1.00  0.00     0.167 HD
HETATM   18  C22 UNL     1      21.933  15.499  11.053  1.00  0.00     0.139 C
HETATM   19  C23 UNL     1      21.626  16.077   9.726  1.00  0.00     0.161 C
HETATM   20  N5  UNL     1      20.217  16.216   9.452  1.00  0.00    -0.331 N
ATOM     21  H5  UNL     1      19.711  16.928   9.979  1.00  0.00     0.165 HD
HETATM   22  C27 UNL     1      19.466  15.453   8.515  1.00  0.00     0.319 C
HETATM   23  O4  UNL     1      18.410  14.819   8.911  1.00  0.00    -0.247 OA
HETATM   24  N6  UNL     1      19.778  15.314   7.133  1.00  0.00    -0.330 N
HETATM   25  C28 UNL     1      19.802  14.006   6.530  1.00  0.00     0.155 C
HETATM   26  C29 UNL     1      20.072  16.471   6.257  1.00  0.00     0.229 C
HETATM   27  C30 UNL     1      18.850  16.836   5.501  1.00  0.00     0.236 C
HETATM   28  O5  UNL     1      17.955  15.921   5.416  1.00  0.00    -0.272 OA
HETATM   29  N7  UNL     1      18.569  18.054   4.876  1.00  0.00    -0.352 N
ATOM     30  H7  UNL     1      18.260  17.998   3.906  1.00  0.00     0.163 HD
ENDROOT
BRANCH   1  31
HETATM   31  C8  UNL     1      17.373  20.085   5.097  1.00  0.00    -0.006 C
HETATM   32  C7  UNL     1      16.364  19.358   4.697  1.00  0.00    -0.029 C
BRANCH  32  33
HETATM   33  C6  UNL     1      15.072  19.964   4.343  1.00  0.00     0.027 C
BRANCH  33  34
HETATM   34  C5  UNL     1      15.099  20.484   2.923  1.00  0.00     0.004 C
BRANCH  34  35
HETATM   35  C4  UNL     1      15.034  19.279   2.006  1.00  0.00     0.000 C
BRANCH  35  36
HETATM   36  C3  UNL     1      16.193  19.273   1.036  1.00  0.00    -0.000 C
BRANCH  36  37
HETATM   37  C2  UNL     1      16.595  17.850   0.713  1.00  0.00    -0.005 C
HETATM   38  C1  UNL     1      17.420  17.262   1.819  1.00  0.00     0.005 C
ENDBRANCH  36  37
ENDBRANCH  35  36
ENDBRANCH  34  35
ENDBRANCH  33  34
ENDBRANCH  32  33
ENDBRANCH   1  31
BRANCH  19  39
HETATM   39  C24 UNL     1      22.402  17.380   9.458  1.00  0.00     0.033 C
BRANCH  39  40
HETATM   40  C25 UNL     1      23.675  17.029   8.711  1.00  0.00    -0.002 C
HETATM   41  C26 UNL     1      23.424  15.895   7.743  1.00  0.00     0.005 C
ENDBRANCH  39  40
ENDBRANCH  19  39
BRANCH  18  42
HETATM   42  O3  UNL     1      22.213  14.224  10.970  1.00  0.00    -0.348 OA
ATOM     43  H3  UNL     1      22.438  13.801  11.791  1.00  0.00     0.219 HD
ENDBRANCH  18  42
BRANCH  15  44
HETATM   44  C18 UNL     1      19.602  16.078  13.066  1.00  0.00     0.063 C
BRANCH  44  45
HETATM   45  C19 UNL     1      19.197  14.924  13.931  1.00  0.00     0.008 C
BRANCH  45  46
HETATM   46  C20 UNL     1      18.466  13.822  13.247  1.00  0.00     0.027 C
BRANCH  46  47
HETATM   47  C21 UNL     1      19.523  12.863  12.677  1.00  0.00     0.229 C
BRANCH  47  48
HETATM   48  N3  UNL     1      19.534  12.949  11.222  1.00  0.00    -0.079 N
ATOM     49  H33 UNL     1      20.468  13.134  10.856  1.00  0.00     0.274 HD
ATOM     50  H32 UNL     1      19.381  12.041  10.783  1.00  0.00     0.274 HD
ATOM     51  H31 UNL     1      18.855  13.644  10.911  1.00  0.00     0.274 HD
ENDBRANCH  47  48
ENDBRANCH  46  47
ENDBRANCH  45  46
ENDBRANCH  44  45
ENDBRANCH  15  44
TORSDOF 14
ENDMDL