MODEL 4
REMARK VINA RESULT: -9.278624389      1.204      1.661
REMARK  11 active torsions:
REMARK  status: ('A' for Active; 'I' for Inactive)
REMARK       I    between atoms: N1_3  and  C3_5
REMARK       I    between atoms: C3_5  and  N3_9
REMARK    1  A    between atoms: C7_13  and  C8_14
REMARK    2  A    between atoms: C8_14  and  C9_15
REMARK       I    between atoms: C9_15  and  N4_17
REMARK    3  A    between atoms: N4_17  and  C10_19
REMARK    4  A    between atoms: C10_19  and  C11_20
REMARK    5  A    between atoms: C10_19  and  C25_37
REMARK    6  A    between atoms: C11_20  and  C12_21
REMARK    7  A    between atoms: C12_21  and  C13_22
REMARK    8  A    between atoms: N5_25  and  C16_26
REMARK    9  A    between atoms: C19_29  and  C20_30
REMARK       I    between atoms: C25_37  and  N6_39
REMARK   10  A    between atoms: N6_39  and  C26_41
REMARK   11  A    between atoms: C26_41  and  C27_42
ROOT
HETATM    1  C1  UNL     1       4.521  27.395   4.286  1.00  0.00     0.037 C
HETATM    2  C2  UNL     1       5.450  26.658   4.397  1.00  0.00     0.015 C
HETATM    3  N1  UNL     1       6.533  25.788   4.545  1.00  0.00    -0.150 N
ATOM      4  H1  UNL     1       7.114  25.857   5.381  1.00  0.00     0.195 HD
HETATM    5  C3  UNL     1       6.850  24.810   3.564  1.00  0.00     0.681 C
HETATM    6  N2  UNL     1       6.464  23.565   3.671  1.00  0.00    -0.234 N
ATOM      7  H21 UNL     1       6.692  22.863   2.967  1.00  0.00     0.174 HD
ATOM      8  H22 UNL     1       5.916  23.267   4.478  1.00  0.00     0.174 HD
HETATM    9  N3  UNL     1       7.612  25.225   2.442  1.00  0.00    -0.212 N
HETATM   10  C4  UNL     1       7.191  25.462   1.078  1.00  0.00     0.141 C
HETATM   11  C5  UNL     1       8.075  26.614   0.655  1.00  0.00     0.022 C
HETATM   12  C6  UNL     1       9.412  26.225   1.246  1.00  0.00     0.028 C
HETATM   13  C7  UNL     1       9.022  25.490   2.499  1.00  0.00     0.110 C
ENDROOT
BRANCH  13  14
HETATM   14  C8  UNL     1       9.728  24.154   2.505  1.00  0.00     0.128 C
BRANCH  14  15
HETATM   15  C9  UNL     1      10.164  23.855   3.879  1.00  0.00     0.220 C
HETATM   16  O1  UNL     1      10.200  22.661   4.260  1.00  0.00    -0.274 OA
HETATM   17  N4  UNL     1      10.533  24.905   4.743  1.00  0.00    -0.348 N
ATOM     18  H4  UNL     1      10.495  25.868   4.411  1.00  0.00     0.163 HD
BRANCH  17  19
HETATM   19  C10 UNL     1      10.978  24.624   6.131  1.00  0.00     0.176 C
BRANCH  19  20
HETATM   20  C11 UNL     1      12.488  24.596   5.998  1.00  0.00     0.035 C
BRANCH  20  21
HETATM   21  C12 UNL     1      13.200  23.635   6.861  1.00  0.00     0.007 C
BRANCH  21  22
HETATM   22  C13 UNL     1      14.593  23.314   6.355  1.00  0.00    -0.008 C
HETATM   23  C14 UNL     1      15.022  21.932   6.847  1.00  0.00     0.049 C
HETATM   24  C15 UNL     1      14.403  20.839   6.011  1.00  0.00     0.059 C
HETATM   25  N5  UNL     1      14.458  21.011   4.618  1.00  0.00    -0.389 N
HETATM   26  C23 UNL     1      14.094  22.303   4.117  1.00  0.00     0.122 C
HETATM   27  C24 UNL     1      14.723  23.434   4.881  1.00  0.00     0.024 C
BRANCH  25  28
HETATM   28  C16 UNL     1      15.365  20.255   3.853  1.00  0.00     0.083 C
HETATM   29  C17 UNL     1      14.934  20.226   2.412  1.00  0.00     0.026 C
HETATM   30  C18 UNL     1      16.000  19.569   1.541  1.00  0.00     0.017 C
HETATM   31  C19 UNL     1      16.071  18.120   2.039  1.00  0.00     0.087 C
HETATM   32  C21 UNL     1      16.630  18.192   3.437  1.00  0.00     0.017 C
HETATM   33  C22 UNL     1      15.676  18.884   4.392  1.00  0.00     0.026 C
BRANCH  31  34
HETATM   34  C20 UNL     1      16.984  17.327   1.198  1.00  0.00     0.177 C
HETATM   35  O2  UNL     1      17.867  16.637   1.735  1.00  0.00    -0.648 OA
HETATM   36  O3  UNL     1      16.857  17.351  -0.182  1.00  0.00    -0.648 OA
ENDBRANCH  31  34
ENDBRANCH  25  28
ENDBRANCH  21  22
ENDBRANCH  20  21
ENDBRANCH  19  20
BRANCH  19  37
HETATM   37  C25 UNL     1      10.470  25.723   6.971  1.00  0.00     0.241 C
HETATM   38  O4  UNL     1      11.274  26.389   7.656  1.00  0.00    -0.271 OA
HETATM   39  N6  UNL     1       9.110  26.078   7.048  1.00  0.00    -0.342 N
ATOM     40  H6  UNL     1       8.448  25.543   6.485  1.00  0.00     0.163 HD
BRANCH  39  41
HETATM   41  C26 UNL     1       8.587  27.140   7.862  1.00  0.00     0.111 C
HETATM   42  C28 UNL     1       8.640  26.842   9.341  1.00  0.00     0.041 C
HETATM   43  C29 UNL     1       9.223  28.217   9.569  1.00  0.00     0.006 C
HETATM   44  C30 UNL     1       9.491  28.310   8.085  1.00  0.00     0.041 C
BRANCH  41  45
HETATM   45  C27 UNL     1       7.217  27.624   7.500  1.00  0.00     0.259 C
HETATM   46  N7  UNL     1       6.070  26.836   7.719  1.00  0.00    -0.060 NA
HETATM   47  O5  UNL     1       7.066  28.756   6.987  1.00  0.00    -0.274 OA
ENDBRANCH  41  45
ENDBRANCH  39  41
ENDBRANCH  19  37
ENDBRANCH  17  19
ENDBRANCH  14  15
ENDBRANCH  13  14
TORSDOF 11
ENDMDL