MODEL 4
REMARK VINA RESULT: -5.863602845      1.633      1.960
REMARK  15 active torsions:
REMARK  status: ('A' for Active; 'I' for Inactive)
REMARK    1  A    between atoms: C2_2  and  C3_3
REMARK    2  A    between atoms: C3_3  and  C5_5
REMARK    3  A    between atoms: C5_5  and  C6_6
REMARK    4  A    between atoms: C8_11  and  C9_12
REMARK    5  A    between atoms: C9_12  and  C10_13
REMARK    6  A    between atoms: C10_13  and  C11_14
REMARK    7  A    between atoms: C11_14  and  N2_15
REMARK    8  A    between atoms: C13_22  and  O2_23
REMARK    9  A    between atoms: C14_25  and  C15_26
REMARK   10  A    between atoms: C18_31  and  O3_32
REMARK   11  A    between atoms: C19_34  and  C20_35
REMARK   12  A    between atoms: C20_35  and  C21_36
REMARK   13  A    between atoms: C24_41  and  O4_42
REMARK   14  A    between atoms: C25_44  and  C26_45
REMARK   15  A    between atoms: C26_45  and  C27_46
ROOT
HETATM    1  C6  UNL     1      18.972  17.538  10.683  1.00  0.00     0.187 C
HETATM    2  N1  UNL     1      19.406  18.270   9.500  1.00  0.00    -0.335 N
ATOM      3  H1  UNL     1      20.307  18.727   9.633  1.00  0.00     0.164 HD
HETATM    4  C7  UNL     1      18.888  18.489   8.250  1.00  0.00     0.265 C
HETATM    5  O1  UNL     1      18.567  19.724   8.013  1.00  0.00    -0.266 OA
HETATM    6  C8  UNL     1      18.604  17.635   7.082  1.00  0.00     0.079 C
HETATM    7  N5  UNL     1      18.609  16.225   7.250  1.00  0.00    -0.338 N
ATOM      8  H5  UNL     1      17.705  15.803   7.038  1.00  0.00     0.167 HD
HETATM    9  C13 UNL     1      19.550  15.294   7.633  1.00  0.00     0.139 C
HETATM   10  C14 UNL     1      20.899  14.968   7.168  1.00  0.00     0.161 C
HETATM   11  N6  UNL     1      21.961  15.872   7.349  1.00  0.00    -0.360 N
ATOM     12  H6  UNL     1      22.438  16.089   6.475  1.00  0.00     0.162 HD
HETATM   13  C18 UNL     1      22.518  16.542   8.436  1.00  0.00     0.135 C
HETATM   14  C19 UNL     1      22.892  16.098   9.776  1.00  0.00     0.158 C
HETATM   15  N7  UNL     1      21.789  15.903  10.678  1.00  0.00    -0.357 N
ATOM     16  H7  UNL     1      21.249  15.081  10.407  1.00  0.00     0.162 HD
HETATM   17  C24 UNL     1      21.248  16.483  11.784  1.00  0.00     0.163 C
HETATM   18  C25 UNL     1      20.878  17.879  12.178  1.00  0.00     0.079 C
HETATM   19  N8  UNL     1      19.562  18.224  11.825  1.00  0.00    -0.360 N
HETATM   20  C30 UNL     1      19.159  19.569  11.739  1.00  0.00     0.152 C
ENDROOT
BRANCH   6  21
HETATM   21  C9  UNL     1      19.334  18.075   5.821  1.00  0.00     0.064 C
BRANCH  21  22
HETATM   22  C10 UNL     1      18.864  17.486   4.549  1.00  0.00     0.026 C
BRANCH  22  23
HETATM   23  C11 UNL     1      18.247  18.439   3.564  1.00  0.00     0.122 C
BRANCH  23  24
HETATM   24  N2  UNL     1      17.961  17.663   2.364  1.00  0.00    -0.367 N
HETATM   25  C12 UNL     1      17.104  18.009   1.489  1.00  0.00     0.196 C
HETATM   26  N3  UNL     1      16.323  19.190   1.572  1.00  0.00    -0.067 NA
HETATM   27  N4  UNL     1      16.919  17.163   0.362  1.00  0.00    -0.067 NA
ATOM     28  H2  UNL     1      18.476  16.795   2.218  1.00  0.00     0.161 HD
ENDBRANCH  23  24
ENDBRANCH  22  23
ENDBRANCH  21  22
ENDBRANCH   6  21
BRANCH   9  29
HETATM   29  O2  UNL     1      19.129  14.547   8.617  1.00  0.00    -0.348 OA
ATOM     30  H2  UNL     1      19.403  13.643   8.521  1.00  0.00     0.219 HD
ENDBRANCH   9  29
BRANCH   1  31
HETATM   31  C5  UNL     1      17.484  17.363  10.761  1.00  0.00     0.051 C
BRANCH  31  32
HETATM   32  C3  UNL     1      17.009  16.038  11.173  1.00  0.00    -0.015 C
HETATM   33  C4  UNL     1      17.683  15.316  12.280  1.00  0.00     0.010 C
BRANCH  32  34
HETATM   34  C2  UNL     1      15.492  16.066  11.477  1.00  0.00    -0.000 C
HETATM   35  C1  UNL     1      15.250  15.601  12.900  1.00  0.00     0.005 C
ENDBRANCH  32  34
ENDBRANCH  31  32
ENDBRANCH   1  31
BRANCH  10  36
HETATM   36  C15 UNL     1      20.821  14.473   5.693  1.00  0.00     0.008 C
HETATM   37  C16 UNL     1      21.200  12.990   5.669  1.00  0.00     0.012 C
HETATM   38  C17 UNL     1      21.923  15.186   4.955  1.00  0.00     0.012 C
ENDBRANCH  10  36
BRANCH  18  39
HETATM   39  C26 UNL     1      22.029  18.781  11.925  1.00  0.00     0.011 C
BRANCH  39  40
HETATM   40  C27 UNL     1      22.685  19.545  12.996  1.00  0.00     0.002 C
HETATM   41  C28 UNL     1      21.995  19.006  14.308  1.00  0.00     0.013 C
HETATM   42  C29 UNL     1      22.275  21.013  13.030  1.00  0.00     0.013 C
ENDBRANCH  39  40
ENDBRANCH  18  39
BRANCH  13  43
HETATM   43  O3  UNL     1      22.733  17.802   8.180  1.00  0.00    -0.348 OA
ATOM     44  H3  UNL     1      23.615  17.959   7.866  1.00  0.00     0.219 HD
ENDBRANCH  13  43
BRANCH  17  45
HETATM   45  O4  UNL     1      20.983  15.622  12.740  1.00  0.00    -0.345 OA
ATOM     46  H4  UNL     1      20.855  14.737  12.419  1.00  0.00     0.219 HD
ENDBRANCH  17  45
BRANCH  14  47
HETATM   47  C20 UNL     1      23.811  14.889   9.820  1.00  0.00     0.037 C
BRANCH  47  48
HETATM   48  C21 UNL     1      23.166  13.564   9.914  1.00  0.00    -0.020 C
HETATM   49  C22 UNL     1      23.550  12.780   8.634  1.00  0.00     0.009 C
HETATM   50  C23 UNL     1      23.557  12.669  11.034  1.00  0.00     0.009 C
ENDBRANCH  47  48
ENDBRANCH  14  47
TORSDOF 15
ENDMDL