MODEL 5
REMARK VINA RESULT: -9.575061623      1.600      3.918
REMARK  15 active torsions:
REMARK  status: ('A' for Active; 'I' for Inactive)
REMARK    1  A    between atoms: C6_6  and  N1_7
REMARK       I    between atoms: N1_7  and  C7_9
REMARK    2  A    between atoms: C7_9  and  C8_11
REMARK    3  A    between atoms: C10_17  and  C11_18
REMARK    4  A    between atoms: C11_18  and  C12_19
REMARK    5  A    between atoms: C12_19  and  C13_20
REMARK    6  A    between atoms: C13_20  and  C14_21
REMARK    7  A    between atoms: C14_21  and  C15_22
REMARK    8  A    between atoms: C17_24  and  N4_25
REMARK    9  A    between atoms: N4_25  and  C18_27
REMARK   10  A    between atoms: C18_27  and  C19_28
REMARK   11  A    between atoms: C19_28  and  C20_29
REMARK   12  A    between atoms: C20_29  and  N5_30
REMARK   13  A    between atoms: C23_35  and  N7_36
REMARK   14  A    between atoms: N7_36  and  C24_38
REMARK   15  A    between atoms: C24_38  and  C25_39
REMARK       I    between atoms: N8_43  and  C29_44
ROOT
HETATM    1  C15 UNL     1      13.887  23.977   6.512  1.00  0.00     0.030 A
HETATM    2  C16 UNL     1      13.188  24.731   7.423  1.00  0.00     0.074 A
HETATM    3  C17 UNL     1      12.157  25.533   6.980  1.00  0.00     0.118 A
HETATM    4  N6  UNL     1      11.877  25.543   5.669  1.00  0.00    -0.177 N
ATOM      5  H6  UNL     1      11.113  26.137   5.345  1.00  0.00     0.185 HD
HETATM    6  C23 UNL     1      12.540  24.818   4.759  1.00  0.00     0.679 A
HETATM    7  N11 UNL     1      13.548  24.040   5.223  1.00  0.00    -0.196 N
ATOM      8  H11 UNL     1      14.072  23.477   4.554  1.00  0.00     0.184 HD
ENDROOT
BRANCH   1   9
HETATM    9  C14 UNL     1      14.998  23.117   6.982  1.00  0.00     0.058 C
BRANCH   9  10
HETATM   10  C13 UNL     1      14.434  21.934   7.713  1.00  0.00     0.006 C
BRANCH  10  11
HETATM   11  C12 UNL     1      15.523  21.096   8.348  1.00  0.00     0.006 C
BRANCH  11  12
HETATM   12  C11 UNL     1      16.658  20.942   7.394  1.00  0.00     0.059 C
BRANCH  12  13
HETATM   13  C10 UNL     1      17.530  19.803   7.760  1.00  0.00     0.043 A
HETATM   14  C8  UNL     1      18.388  19.092   6.976  1.00  0.00     0.073 A
HETATM   15  C9  UNL     1      18.950  18.085   7.796  1.00  0.00     0.126 A
HETATM   16  N2  UNL     1      18.431  18.223   9.001  1.00  0.00    -0.311 N
HETATM   17  N3  UNL     1      17.601  19.220   9.001  1.00  0.00    -0.304 N
ATOM     18  H2  UNL     1      18.649  17.638   9.807  1.00  0.00     0.186 HD
ATOM     19  H3  UNL     1      17.071  19.530   9.816  1.00  0.00     0.186 HD
BRANCH  14  20
HETATM   20  C7  UNL     1      18.727  19.305   5.587  1.00  0.00     0.260 C
HETATM   21  N1  UNL     1      18.415  18.443   4.528  1.00  0.00    -0.309 N
ATOM     22  H1  UNL     1      18.870  17.532   4.462  1.00  0.00     0.170 HD
HETATM   23  O1  UNL     1      19.369  20.369   5.252  1.00  0.00    -0.267 OA
BRANCH  21  24
HETATM   24  C6  UNL     1      17.547  18.803   3.630  1.00  0.00     0.108 A
HETATM   25  C5  UNL     1      17.618  18.195   2.380  1.00  0.00     0.049 A
HETATM   26  C4  UNL     1      16.714  18.549   1.411  1.00  0.00     0.006 A
HETATM   27  C3  UNL     1      15.763  19.498   1.710  1.00  0.00     0.025 A
HETATM   28  C2  UNL     1      15.691  20.099   2.944  1.00  0.00     0.007 A
HETATM   29  C1  UNL     1      14.658  21.121   3.245  1.00  0.00     0.068 C
HETATM   30  N12 UNL     1      16.604  19.726   3.885  1.00  0.00    -0.346 N
ATOM     31  H12 UNL     1      16.570  20.158   4.808  1.00  0.00     0.167 HD
ENDBRANCH  21  24
ENDBRANCH  14  20
ENDBRANCH  12  13
ENDBRANCH  11  12
ENDBRANCH  10  11
ENDBRANCH   9  10
ENDBRANCH   1   9
BRANCH   3  32
HETATM   32  N4  UNL     1      11.479  26.249   7.792  1.00  0.00    -0.376 N
ATOM     33  H4  UNL     1      10.712  26.820   7.435  1.00  0.00     0.161 HD
BRANCH  32  34
HETATM   34  C18 UNL     1      11.776  26.267   9.207  1.00  0.00     0.123 C
BRANCH  34  35
HETATM   35  C19 UNL     1      10.455  26.464   9.933  1.00  0.00     0.050 C
BRANCH  35  36
HETATM   36  C20 UNL     1       9.353  26.560   8.908  1.00  0.00     0.273 C
BRANCH  36  37
HETATM   37  N5  UNL     1       8.495  27.694   9.145  1.00  0.00     0.080 N
HETATM   38  C21 UNL     1       9.037  28.518  10.200  1.00  0.00     0.309 C
HETATM   39  C22 UNL     1       8.280  28.476   7.953  1.00  0.00     0.309 C
ENDBRANCH  36  37
ENDBRANCH  35  36
ENDBRANCH  34  35
ENDBRANCH  32  34
ENDBRANCH   3  32
BRANCH   6  40
HETATM   40  N7  UNL     1      12.246  24.848   3.494  1.00  0.00    -0.226 N
ATOM     41  H7  UNL     1      12.429  25.681   2.934  1.00  0.00     0.177 HD
BRANCH  40  42
HETATM   42  C24 UNL     1      11.650  23.667   2.900  1.00  0.00     0.144 C
BRANCH  42  43
HETATM   43  C25 UNL     1      10.430  24.040   2.061  1.00  0.00     0.022 C
HETATM   44  C26 UNL     1       9.468  22.901   1.942  1.00  0.00     0.009 C
HETATM   45  C27 UNL     1       8.413  22.888   3.026  1.00  0.00     0.020 C
HETATM   46  C28 UNL     1       7.545  24.088   2.859  1.00  0.00     0.125 C
HETATM   47  N8  UNL     1       8.386  25.257   2.717  1.00  0.00    -0.355 N
HETATM   48  C29 UNL     1       7.694  26.505   2.578  1.00  0.00     0.183 C
HETATM   49  C30 UNL     1       9.816  25.261   2.704  1.00  0.00     0.131 C
HETATM   50  N9  UNL     1       8.197  27.584   3.085  1.00  0.00    -0.374 N
HETATM   51  N10 UNL     1       6.455  26.629   1.903  1.00  0.00    -0.064 NA
ATOM     52  H92 UNL     1       9.089  27.495   3.571  1.00  0.00     0.158 HD
ATOM     53  H91 UNL     1       7.704  28.472   2.986  1.00  0.00     0.158 HD
ENDBRANCH  42  43
ENDBRANCH  40  42
ENDBRANCH   6  40
TORSDOF 15
ENDMDL