MODEL 1
REMARK VINA RESULT: -8.821054007      0.000      0.000
REMARK  12 active torsions:
REMARK  status: ('A' for Active; 'I' for Inactive)
REMARK    1  A    between atoms: C2_2  and  C3_3
REMARK    2  A    between atoms: C3_3  and  C4_4
REMARK    3  A    between atoms: C4_4  and  C5_5
REMARK    4  A    between atoms: C5_5  and  C6_6
REMARK    5  A    between atoms: C6_6  and  C7_7
REMARK    6  A    between atoms: C14_18  and  C15_19
REMARK    7  A    between atoms: C15_19  and  C16_20
REMARK    8  A    between atoms: C20_27  and  C21_28
REMARK    9  A    between atoms: C25_35  and  C26_36
REMARK   10  A    between atoms: C26_36  and  C27_37
REMARK   11  A    between atoms: C27_37  and  C28_38
REMARK   12  A    between atoms: C28_38  and  N4_39
ROOT
HETATM    1  C7  UNL     1       7.533  28.461   7.206  1.00  0.00     0.176 C
HETATM    2  N1  UNL     1       6.360  29.126   7.687  1.00  0.00    -0.348 N
ATOM      3  H1  UNL     1       6.503  29.903   8.331  1.00  0.00     0.163 HD
HETATM    4  C8  UNL     1       5.019  28.807   7.355  1.00  0.00     0.218 C
HETATM    5  O1  UNL     1       4.192  28.684   8.295  1.00  0.00    -0.274 OA
HETATM    6  C9  UNL     1       4.499  28.605   5.979  1.00  0.00     0.103 C
HETATM    7  C10 UNL     1       3.178  27.886   5.967  1.00  0.00     0.010 C
HETATM    8  C11 UNL     1       3.295  26.472   6.426  1.00  0.00     0.008 C
HETATM    9  C12 UNL     1       3.857  25.553   5.374  1.00  0.00     0.085 C
HETATM   10  C13 UNL     1       2.841  25.233   4.306  1.00  0.00     0.171 C
HETATM   11  O2  UNL     1       1.675  25.501   4.657  1.00  0.00    -0.291 OA
HETATM   12  C14 UNL     1       3.189  24.666   2.990  1.00  0.00     0.058 C
HETATM   13  N2  UNL     1       3.908  25.638   2.169  1.00  0.00    -0.326 N
ATOM     14  H2  UNL     1       3.376  26.486   1.970  1.00  0.00     0.168 HD
HETATM   15  C19 UNL     1       5.173  25.624   1.612  1.00  0.00     0.245 C
HETATM   16  O3  UNL     1       5.208  25.655   0.321  1.00  0.00    -0.271 OA
HETATM   17  C20 UNL     1       6.508  25.582   2.260  1.00  0.00     0.180 C
HETATM   18  N3  UNL     1       6.897  26.843   2.836  1.00  0.00    -0.346 N
ATOM     19  H3  UNL     1       6.194  27.575   2.733  1.00  0.00     0.163 HD
HETATM   20  C24 UNL     1       8.040  27.259   3.502  1.00  0.00     0.241 C
HETATM   21  O4  UNL     1       8.726  28.224   2.990  1.00  0.00    -0.271 OA
HETATM   22  C25 UNL     1       8.673  26.798   4.753  1.00  0.00     0.176 C
HETATM   23  N7  UNL     1       7.677  26.345   5.739  1.00  0.00    -0.346 N
ATOM     24  H7  UNL     1       7.196  25.468   5.543  1.00  0.00     0.163 HD
HETATM   25  C30 UNL     1       7.335  27.007   6.913  1.00  0.00     0.241 C
HETATM   26  O5  UNL     1       6.802  26.333   7.835  1.00  0.00    -0.271 OA
ENDROOT
BRANCH  22  27
HETATM   27  C26 UNL     1       9.656  25.670   4.607  1.00  0.00     0.036 C
BRANCH  27  28
HETATM   28  C27 UNL     1      10.426  25.577   5.905  1.00  0.00     0.022 C
BRANCH  28  29
HETATM   29  C28 UNL     1      10.706  24.151   6.331  1.00  0.00     0.122 C
BRANCH  29  30
HETATM   30  N4  UNL     1      11.711  23.547   5.500  1.00  0.00    -0.367 N
HETATM   31  C29 UNL     1      12.194  22.374   5.611  1.00  0.00     0.196 C
HETATM   32  N5  UNL     1      13.188  21.976   4.674  1.00  0.00    -0.067 NA
HETATM   33  N6  UNL     1      11.810  21.449   6.599  1.00  0.00    -0.067 NA
ATOM     34  H4  UNL     1      12.076  24.120   4.738  1.00  0.00     0.161 HD
ENDBRANCH  29  30
ENDBRANCH  28  29
ENDBRANCH  27  28
ENDBRANCH  22  27
BRANCH  17  35
HETATM   35  C21 UNL     1       7.531  24.965   1.373  1.00  0.00     0.009 C
HETATM   36  C22 UNL     1       8.224  23.788   2.012  1.00  0.00     0.012 C
HETATM   37  C23 UNL     1       8.557  26.019   1.013  1.00  0.00     0.012 C
ENDBRANCH  17  35
BRANCH   1  38
HETATM   38  C6  UNL     1       8.688  28.572   8.128  1.00  0.00     0.035 C
BRANCH  38  39
HETATM   39  C5  UNL     1       8.470  28.565   9.582  1.00  0.00     0.002 C
BRANCH  39  40
HETATM   40  C4  UNL     1       9.633  28.218  10.464  1.00  0.00     0.000 C
BRANCH  40  41
HETATM   41  C3  UNL     1      10.303  26.921   9.976  1.00  0.00    -0.000 C
BRANCH  41  42
HETATM   42  C2  UNL     1      11.726  27.292   9.601  1.00  0.00    -0.005 C
HETATM   43  C1  UNL     1      12.426  26.207   8.843  1.00  0.00     0.005 C
ENDBRANCH  41  42
ENDBRANCH  40  41
ENDBRANCH  39  40
ENDBRANCH  38  39
ENDBRANCH   1  38
BRANCH  12  44
HETATM   44  C15 UNL     1       3.711  23.296   2.917  1.00  0.00     0.065 C
BRANCH  44  45
HETATM   45  C16 UNL     1       3.221  22.254   3.842  1.00  0.00    -0.017 C
HETATM   46  C17 UNL     1       4.282  21.419   4.466  1.00  0.00     0.010 C
HETATM   47  C18 UNL     1       2.308  21.328   3.005  1.00  0.00     0.010 C
ENDBRANCH  44  45
ENDBRANCH  12  44
TORSDOF 12
ENDMDL