MODEL 2
REMARK VINA RESULT: -4.287524624      1.370      3.181
REMARK  1 active torsions:
REMARK  status: ('A' for Active; 'I' for Inactive)
REMARK    1  A    between atoms: N1_2  and  C2_4
ROOT
HETATM    1  C2  UNL     1       8.992  22.569  12.929  1.00  0.00     0.116 A
HETATM    2  C3  UNL     1       8.708  21.252  13.225  1.00  0.00     0.136 A
HETATM    3  N2  UNL     1       8.484  20.344  12.256  1.00  0.00    -0.371 N
ATOM      4  H2  UNL     1       8.278  19.380  12.518  1.00  0.00     0.164 HD
HETATM    5  C4  UNL     1       8.526  20.674  10.954  1.00  0.00     0.104 A
HETATM    6  C5  UNL     1       8.810  21.990  10.656  1.00  0.00     0.106 A
HETATM    7  N3  UNL     1       9.033  22.896  11.625  1.00  0.00    -0.350 N
ATOM      8  H3  UNL     1       9.239  23.860  11.363  1.00  0.00     0.166 HD
ENDROOT
BRANCH   1   9
HETATM    9  N1  UNL     1       9.202  23.424  13.876  1.00  0.00    -0.380 N
HETATM   10  C1  UNL     1       8.337  23.607  14.996  1.00  0.00     0.147 C
ATOM     11  H1  UNL     1      10.038  24.005  13.817  1.00  0.00     0.160 HD
ENDBRANCH   1   9
TORSDOF 1
ENDMDL