MODEL 4
REMARK VINA RESULT: -3.450502024      1.804      2.115
REMARK  0 active torsions:
REMARK  status: ('A' for Active; 'I' for Inactive)
ROOT
HETATM    1  C1  UNL     1       9.607  23.047  13.535  1.00  0.00     0.204 A
HETATM    2  N1  UNL     1       8.679  23.680  14.104  1.00  0.00    -0.296 N
ATOM      3  H1  UNL     1       8.909  24.609  14.456  1.00  0.00     0.187 HD
HETATM    4  N2  UNL     1       7.423  23.259  14.293  1.00  0.00    -0.303 N
ATOM      5  H2  UNL     1       6.823  23.927  14.777  1.00  0.00     0.186 HD
HETATM    6  C2  UNL     1       6.852  22.184  13.978  1.00  0.00     0.174 A
HETATM    7  S1  UNL     1       7.855  20.975  13.127  1.00  0.00    -0.007 SA
HETATM    8  N3  UNL     1       9.423  21.755  13.005  1.00  0.00    -0.321 N
ATOM      9  H3  UNL     1      10.200  21.274  12.551  1.00  0.00     0.175 HD
ENDROOT
TORSDOF 0
ENDMDL