MODEL 3
REMARK VINA RESULT: -3.567727264      2.223      2.720
REMARK  1 active torsions:
REMARK  status: ('A' for Active; 'I' for Inactive)
REMARK    1  A    between atoms: S1_2  and  N1_3
ROOT
HETATM    1  C1  UNL     1       8.745  22.080  16.420  1.00  0.00     0.117 C
HETATM    2  S1  UNL     1       8.017  22.689  14.731  1.00  0.00    -0.074 SA
HETATM    3  C2  UNL     1       9.695  23.081  13.233  1.00  0.00     0.153 A
HETATM    4  N2  UNL     1       9.382  22.157  12.579  1.00  0.00    -0.355 N
ATOM      5  H2  UNL     1       9.999  22.067  11.773  1.00  0.00     0.166 HD
HETATM    6  C3  UNL     1       8.474  21.200  12.572  1.00  0.00     0.187 A
HETATM    7  N3  UNL     1       7.576  21.084  13.476  1.00  0.00    -0.325 N
ATOM      8  H3  UNL     1       6.837  20.387  13.561  1.00  0.00     0.175 HD
ENDROOT
BRANCH   2   9
HETATM    9  N1  UNL     1       6.768  24.114  14.626  1.00  0.00    -0.372 N
ATOM     10  H12 UNL     1       6.161  24.157  13.807  1.00  0.00     0.164 HD
ATOM     11  H11 UNL     1       6.691  24.823  15.356  1.00  0.00     0.164 HD
ENDBRANCH   2   9
TORSDOF 1
ENDMDL