MODEL 1
REMARK VINA RESULT: -4.713033944      0.000      0.000
REMARK  1 active torsions:
REMARK  status: ('A' for Active; 'I' for Inactive)
REMARK    1  A    between atoms: N3_7  and  O1_8
ROOT
HETATM    1  C1  UNL     1       8.736  21.442  14.253  1.00  0.00     0.095 C
HETATM    2  C2  UNL     1       8.685  21.370  12.763  1.00  0.00     0.142 A
HETATM    3  N1  UNL     1       8.235  20.480  11.862  1.00  0.00    -0.268 N
ATOM      4  H1  UNL     1       7.784  19.567  11.925  1.00  0.00     0.190 HD
HETATM    5  N2  UNL     1       8.608  21.258  10.858  1.00  0.00    -0.209 N
HETATM    6  C3  UNL     1       8.574  21.222   9.399  1.00  0.00     0.203 C
HETATM    7  N3  UNL     1       9.055  22.142  11.729  1.00  0.00    -0.133 N
ENDROOT
BRANCH   7   8
HETATM    8  O1  UNL     1       9.672  23.389  11.700  1.00  0.00    -0.265 OA
ATOM      9  H1  UNL     1       9.614  24.096  11.067  1.00  0.00     0.247 HD
ENDBRANCH   7   8
TORSDOF 1
ENDMDL