MODEL 1
REMARK VINA RESULT: -4.327874539      0.000      0.000
REMARK  2 active torsions:
REMARK  status: ('A' for Active; 'I' for Inactive)
REMARK    1  A    between atoms: N1_2  and  C3_4
REMARK    2  A    between atoms: C3_4  and  O1_5
ROOT
HETATM    1  C3  UNL     1       8.889  22.577  12.354  1.00  0.00     0.325 C
HETATM    2  C4  UNL     1       9.289  22.553  13.759  1.00  0.00     0.113 C
HETATM    3  N2  UNL     1       9.587  22.544  14.885  1.00  0.00    -0.193 NA
ENDROOT
BRANCH   1   4
HETATM    4  N1  UNL     1       8.645  21.300  11.843  1.00  0.00    -0.385 N
HETATM    5  C1  UNL     1       8.698  21.085  10.457  1.00  0.00     0.146 C
HETATM    6  C2  UNL     1       8.005  20.353  12.654  1.00  0.00     0.146 C
ENDBRANCH   1   4
BRANCH   1   7
HETATM    7  O1  UNL     1       9.705  23.385  11.566  1.00  0.00    -0.364 OA
ATOM      8  H1  UNL     1      10.576  23.043  11.402  1.00  0.00     0.213 HD
ENDBRANCH   1   7
TORSDOF 2
ENDMDL