MODEL 2
REMARK VINA RESULT: -5.052772273      0.117      1.146
REMARK  1 active torsions:
REMARK  status: ('A' for Active; 'I' for Inactive)
REMARK    1  A    between atoms: N1_2  and  N2_4
ROOT
HETATM    1  N2  UNL     1       9.080  22.196  12.840  1.00  0.00    -0.131 N
HETATM    2  C1  UNL     1       8.667  20.928  12.651  1.00  0.00     0.234 A
HETATM    3  N3  UNL     1       8.447  20.705  11.346  1.00  0.00    -0.344 N
ATOM      4  H3  UNL     1       8.129  19.832  10.925  1.00  0.00     0.167 HD
HETATM    5  C2  UNL     1       8.725  21.855  10.695  1.00  0.00     0.200 A
HETATM    6  N4  UNL     1       9.111  22.760  11.631  1.00  0.00    -0.270 N
ATOM      7  H4  UNL     1       9.383  23.724  11.439  1.00  0.00     0.190 HD
ENDROOT
BRANCH   1   8
HETATM    8  N1  UNL     1       9.412  22.781  14.063  1.00  0.00    -0.016 N
HETATM    9  O1  UNL     1       9.806  22.026  14.978  1.00  0.00    -0.515 OA
HETATM   10  O2  UNL     1       9.307  24.140  14.236  1.00  0.00    -0.515 OA
ENDBRANCH   1   8
TORSDOF 1
ENDMDL