MODEL 1
REMARK VINA RESULT: -4.092159243      0.000      0.000
REMARK  1 active torsions:
REMARK  status: ('A' for Active; 'I' for Inactive)
REMARK    1  A    between atoms: N2_5  and  O1_6
ROOT
HETATM    1  C1  UNL     1       9.482  21.387  16.065  1.00  0.00     0.150 C
HETATM    2  N1  UNL     1       8.970  21.759  14.754  1.00  0.00    -0.375 N
HETATM    3  C2  UNL     1       8.251  20.966  13.814  1.00  0.00     0.106 C
HETATM    4  C3  UNL     1       8.334  21.508  12.598  1.00  0.00     0.135 C
HETATM    5  N2  UNL     1       9.119  22.690  12.694  1.00  0.00    -0.253 N
HETATM    6  C4  UNL     1       9.084  23.065  14.099  1.00  0.00     0.278 C
ENDROOT
BRANCH   5   7
HETATM    7  O1  UNL     1       9.748  23.303  11.665  1.00  0.00    -0.286 OA
ATOM      8  H1  UNL     1      10.633  23.649  11.685  1.00  0.00     0.244 HD
ENDBRANCH   5   7
TORSDOF 1
ENDMDL