MODEL 3
REMARK VINA RESULT: -4.342560055      1.366      3.227
REMARK  0 active torsions:
REMARK  status: ('A' for Active; 'I' for Inactive)
ROOT
HETATM    1  C1  UNL     1       8.731  22.845  15.254  1.00  0.00     0.165 C
HETATM    2  N1  UNL     1       8.761  23.239  13.877  1.00  0.00    -0.230 N
ATOM      3  H1  UNL     1       8.791  24.238  13.672  1.00  0.00     0.177 HD
HETATM    4  C2  UNL     1       8.752  22.432  12.887  1.00  0.00     0.679 A
HETATM    5  N2  UNL     1       8.781  22.895  11.619  1.00  0.00    -0.188 N
ATOM      6  H2  UNL     1       8.810  23.905  11.471  1.00  0.00     0.185 HD
HETATM    7  C3  UNL     1       8.774  22.091  10.542  1.00  0.00     0.199 A
HETATM    8  N3  UNL     1       8.734  20.765  10.763  1.00  0.00    -0.348 N
ATOM      9  H3  UNL     1       8.726  20.116   9.977  1.00  0.00     0.167 HD
HETATM   10  C4  UNL     1       8.704  20.293  12.031  1.00  0.00     0.199 A
HETATM   11  N4  UNL     1       8.712  21.106  13.109  1.00  0.00    -0.188 N
ATOM     12  H4  UNL     1       8.687  20.728  14.056  1.00  0.00     0.185 HD
ENDROOT
TORSDOF 0
ENDMDL