MODEL 3
REMARK VINA RESULT: -4.105391386      1.548      3.846
REMARK  0 active torsions:
REMARK  status: ('A' for Active; 'I' for Inactive)
ROOT
HETATM    1  C1  UNL     1       8.750  20.977  16.291  1.00  0.00     0.147 C
HETATM    2  N1  UNL     1       9.197  22.046  15.452  1.00  0.00    -0.379 N
ATOM      3  H1  UNL     1       9.641  22.855  15.885  1.00  0.00     0.160 HD
HETATM    4  C2  UNL     1       9.059  22.027  14.157  1.00  0.00     0.131 A
HETATM    5  C3  UNL     1       9.498  23.070  13.372  1.00  0.00     0.138 A
HETATM    6  N2  UNL     1       9.333  23.001  12.041  1.00  0.00    -0.357 N
ATOM      7  H2  UNL     1       9.661  23.776  11.464  1.00  0.00     0.166 HD
HETATM    8  C4  UNL     1       8.749  21.943  11.439  1.00  0.00     0.197 A
HETATM    9  N3  UNL     1       8.330  20.941  12.234  1.00  0.00    -0.295 N
ATOM     10  H3  UNL     1       7.884  20.127  11.810  1.00  0.00     0.187 HD
HETATM   11  N4  UNL     1       8.479  20.980  13.545  1.00  0.00    -0.284 N
ATOM     12  H4  UNL     1       8.147  20.197  14.107  1.00  0.00     0.188 HD
ENDROOT
TORSDOF 0
ENDMDL