MODEL 4
REMARK VINA RESULT: -4.049254954      1.341      1.888
REMARK  3 active torsions:
REMARK  status: ('A' for Active; 'I' for Inactive)
REMARK    1  A    between atoms: C2_4  and  N3_5
REMARK    2  A    between atoms: N3_5  and  N4_7
REMARK    3  A    between atoms: N4_7  and  N5_8
ROOT
HETATM    1  N3  UNL     1       7.937  22.096  13.312  1.00  0.00    -0.216 N
ATOM      2  H3  UNL     1       7.327  21.278  13.319  1.00  0.00     0.200 HD
ENDROOT
BRANCH   1   3
HETATM    3  C2  UNL     1       8.109  22.800  14.553  1.00  0.00     0.313 A
HETATM    4  N1  UNL     1       7.618  24.093  14.741  1.00  0.00    -0.195 NA
HETATM    5  C1  UNL     1       7.492  24.596  16.097  1.00  0.00     0.136 C
HETATM    6  N2  UNL     1       9.068  23.910  14.446  1.00  0.00    -0.117 NA
ENDBRANCH   1   3
BRANCH   1   7
HETATM    7  N4  UNL     1       8.455  22.391  12.262  1.00  0.00    -0.246 NA
BRANCH   7   8
HETATM    8  N5  UNL     1       9.006  22.746  11.237  1.00  0.00    -0.261 N
ATOM      9  H52 UNL     1       9.718  22.738  11.967  1.00  0.00     0.193 HD
ATOM     10  H51 UNL     1       9.415  23.039  10.349  1.00  0.00     0.193 HD
ENDBRANCH   7   8
ENDBRANCH   1   7
TORSDOF 3
ENDMDL