MODEL 2
REMARK VINA RESULT: -7.214823212      1.112      1.299
REMARK  7 active torsions:
REMARK  status: ('A' for Active; 'I' for Inactive)
REMARK    1  A    between atoms: C2_2  and  C4_4
REMARK    2  A    between atoms: C2_2  and  C12_13
REMARK    3  A    between atoms: C4_4  and  C5_5
REMARK    4  A    between atoms: C9_9  and  C10_10
REMARK    5  A    between atoms: N1_15  and  C14_16
REMARK    6  A    between atoms: C14_16  and  C17_19
REMARK    7  A    between atoms: C17_19  and  O1_20
ROOT
HETATM    1  C12 UNL     1      17.119  -4.322  13.052  1.00  0.00     0.052 A
HETATM    2  C13 UNL     1      16.098  -5.239  13.324  1.00  0.00     0.140 A
HETATM    3  N1  UNL     1      15.877  -5.323  14.666  1.00  0.00    -0.276 N
HETATM    4  N2  UNL     1      16.729  -4.489  15.181  1.00  0.00    -0.240 N
ATOM      5  H2  UNL     1      16.814  -4.318  16.183  1.00  0.00     0.208 HD
HETATM    6  N3  UNL     1      17.480  -3.880  14.267  1.00  0.00    -0.288 N
ATOM      7  H3  UNL     1      18.208  -3.191  14.457  1.00  0.00     0.188 HD
ENDROOT
BRANCH   1   8
HETATM    8  C2  UNL     1      17.631  -3.990  11.698  1.00  0.00    -0.002 C
HETATM    9  C1  UNL     1      17.738  -5.199  10.877  1.00  0.00     0.021 C
HETATM   10  C3  UNL     1      19.140  -3.598  11.949  1.00  0.00     0.021 C
BRANCH   8  11
HETATM   11  C4  UNL     1      17.065  -2.751  11.157  1.00  0.00     0.019 C
BRANCH  11  12
HETATM   12  C5  UNL     1      15.917  -2.742  10.237  1.00  0.00    -0.013 C
HETATM   13  C6  UNL     1      16.029  -1.949   8.980  1.00  0.00     0.005 C
HETATM   14  C7  UNL     1      16.009  -0.451   9.288  1.00  0.00     0.001 C
HETATM   15  C8  UNL     1      14.596  -0.085   9.677  1.00  0.00     0.005 C
HETATM   16  C9  UNL     1      13.868  -1.303  10.158  1.00  0.00    -0.004 C
HETATM   17  C11 UNL     1      14.741  -2.178  11.032  1.00  0.00     0.010 C
BRANCH  16  18
HETATM   18  C10 UNL     1      12.757  -0.804  11.095  1.00  0.00     0.090 C
HETATM   19  S1  UNL     1      12.737  -1.798  12.624  1.00  0.00    -0.097 SA
ENDBRANCH  16  18
ENDBRANCH  11  12
ENDBRANCH   8  11
ENDBRANCH   1   8
BRANCH   3  20
HETATM   20  C14 UNL     1      14.890  -6.187  15.246  1.00  0.00     0.068 C
HETATM   21  C15 UNL     1      14.877  -7.503  14.461  1.00  0.00     0.042 C
HETATM   22  C16 UNL     1      13.484  -5.591  15.081  1.00  0.00     0.042 C
BRANCH  20  23
HETATM   23  C17 UNL     1      15.189  -6.427  16.688  1.00  0.00     0.196 C
BRANCH  23  24
HETATM   24  O1  UNL     1      14.124  -6.039  17.500  1.00  0.00    -0.398 OA
ATOM     25  H1  UNL     1      14.416  -5.836  18.381  1.00  0.00     0.209 HD
ENDBRANCH  23  24
ENDBRANCH  20  23
ENDBRANCH   3  20
TORSDOF 7
ENDMDL