MODEL 3
REMARK VINA RESULT: -6.763181424      2.708      3.955
REMARK  6 active torsions:
REMARK  status: ('A' for Active; 'I' for Inactive)
REMARK    1  A    between atoms: C3_3  and  C5_5
REMARK    2  A    between atoms: C6_6  and  N1_7
REMARK    3  A    between atoms: N3_19  and  O1_20
REMARK    4  A    between atoms: O1_20  and  C15_21
REMARK    5  A    between atoms: C15_21  and  C16_22
REMARK    6  A    between atoms: C18_25  and  O3_26
ROOT
HETATM    1  C5  UNL     1      15.246  -2.802  11.804  1.00  0.00     0.051 A
HETATM    2  C6  UNL     1      16.381  -3.193  12.471  1.00  0.00     0.073 A
HETATM    3  C13 UNL     1      17.447  -3.123  11.590  1.00  0.00     0.067 A
HETATM    4  C14 UNL     1      18.895  -3.440  11.869  1.00  0.00     0.073 C
HETATM    5  N3  UNL     1      16.999  -2.699  10.394  1.00  0.00    -0.201 N
HETATM    6  C18 UNL     1      15.681  -2.505  10.513  1.00  0.00     0.180 A
ENDROOT
BRANCH   2   7
HETATM    7  N1  UNL     1      16.477  -3.606  13.798  1.00  0.00    -0.344 N
HETATM    8  C7  UNL     1      16.331  -4.791  14.281  1.00  0.00     0.077 C
HETATM    9  C8  UNL     1      16.020  -5.844  13.321  1.00  0.00     0.076 C
HETATM   10  N2  UNL     1      16.509  -4.863  15.677  1.00  0.00    -0.380 N
HETATM   11  C9  UNL     1      14.945  -6.810  13.765  1.00  0.00     0.007 C
HETATM   12  C10 UNL     1      14.457  -6.566  15.171  1.00  0.00     0.002 C
HETATM   13  C11 UNL     1      15.532  -7.014  16.135  1.00  0.00     0.020 C
HETATM   14  C12 UNL     1      16.152  -5.775  16.712  1.00  0.00     0.121 C
ATOM     15  H2  UNL     1      17.023  -4.060  16.037  1.00  0.00     0.160 HD
ATOM     16  H1  UNL     1      16.690  -2.874  14.475  1.00  0.00     0.167 HD
ENDBRANCH   2   7
BRANCH   1  17
HETATM   17  C3  UNL     1      13.855  -2.652  12.239  1.00  0.00    -0.049 C
HETATM   18  C2  UNL     1      13.317  -1.505  12.571  1.00  0.00    -0.023 C
HETATM   19  C1  UNL     1      11.873  -1.493  13.012  1.00  0.00     0.036 C
HETATM   20  C4  UNL     1      12.986  -3.872  12.324  1.00  0.00     0.049 C
ENDBRANCH   1  17
BRANCH   6  21
HETATM   21  O3  UNL     1      14.896  -2.062   9.448  1.00  0.00    -0.344 OA
ATOM     22  H3  UNL     1      14.565  -1.182   9.313  1.00  0.00     0.219 HD
ENDBRANCH   6  21
BRANCH   5  23
HETATM   23  O1  UNL     1      17.801  -2.521   9.292  1.00  0.00    -0.268 OA
BRANCH  23  24
HETATM   24  C15 UNL     1      18.373  -1.286   8.970  1.00  0.00     0.236 C
BRANCH  24  25
HETATM   25  C16 UNL     1      19.881  -1.312   9.018  1.00  0.00     0.171 A
HETATM   26  C17 UNL     1      20.688  -1.332   7.830  1.00  0.00     0.202 A
HETATM   27  O2  UNL     1      20.404  -2.537   8.530  1.00  0.00    -0.379 OA
ENDBRANCH  24  25
ENDBRANCH  23  24
ENDBRANCH   5  23
TORSDOF 6
ENDMDL