MODEL 1
REMARK VINA RESULT: -7.431759522      0.000      0.000
REMARK  6 active torsions:
REMARK  status: ('A' for Active; 'I' for Inactive)
REMARK    1  A    between atoms: C3_5  and  S1_6
REMARK    2  A    between atoms: S1_6  and  C4_7
REMARK    3  A    between atoms: C4_7  and  C5_8
REMARK    4  A    between atoms: N2_18  and  N3_19
REMARK    5  A    between atoms: C15_22  and  N4_23
REMARK    6  A    between atoms: N4_23  and  C16_25
ROOT
HETATM    1  C1  UNL     1      18.123  -7.237  17.491  1.00  0.00     0.072 C
HETATM    2  C2  UNL     1      17.044  -6.463  16.832  1.00  0.00     0.053 A
HETATM    3  N1  UNL     1      17.162  -5.274  16.221  1.00  0.00    -0.336 N
ATOM      4  H1  UNL     1      18.032  -4.749  16.135  1.00  0.00     0.168 HD
HETATM    5  C3  UNL     1      15.977  -4.875  15.740  1.00  0.00     0.167 A
HETATM    6  N2  UNL     1      15.051  -5.836  16.046  1.00  0.00    -0.222 N
HETATM    7  C15 UNL     1      15.694  -6.811  16.716  1.00  0.00     0.147 A
ENDROOT
BRANCH   5   8
HETATM    8  S1  UNL     1      15.588  -3.376  14.848  1.00  0.00    -0.091 SA
BRANCH   8   9
HETATM    9  C4  UNL     1      15.407  -3.811  13.100  1.00  0.00     0.092 C
BRANCH   9  10
HETATM   10  C5  UNL     1      14.148  -3.235  12.501  1.00  0.00    -0.030 C
HETATM   11  C6  UNL     1      13.713  -2.082  13.381  1.00  0.00     0.015 C
HETATM   12  C7  UNL     1      12.464  -1.456  12.807  1.00  0.00    -0.013 C
HETATM   13  C8  UNL     1      12.838  -0.892  11.443  1.00  0.00     0.009 C
HETATM   14  C12 UNL     1      11.366  -2.470  12.696  1.00  0.00     0.009 C
HETATM   15  C9  UNL     1      13.292  -2.012  10.554  1.00  0.00    -0.013 C
HETATM   16  C10 UNL     1      12.152  -3.005  10.441  1.00  0.00     0.009 C
HETATM   17  C14 UNL     1      14.502  -2.668  11.151  1.00  0.00     0.015 C
HETATM   18  C11 UNL     1      11.840  -3.598  11.775  1.00  0.00    -0.013 C
HETATM   19  C13 UNL     1      13.032  -4.224  12.453  1.00  0.00     0.015 C
ENDBRANCH   9  10
ENDBRANCH   8   9
ENDBRANCH   5   8
BRANCH   6  20
HETATM   20  N3  UNL     1      13.701  -5.772  15.691  1.00  0.00    -0.335 N
ATOM     21  H32 UNL     1      12.883  -5.789  16.300  1.00  0.00     0.177 HD
ATOM     22  H31 UNL     1      13.360  -5.709  14.731  1.00  0.00     0.177 HD
ENDBRANCH   6  20
BRANCH   7  23
HETATM   23  N4  UNL     1      15.171  -8.019  17.221  1.00  0.00    -0.369 N
ATOM     24  H4  UNL     1      14.668  -7.957  18.107  1.00  0.00     0.161 HD
BRANCH  23  25
HETATM   25  C16 UNL     1      15.262  -9.319  16.639  1.00  0.00     0.075 C
HETATM   26  C17 UNL     1      14.770  -9.261  15.198  1.00  0.00     0.031 C
HETATM   27  C18 UNL     1      14.383 -10.317  17.366  1.00  0.00     0.031 C
ENDBRANCH  23  25
ENDBRANCH   7  23
TORSDOF 6
ENDMDL