MODEL 1
REMARK VINA RESULT: -8.056916918      0.000      0.000
REMARK  7 active torsions:
REMARK  status: ('A' for Active; 'I' for Inactive)
REMARK    1  A    between atoms: C3_4  and  O2_5
REMARK    2  A    between atoms: C4_7  and  C5_8
REMARK    3  A    between atoms: C5_8  and  C6_10
REMARK    4  A    between atoms: C6_10  and  C8_12
REMARK    5  A    between atoms: C9_13  and  C10_14
REMARK    6  A    between atoms: C10_14  and  C11_16
REMARK    7  A    between atoms: C19_24  and  O5_25
ROOT
HETATM    1  C6  UNL     1      17.606  -1.652   9.332  1.00  0.00     0.079 C
HETATM    2  C7  UNL     1      16.961  -0.585   8.512  1.00  0.00     0.022 C
ENDROOT
BRANCH   1   3
HETATM    3  C5  UNL     1      19.042  -1.487   9.587  1.00  0.00     0.174 C
HETATM    4  O3  UNL     1      19.308  -0.708  10.592  1.00  0.00    -0.291 OA
BRANCH   3   5
HETATM    5  C4  UNL     1      20.160  -2.052   8.897  1.00  0.00     0.104 A
HETATM    6  C3  UNL     1      20.931  -1.478   7.932  1.00  0.00     0.200 A
HETATM    7  O1  UNL     1      21.880  -2.332   7.545  1.00  0.00    -0.289 OA
HETATM    8  C2  UNL     1      21.796  -3.438   8.185  1.00  0.00     0.086 A
HETATM    9  C1  UNL     1      22.689  -4.609   8.011  1.00  0.00     0.079 C
HETATM   10  C19 UNL     1      20.708  -3.324   9.072  1.00  0.00     0.114 A
BRANCH   6  11
HETATM   11  O2  UNL     1      20.895  -0.229   7.321  1.00  0.00    -0.340 OA
ATOM     12  H2  UNL     1      20.058   0.083   6.999  1.00  0.00     0.220 HD
ENDBRANCH   6  11
BRANCH  10  13
HETATM   13  O5  UNL     1      20.329  -4.320   9.913  1.00  0.00    -0.357 OA
ATOM     14  H5  UNL     1      19.511  -4.309  10.396  1.00  0.00     0.217 HD
ENDBRANCH  10  13
ENDBRANCH   3   5
ENDBRANCH   1   3
BRANCH   1  15
HETATM   15  C8  UNL     1      16.906  -1.967  10.587  1.00  0.00    -0.011 C
HETATM   16  C9  UNL     1      15.832  -2.780  10.608  1.00  0.00     0.047 C
BRANCH  16  17
HETATM   17  C10 UNL     1      15.119  -3.112  11.817  1.00  0.00     0.153 C
HETATM   18  O4  UNL     1      15.420  -4.194  12.383  1.00  0.00    -0.293 OA
BRANCH  17  19
HETATM   19  C11 UNL     1      14.077  -2.266  12.410  1.00  0.00     0.067 C
HETATM   20  C12 UNL     1      13.427  -1.411  11.343  1.00  0.00    -0.007 C
HETATM   21  C13 UNL     1      12.595  -0.356  12.036  1.00  0.00     0.011 C
HETATM   22  C14 UNL     1      12.640  -2.182  10.345  1.00  0.00     0.005 C
HETATM   23  C15 UNL     1      11.864  -3.343  10.861  1.00  0.00     0.001 C
HETATM   24  C16 UNL     1      12.413  -4.005  12.085  1.00  0.00     0.005 C
HETATM   25  C17 UNL     1      12.957  -3.025  13.077  1.00  0.00    -0.007 C
HETATM   26  C18 UNL     1      13.283  -3.633  14.385  1.00  0.00     0.011 C
ENDBRANCH  17  19
ENDBRANCH  16  17
ENDBRANCH   1  15
TORSDOF 7
ENDMDL