MODEL 5
REMARK VINA RESULT: -7.588109200      3.021      5.315
REMARK  6 active torsions:
REMARK  status: ('A' for Active; 'I' for Inactive)
REMARK    1  A    between atoms: C3_3  and  C5_5
REMARK    2  A    between atoms: C5_5  and  C7_7
REMARK    3  A    between atoms: C7_7  and  C8_8
REMARK    4  A    between atoms: C9_9  and  C10_10
REMARK    5  A    between atoms: N1_13  and  O1_15
REMARK    6  A    between atoms: O1_15  and  C13_16
ROOT
HETATM    1  C10 UNL     1      16.676  -5.140  13.645  1.00  0.00     0.044 C
HETATM    2  C11 UNL     1      17.479  -4.546  12.556  1.00  0.00     0.070 C
HETATM    3  C12 UNL     1      17.477  -5.272  11.282  1.00  0.00     0.034 C
HETATM    4  N1  UNL     1      18.168  -4.810  10.300  1.00  0.00    -0.262 N
ATOM      5  H1  UNL     1      18.156  -5.326   9.420  1.00  0.00     0.194 HD
HETATM    6  C15 UNL     1      16.688  -6.491  11.181  1.00  0.00     0.037 C
HETATM    7  C16 UNL     1      16.217  -7.137  12.231  1.00  0.00    -0.013 C
HETATM    8  C17 UNL     1      15.424  -8.338  12.479  1.00  0.00     0.112 C
HETATM    9  N2  UNL     1      14.924  -8.263  13.669  1.00  0.00    -0.314 N
ATOM     10  H2  UNL     1      14.328  -8.974  14.091  1.00  0.00     0.181 HD
HETATM   11  N3  UNL     1      15.311  -7.076  14.297  1.00  0.00    -0.126 NA
HETATM   12  C18 UNL     1      16.492  -6.616  13.599  1.00  0.00     0.082 C
HETATM   13  C19 UNL     1      17.695  -7.276  14.227  1.00  0.00     0.042 C
ENDROOT
BRANCH   1  14
HETATM   14  C9  UNL     1      15.344  -4.463  13.667  1.00  0.00    -0.023 C
HETATM   15  C8  UNL     1      15.206  -3.167  13.315  1.00  0.00    -0.029 C
BRANCH  15  16
HETATM   16  C7  UNL     1      13.900  -2.507  13.338  1.00  0.00     0.035 C
BRANCH  16  17
HETATM   17  C5  UNL     1      13.263  -2.190  12.036  1.00  0.00     0.013 C
HETATM   18  C6  UNL     1      12.327  -3.351  11.650  1.00  0.00     0.015 C
BRANCH  17  19
HETATM   19  C3  UNL     1      12.592  -0.906  11.942  1.00  0.00    -0.084 C
HETATM   20  C2  UNL     1      12.898  -0.062  10.966  1.00  0.00    -0.028 C
HETATM   21  C1  UNL     1      13.956  -0.423   9.993  1.00  0.00     0.036 C
HETATM   22  C4  UNL     1      11.528  -0.501  12.890  1.00  0.00     0.043 C
ENDBRANCH  17  19
ENDBRANCH  16  17
ENDBRANCH  15  16
ENDBRANCH   1  14
BRANCH   4  23
HETATM   23  O1  UNL     1      18.916  -3.670  10.370  1.00  0.00    -0.200 OA
BRANCH  23  24
HETATM   24  C13 UNL     1      18.636  -2.569   9.569  1.00  0.00     0.277 C
HETATM   25  C14 UNL     1      17.299  -1.963   9.439  1.00  0.00     0.128 C
HETATM   26  O2  UNL     1      19.608  -2.082   8.926  1.00  0.00    -0.264 OA
ENDBRANCH  23  24
ENDBRANCH   4  23
TORSDOF 6
ENDMDL