MODEL 2
REMARK VINA RESULT: -7.067178253      2.882      5.328
REMARK  8 active torsions:
REMARK  status: ('A' for Active; 'I' for Inactive)
REMARK    1  A    between atoms: O1_2  and  C2_3
REMARK    2  A    between atoms: C3_4  and  O2_5
REMARK    3  A    between atoms: C4_7  and  C5_8
REMARK    4  A    between atoms: C5_8  and  N1_9
REMARK    5  A    between atoms: N1_9  and  C6_11
REMARK    6  A    between atoms: C12_19  and  C13_20
REMARK    7  A    between atoms: C14_21  and  C16_23
REMARK    8  A    between atoms: C19_26  and  O3_27
ROOT
HETATM    1  C2  UNL     1      18.544  -1.874   9.382  1.00  0.00     0.139 A
HETATM    2  C3  UNL     1      17.390  -1.154   9.338  1.00  0.00     0.130 A
HETATM    3  C4  UNL     1      16.182  -1.743   9.683  1.00  0.00     0.084 A
HETATM    4  N2  UNL     1      16.122  -3.023  10.067  1.00  0.00    -0.351 N
ATOM      5  H2  UNL     1      15.227  -3.443  10.317  1.00  0.00     0.166 HD
HETATM    6  C12 UNL     1      17.273  -3.770  10.121  1.00  0.00     0.069 A
HETATM    7  C19 UNL     1      18.482  -3.211   9.783  1.00  0.00     0.129 A
ENDROOT
BRANCH   3   8
HETATM    8  C5  UNL     1      14.988  -0.898   9.606  1.00  0.00     0.116 C
BRANCH   8   9
HETATM    9  N1  UNL     1      13.854  -1.300  10.004  1.00  0.00    -0.392 N
ATOM     10  H1  UNL     1      13.147  -1.506   9.297  1.00  0.00     0.159 HD
BRANCH   9  11
HETATM   11  C6  UNL     1      13.496  -1.487  11.396  1.00  0.00     0.081 C
HETATM   12  C7  UNL     1      12.908  -2.856  11.562  1.00  0.00     0.025 C
HETATM   13  C8  UNL     1      12.156  -3.033  12.847  1.00  0.00     0.002 C
HETATM   14  C9  UNL     1      11.101  -1.990  13.021  1.00  0.00     0.000 C
HETATM   15  C10 UNL     1      11.747  -0.637  12.988  1.00  0.00     0.002 C
HETATM   16  C11 UNL     1      12.545  -0.376  11.759  1.00  0.00     0.025 C
ENDBRANCH   9  11
ENDBRANCH   8   9
ENDBRANCH   3   8
BRANCH   2  17
HETATM   17  O2  UNL     1      17.411   0.173   8.946  1.00  0.00    -0.356 OA
ATOM     18  H2  UNL     1      16.802   0.488   8.288  1.00  0.00     0.218 HD
ENDBRANCH   2  17
BRANCH   1  19
HETATM   19  O1  UNL     1      19.789  -1.359   9.053  1.00  0.00    -0.351 OA
HETATM   20  C1  UNL     1      20.342  -1.338   7.778  1.00  0.00     0.210 C
ENDBRANCH   1  19
BRANCH   6  21
HETATM   21  C13 UNL     1      17.136  -5.174  10.511  1.00  0.00     0.035 C
HETATM   22  C14 UNL     1      16.965  -5.653  11.696  1.00  0.00    -0.078 C
HETATM   23  C15 UNL     1      16.872  -4.813  12.910  1.00  0.00     0.044 C
BRANCH  22  24
HETATM   24  C16 UNL     1      16.847  -7.134  11.934  1.00  0.00     0.006 C
HETATM   25  C17 UNL     1      18.034  -7.675  12.679  1.00  0.00     0.014 C
HETATM   26  C18 UNL     1      15.542  -7.383  12.617  1.00  0.00     0.014 C
ENDBRANCH  22  24
ENDBRANCH   6  21
BRANCH   7  27
HETATM   27  O3  UNL     1      19.664  -3.971   9.828  1.00  0.00    -0.356 OA
ATOM     28  H3  UNL     1      20.345  -3.810   9.186  1.00  0.00     0.218 HD
ENDBRANCH   7  27
TORSDOF 8
ENDMDL