MODEL 4
REMARK VINA RESULT: -7.093419410      1.509      3.077
REMARK  7 active torsions:
REMARK  status: ('A' for Active; 'I' for Inactive)
REMARK    1  A    between atoms: C3_3  and  C4_4
REMARK    2  A    between atoms: C5_5  and  C6_6
REMARK    3  A    between atoms: C6_6  and  O2_8
REMARK    4  A    between atoms: O2_8  and  C7_9
REMARK    5  A    between atoms: C7_9  and  C8_10
REMARK    6  A    between atoms: C13_16  and  O4_17
REMARK    7  A    between atoms: C17_24  and  C18_25
ROOT
HETATM    1  C8  UNL     1      15.005  -2.187  11.288  1.00  0.00     0.016 C
HETATM    2  C9  UNL     1      15.936  -3.204  12.018  1.00  0.00     0.012 C
HETATM    3  C10 UNL     1      16.137  -2.891  13.453  1.00  0.00     0.043 C
HETATM    4  C11 UNL     1      15.387  -3.906  14.254  1.00  0.00    -0.004 A
HETATM    5  C12 UNL     1      15.854  -4.447  15.409  1.00  0.00     0.154 A
HETATM    6  O3  UNL     1      14.960  -5.314  15.878  1.00  0.00    -0.298 OA
HETATM    7  C13 UNL     1      13.923  -5.377  15.097  1.00  0.00     0.210 A
HETATM    8  C14 UNL     1      14.134  -4.499  14.040  1.00  0.00     0.095 A
HETATM    9  N1  UNL     1      13.166  -4.352  13.020  1.00  0.00    -0.381 N
ATOM     10  H1  UNL     1      12.479  -5.106  13.044  1.00  0.00     0.160 HD
HETATM   11  C15 UNL     1      12.888  -3.417  11.949  1.00  0.00     0.082 C
HETATM   12  C16 UNL     1      11.390  -3.133  11.995  1.00  0.00     0.032 C
HETATM   13  C17 UNL     1      13.704  -2.181  11.974  1.00  0.00     0.013 C
ENDROOT
BRANCH   1  14
HETATM   14  C7  UNL     1      15.149  -2.476   9.856  1.00  0.00     0.184 C
BRANCH  14  15
HETATM   15  O2  UNL     1      15.756  -1.778   8.920  1.00  0.00    -0.318 OA
BRANCH  15  16
HETATM   16  C6  UNL     1      16.523  -0.716   8.741  1.00  0.00     0.282 C
HETATM   17  O1  UNL     1      16.001   0.426   8.806  1.00  0.00    -0.260 OA
BRANCH  16  18
HETATM   18  C5  UNL     1      17.972  -0.765   8.468  1.00  0.00     0.082 C
HETATM   19  C4  UNL     1      18.722  -1.659   9.081  1.00  0.00     0.006 C
BRANCH  19  20
HETATM   20  C3  UNL     1      20.142  -1.720   8.825  1.00  0.00    -0.004 C
HETATM   21  C2  UNL     1      20.619  -1.258   7.693  1.00  0.00    -0.031 C
HETATM   22  C1  UNL     1      22.069  -1.287   7.358  1.00  0.00     0.036 C
ENDBRANCH  19  20
ENDBRANCH  16  18
ENDBRANCH  15  16
ENDBRANCH  14  15
ENDBRANCH   1  14
BRANCH  13  23
HETATM   23  C18 UNL     1      12.938  -0.880  11.895  1.00  0.00     0.002 C
HETATM   24  C19 UNL     1      12.969  -0.341  10.454  1.00  0.00     0.005 C
ENDBRANCH  13  23
BRANCH   7  25
HETATM   25  O4  UNL     1      12.810  -6.170  15.281  1.00  0.00    -0.339 OA
ATOM     26  H4  UNL     1      12.710  -7.072  15.002  1.00  0.00     0.220 HD
ENDBRANCH   7  25
TORSDOF 7
ENDMDL