MODEL 4
REMARK VINA RESULT: -6.839233693      1.910      6.281
REMARK  8 active torsions:
REMARK  status: ('A' for Active; 'I' for Inactive)
REMARK    1  A    between atoms: C2_2  and  C3_3
REMARK    2  A    between atoms: C3_3  and  O1_4
REMARK    3  A    between atoms: C6_8  and  O2_9
REMARK    4  A    between atoms: C9_13  and  O3_14
REMARK    5  A    between atoms: O3_14  and  C10_15
REMARK    6  A    between atoms: C10_15  and  C11_16
REMARK    7  A    between atoms: C15_20  and  O4_21
REMARK    8  A    between atoms: C17_23  and  O5_24
ROOT
HETATM    1  C3  UNL     1      16.659  -3.639  10.802  1.00  0.00     0.105 C
HETATM    2  C4  UNL     1      16.209  -3.340   9.361  1.00  0.00     0.050 C
HETATM    3  C5  UNL     1      16.049  -1.845   9.202  1.00  0.00     0.040 C
HETATM    4  C6  UNL     1      15.104  -1.258  10.194  1.00  0.00     0.152 C
HETATM    5  C7  UNL     1      14.777  -2.177  11.315  1.00  0.00    -0.015 A
HETATM    6  C8  UNL     1      13.663  -1.857  12.090  1.00  0.00     0.050 A
HETATM    7  C9  UNL     1      13.300  -2.662  13.156  1.00  0.00     0.105 A
HETATM    8  C15 UNL     1      14.028  -3.789  13.476  1.00  0.00     0.135 A
HETATM    9  C17 UNL     1      15.143  -4.124  12.717  1.00  0.00     0.114 A
HETATM   10  C19 UNL     1      15.480  -3.306  11.659  1.00  0.00     0.025 A
ENDROOT
BRANCH   7  11
HETATM   11  O3  UNL     1      12.179  -2.276  13.877  1.00  0.00    -0.344 OA
BRANCH  11  12
HETATM   12  C10 UNL     1      10.968  -1.904  13.278  1.00  0.00     0.203 C
BRANCH  12  13
HETATM   13  C11 UNL     1      10.698  -0.463  13.469  1.00  0.00     0.001 C
HETATM   14  C12 UNL     1       9.505  -0.028  13.818  1.00  0.00    -0.089 C
HETATM   15  C13 UNL     1       8.372  -0.989  14.035  1.00  0.00     0.042 C
HETATM   16  C14 UNL     1       9.220   1.420  14.011  1.00  0.00     0.042 C
ENDBRANCH  12  13
ENDBRANCH  11  12
ENDBRANCH   7  11
BRANCH   8  17
HETATM   17  O4  UNL     1      13.639  -4.556  14.535  1.00  0.00    -0.351 OA
HETATM   18  C16 UNL     1      12.980  -5.780  14.505  1.00  0.00     0.210 C
ENDBRANCH   8  17
BRANCH   9  19
HETATM   19  O5  UNL     1      15.903  -5.250  13.007  1.00  0.00    -0.352 OA
HETATM   20  C18 UNL     1      16.757  -5.362  14.116  1.00  0.00     0.210 C
ENDBRANCH   9  19
BRANCH   4  21
HETATM   21  O2  UNL     1      13.878  -1.019   9.544  1.00  0.00    -0.391 OA
ATOM     22  H2  UNL     1      13.181  -1.111  10.183  1.00  0.00     0.210 HD
ENDBRANCH   4  21
BRANCH   1  23
HETATM   23  C2  UNL     1      17.825  -2.766  11.083  1.00  0.00     0.005 C
HETATM   24  C1  UNL     1      18.823  -3.078  11.861  1.00  0.00     0.010 C
ENDBRANCH   1  23
BRANCH   1  25
HETATM   25  O1  UNL     1      17.062  -4.946  10.873  1.00  0.00    -0.381 OA
ATOM     26  H1  UNL     1      16.874  -5.274  11.745  1.00  0.00     0.211 HD
ENDBRANCH   1  25
TORSDOF 8
ENDMDL