MODEL 1
REMARK VINA RESULT: -7.644101030      0.000      0.000
REMARK  6 active torsions:
REMARK  status: ('A' for Active; 'I' for Inactive)
REMARK    1  A    between atoms: C4_4  and  C5_5
REMARK    2  A    between atoms: C13_15  and  O3_16
REMARK    3  A    between atoms: O3_16  and  C14_17
REMARK    4  A    between atoms: C14_17  and  C15_18
REMARK    5  A    between atoms: C16_19  and  C17_20
REMARK    6  A    between atoms: C17_20  and  O4_21
ROOT
HETATM    1  C5  UNL     1      17.246  -3.525  10.923  1.00  0.00     0.013 C
HETATM    2  C6  UNL     1      17.870  -4.851  10.723  1.00  0.00     0.038 C
HETATM    3  C7  UNL     1      16.925  -6.024  10.832  1.00  0.00     0.210 C
HETATM    4  O1  UNL     1      16.447  -6.005  12.162  1.00  0.00    -0.240 OA
HETATM    5  O2  UNL     1      15.257  -5.501  12.099  1.00  0.00    -0.230 OA
HETATM    6  C8  UNL     1      15.234  -4.113  12.375  1.00  0.00     0.099 C
HETATM    7  C9  UNL     1      15.943  -3.761  13.626  1.00  0.00     0.041 C
HETATM    8  C10 UNL     1      15.156  -2.881  14.579  1.00  0.00     0.003 C
HETATM    9  C11 UNL     1      14.349  -3.770  15.465  1.00  0.00     0.002 C
HETATM   10  C12 UNL     1      13.644  -4.802  14.670  1.00  0.00     0.032 C
HETATM   11  C13 UNL     1      12.947  -4.331  13.449  1.00  0.00     0.124 C
HETATM   12  C18 UNL     1      13.771  -3.740  12.378  1.00  0.00     0.073 C
HETATM   13  C19 UNL     1      15.798  -3.469  11.128  1.00  0.00     0.050 C
ENDROOT
BRANCH  11  14
HETATM   14  O3  UNL     1      11.888  -3.475  13.678  1.00  0.00    -0.382 OA
BRANCH  14  15
HETATM   15  C14 UNL     1      11.738  -2.436  12.813  1.00  0.00     0.195 C
BRANCH  15  16
HETATM   16  C15 UNL     1      10.835  -1.442  13.435  1.00  0.00    -0.003 C
HETATM   17  C16 UNL     1       9.535  -1.649  13.504  1.00  0.00    -0.003 C
BRANCH  17  18
HETATM   18  C17 UNL     1       8.582  -0.691  14.114  1.00  0.00     0.191 C
BRANCH  18  19
HETATM   19  O4  UNL     1       7.583  -1.337  14.815  1.00  0.00    -0.397 OA
ATOM     20  H4  UNL     1       7.161  -0.760  15.441  1.00  0.00     0.209 HD
ENDBRANCH  18  19
ENDBRANCH  17  18
ENDBRANCH  15  16
ENDBRANCH  14  15
ENDBRANCH  11  14
BRANCH   1  21
HETATM   21  C4  UNL     1      17.512  -2.724   9.665  1.00  0.00    -0.020 C
HETATM   22  C2  UNL     1      18.282  -1.672   9.615  1.00  0.00    -0.091 C
HETATM   23  C1  UNL     1      19.008  -1.113  10.790  1.00  0.00     0.042 C
HETATM   24  C3  UNL     1      18.459  -0.974   8.311  1.00  0.00     0.042 C
ENDBRANCH   1  21
TORSDOF 6
ENDMDL