MODEL 3
REMARK VINA RESULT: -6.992340314      1.338      4.444
REMARK  7 active torsions:
REMARK  status: ('A' for Active; 'I' for Inactive)
REMARK    1  A    between atoms: C2_2  and  C3_3
REMARK    2  A    between atoms: C3_3  and  O1_4
REMARK    3  A    between atoms: C3_3  and  C15_25
REMARK    4  A    between atoms: O1_4  and  C4_5
REMARK    5  A    between atoms: C8_14  and  N4_15
REMARK    6  A    between atoms: C9_18  and  O2_19
REMARK    7  A    between atoms: O2_19  and  C10_20
ROOT
HETATM    1  C4  UNL     1      15.577  -3.187  10.539  1.00  0.00     0.182 A
HETATM    2  N1  UNL     1      16.022  -2.110   9.871  1.00  0.00    -0.319 N
ATOM      3  H1  UNL     1      15.357  -1.369   9.650  1.00  0.00     0.169 HD
HETATM    4  C5  UNL     1      17.286  -1.960   9.481  1.00  0.00     0.132 A
HETATM    5  C6  UNL     1      17.933  -0.951   8.798  1.00  0.00     0.069 A
HETATM    6  C7  UNL     1      19.238  -1.379   8.698  1.00  0.00     0.111 A
HETATM    7  N2  UNL     1      19.313  -2.565   9.295  1.00  0.00    -0.302 N
ATOM      8  H2  UNL     1      20.170  -3.113   9.368  1.00  0.00     0.186 HD
HETATM    9  N3  UNL     1      18.145  -2.951   9.783  1.00  0.00    -0.221 N
HETATM   10  C8  UNL     1      17.775  -4.056  10.449  1.00  0.00     0.161 A
HETATM   11  C9  UNL     1      16.472  -4.191  10.840  1.00  0.00     0.166 A
ENDROOT
BRANCH   1  12
HETATM   12  O1  UNL     1      14.245  -3.256  10.904  1.00  0.00    -0.327 OA
BRANCH  12  13
HETATM   13  C3  UNL     1      13.680  -2.092  11.548  1.00  0.00     0.137 C
BRANCH  13  14
HETATM   14  C2  UNL     1      12.933  -1.368  10.496  1.00  0.00     0.029 C
HETATM   15  C1  UNL     1      13.279   0.079  10.350  1.00  0.00     0.007 C
ENDBRANCH  13  14
BRANCH  13  16
HETATM   16  C15 UNL     1      12.929  -2.526  12.759  1.00  0.00    -0.025 C
HETATM   17  C16 UNL     1      12.346  -3.935  12.447  1.00  0.00     0.017 C
HETATM   18  C17 UNL     1      11.769  -1.647  13.103  1.00  0.00     0.017 C
HETATM   19  C18 UNL     1      13.784  -2.749  13.961  1.00  0.00     0.017 C
ENDBRANCH  13  16
ENDBRANCH  12  13
ENDBRANCH   1  12
BRANCH  11  20
HETATM   20  O2  UNL     1      16.043  -5.316  11.530  1.00  0.00    -0.338 OA
BRANCH  20  21
HETATM   21  C10 UNL     1      15.723  -5.315  12.895  1.00  0.00     0.129 C
HETATM   22  C11 UNL     1      16.956  -5.583  13.768  1.00  0.00     0.032 C
HETATM   23  C12 UNL     1      16.272  -5.780  15.127  1.00  0.00     0.002 C
HETATM   24  C13 UNL     1      14.965  -6.466  14.813  1.00  0.00     0.002 C
HETATM   25  C14 UNL     1      14.835  -6.469  13.298  1.00  0.00     0.032 C
ENDBRANCH  20  21
ENDBRANCH  11  20
BRANCH  10  26
HETATM   26  N4  UNL     1      18.663  -4.964  10.701  1.00  0.00    -0.382 N
ATOM     27  H42 UNL     1      19.623  -4.889  10.363  1.00  0.00     0.157 HD
ATOM     28  H41 UNL     1      18.395  -5.778  11.255  1.00  0.00     0.157 HD
ENDBRANCH  10  26
TORSDOF 7
ENDMDL