MODEL 5
REMARK VINA RESULT: -7.516978206      3.021      4.838
REMARK  7 active torsions:
REMARK  status: ('A' for Active; 'I' for Inactive)
REMARK    1  A    between atoms: C9_9  and  O1_10
REMARK    2  A    between atoms: C12_14  and  O2_15
REMARK    3  A    between atoms: C13_17  and  C14_18
REMARK    4  A    between atoms: C14_18  and  C15_19
REMARK    5  A    between atoms: C15_19  and  C16_20
REMARK    6  A    between atoms: C16_20  and  C18_22
REMARK    7  A    between atoms: C18_22  and  C19_23
ROOT
HETATM    1  C1  UNL     1       9.098  -5.374  15.815  1.00  0.00     0.015 C
HETATM    2  C2  UNL     1       8.009  -6.009  16.166  1.00  0.00    -0.082 C
HETATM    3  C3  UNL     1       8.035  -7.466  16.400  1.00  0.00     0.034 C
HETATM    4  C4  UNL     1       7.064  -8.088  15.434  1.00  0.00     0.013 C
HETATM    5  C5  UNL     1       6.174  -7.174  14.681  1.00  0.00     0.031 C
HETATM    6  C6  UNL     1       5.090  -7.984  14.037  1.00  0.00    -0.015 C
HETATM    7  C7  UNL     1       5.677  -8.601  12.790  1.00  0.00     0.018 C
HETATM    8  C8  UNL     1       4.632  -9.143  14.909  1.00  0.00     0.018 C
HETATM    9  C9  UNL     1       3.862  -7.161  13.768  1.00  0.00     0.126 C
HETATM   10  C10 UNL     1       3.309  -6.690  15.093  1.00  0.00     0.035 C
HETATM   11  C11 UNL     1       4.314  -6.163  16.043  1.00  0.00     0.041 C
HETATM   12  C12 UNL     1       5.665  -5.957  15.394  1.00  0.00     0.070 C
HETATM   13  C13 UNL     1       6.680  -5.372  16.347  1.00  0.00     0.048 C
ENDROOT
BRANCH  13  14
HETATM   14  C14 UNL     1       6.263  -5.506  17.769  1.00  0.00     0.012 C
BRANCH  14  15
HETATM   15  C15 UNL     1       7.140  -4.854  18.777  1.00  0.00     0.005 C
BRANCH  15  16
HETATM   16  C16 UNL     1       6.736  -3.509  19.223  1.00  0.00    -0.009 C
HETATM   17  C17 UNL     1       7.404  -2.394  18.422  1.00  0.00     0.010 C
BRANCH  16  18
HETATM   18  C18 UNL     1       5.263  -3.297  19.026  1.00  0.00     0.117 C
BRANCH  18  19
HETATM   19  C19 UNL     1       4.404  -3.366  20.195  1.00  0.00     0.172 C
HETATM   20  O3  UNL     1       3.985  -2.351  20.785  1.00  0.00    -0.648 OA
HETATM   21  O4  UNL     1       3.986  -4.592  20.741  1.00  0.00    -0.648 OA
ENDBRANCH  18  19
ENDBRANCH  16  18
ENDBRANCH  15  16
ENDBRANCH  14  15
ENDBRANCH  13  14
BRANCH  12  22
HETATM   22  O2  UNL     1       5.429  -4.952  14.449  1.00  0.00    -0.389 OA
ATOM     23  H2  UNL     1       5.563  -4.108  14.864  1.00  0.00     0.210 HD
ENDBRANCH  12  22
BRANCH   9  24
HETATM   24  O1  UNL     1       2.835  -7.965  13.234  1.00  0.00    -0.395 OA
ATOM     25  H1  UNL     1       2.652  -8.697  13.810  1.00  0.00     0.210 HD
ENDBRANCH   9  24
TORSDOF 7
ENDMDL