MODEL 2
REMARK VINA RESULT: -7.925203187      2.934      7.368
REMARK  7 active torsions:
REMARK  status: ('A' for Active; 'I' for Inactive)
REMARK    1  A    between atoms: C4_4  and  C5_5
REMARK    2  A    between atoms: C7_8  and  O2_9
REMARK    3  A    between atoms: O2_9  and  C8_10
REMARK    4  A    between atoms: C8_10  and  C9_11
REMARK    5  A    between atoms: C9_11  and  C10_12
REMARK    6  A    between atoms: C14_16  and  O3_17
REMARK    7  A    between atoms: C19_23  and  O4_25
ROOT
HETATM    1  C1  UNL     1       8.397  -6.229  17.475  1.00  0.00     0.015 C
HETATM    2  C2  UNL     1       7.123  -6.010  17.177  1.00  0.00    -0.081 C
HETATM    3  C3  UNL     1       6.335  -5.075  18.010  1.00  0.00     0.043 C
HETATM    4  C4  UNL     1       4.928  -5.665  18.115  1.00  0.00     0.027 C
HETATM    5  C13 UNL     1       4.288  -5.717  16.770  1.00  0.00     0.051 C
HETATM    6  C14 UNL     1       5.228  -5.955  15.633  1.00  0.00     0.096 C
HETATM    7  C15 UNL     1       6.485  -6.673  16.038  1.00  0.00     0.051 C
HETATM    8  C16 UNL     1       6.244  -8.144  16.255  1.00  0.00     0.012 C
HETATM    9  C17 UNL     1       5.881  -8.699  14.869  1.00  0.00     0.004 C
HETATM   10  C18 UNL     1       4.524  -8.110  14.543  1.00  0.00     0.040 C
HETATM   11  C19 UNL     1       4.518  -6.627  14.492  1.00  0.00     0.086 C
HETATM   12  C20 UNL     1       5.027  -6.171  13.138  1.00  0.00     0.049 C
ENDROOT
BRANCH   4  13
HETATM   13  C5  UNL     1       4.183  -4.834  19.085  1.00  0.00    -0.026 A
HETATM   14  C6  UNL     1       4.652  -3.692  19.695  1.00  0.00     0.152 A
HETATM   15  O1  UNL     1       3.709  -3.236  20.484  1.00  0.00    -0.300 OA
HETATM   16  C7  UNL     1       2.636  -3.981  20.458  1.00  0.00     0.185 A
HETATM   17  C12 UNL     1       2.910  -5.011  19.571  1.00  0.00     0.073 A
BRANCH  16  18
HETATM   18  O2  UNL     1       1.443  -3.826  21.150  1.00  0.00    -0.330 OA
BRANCH  18  19
HETATM   19  C8  UNL     1       0.233  -4.195  20.521  1.00  0.00     0.178 C
BRANCH  19  20
HETATM   20  C9  UNL     1      -0.777  -4.716  21.530  1.00  0.00     0.026 C
BRANCH  20  21
HETATM   21  C10 UNL     1      -1.145  -6.129  21.138  1.00  0.00    -0.002 C
HETATM   22  C11 UNL     1      -0.533  -6.442  19.800  1.00  0.00     0.005 C
ENDBRANCH  20  21
ENDBRANCH  19  20
ENDBRANCH  18  19
ENDBRANCH  16  18
ENDBRANCH   4  13
BRANCH   6  23
HETATM   23  O3  UNL     1       5.633  -4.687  15.156  1.00  0.00    -0.386 OA
ATOM     24  H3  UNL     1       4.940  -4.366  14.590  1.00  0.00     0.210 HD
ENDBRANCH   6  23
BRANCH  11  25
HETATM   25  O4  UNL     1       3.168  -6.208  14.563  1.00  0.00    -0.387 OA
ATOM     26  H4  UNL     1       2.716  -6.644  13.851  1.00  0.00     0.210 HD
ENDBRANCH  11  25
TORSDOF 7
ENDMDL