MODEL 3
REMARK VINA RESULT: -7.701742664      1.259      1.563
REMARK  5 active torsions:
REMARK  status: ('A' for Active; 'I' for Inactive)
REMARK    1  A    between atoms: N1_1  and  C1_5
REMARK    2  A    between atoms: C1_5  and  C2_6
REMARK    3  A    between atoms: C1_5  and  C17_24
REMARK    4  A    between atoms: C2_6  and  C3_7
REMARK    5  A    between atoms: C11_15  and  N2_16
ROOT
HETATM    1  C3  UNL     1       3.199  -4.997  19.601  1.00  0.00    -0.012 C
HETATM    2  C4  UNL     1       3.781  -6.158  18.946  1.00  0.00     0.005 C
HETATM    3  C5  UNL     1       3.017  -7.386  18.716  1.00  0.00     0.000 C
HETATM    4  C6  UNL     1       3.035  -7.821  17.240  1.00  0.00     0.000 C
HETATM    5  C7  UNL     1       4.385  -8.391  16.873  1.00  0.00     0.000 C
HETATM    6  C8  UNL     1       4.959  -7.613  15.734  1.00  0.00     0.000 C
HETATM    7  C9  UNL     1       6.468  -7.595  15.706  1.00  0.00     0.002 C
HETATM    8  C10 UNL     1       7.079  -6.779  16.804  1.00  0.00     0.032 C
HETATM    9  C11 UNL     1       7.130  -5.313  16.446  1.00  0.00     0.155 C
HETATM   10  C12 UNL     1       7.875  -4.480  17.426  1.00  0.00     0.032 C
HETATM   11  C13 UNL     1       7.390  -4.521  18.832  1.00  0.00     0.002 C
HETATM   12  C14 UNL     1       6.558  -3.326  19.240  1.00  0.00     0.000 C
HETATM   13  C15 UNL     1       5.092  -3.491  19.061  1.00  0.00     0.000 C
HETATM   14  C16 UNL     1       4.376  -4.181  20.179  1.00  0.00     0.005 C
ENDROOT
BRANCH   1  15
HETATM   15  C2  UNL     1       2.378  -4.035  18.863  1.00  0.00     0.048 C
BRANCH  15  16
HETATM   16  C1  UNL     1       0.903  -4.228  18.821  1.00  0.00     0.283 C
BRANCH  16  17
HETATM   17  N1  UNL     1       0.441  -5.215  17.883  1.00  0.00    -0.065 N
ATOM     18  H13 UNL     1      -0.293  -4.823  17.293  1.00  0.00     0.275 HD
ATOM     19  H12 UNL     1       1.158  -5.393  17.180  1.00  0.00     0.275 HD
ATOM     20  H11 UNL     1       0.128  -6.094  18.295  1.00  0.00     0.275 HD
ENDBRANCH  16  17
BRANCH  16  21
HETATM   21  C17 UNL     1       0.494  -4.729  20.185  1.00  0.00     0.204 C
HETATM   22  O3  UNL     1       0.539  -4.025  21.212  1.00  0.00    -0.646 OA
HETATM   23  O4  UNL     1       0.041  -6.039  20.325  1.00  0.00    -0.646 OA
ENDBRANCH  16  21
ENDBRANCH  15  16
ENDBRANCH   1  15
BRANCH   9  24
HETATM   24  N2  UNL     1       7.835  -5.225  15.173  1.00  0.00    -0.151 N
HETATM   25  O1  UNL     1       7.255  -5.109  14.081  1.00  0.00    -0.536 OA
HETATM   26  O2  UNL     1       9.205  -5.272  15.177  1.00  0.00    -0.536 OA
ENDBRANCH   9  24
TORSDOF 5
ENDMDL