MODEL 4
REMARK VINA RESULT: -7.497131913      0.891      1.171
REMARK  8 active torsions:
REMARK  status: ('A' for Active; 'I' for Inactive)
REMARK    1  A    between atoms: C2_2  and  C4_4
REMARK    2  A    between atoms: C4_4  and  C6_6
REMARK    3  A    between atoms: C6_6  and  C7_7
REMARK    4  A    between atoms: C9_9  and  O1_10
REMARK    5  A    between atoms: C12_14  and  O2_15
REMARK    6  A    between atoms: C13_17  and  O3_18
REMARK    7  A    between atoms: C15_21  and  C16_22
REMARK    8  A    between atoms: C17_23  and  C18_24
ROOT
HETATM    1  C7  UNL     1       5.011  -5.232  18.596  1.00  0.00    -0.021 A
HETATM    2  C8  UNL     1       4.642  -4.125  19.372  1.00  0.00     0.049 A
HETATM    3  C9  UNL     1       3.341  -3.894  19.770  1.00  0.00     0.100 A
HETATM    4  C10 UNL     1       2.344  -4.800  19.383  1.00  0.00     0.114 A
HETATM    5  C11 UNL     1       2.691  -5.884  18.627  1.00  0.00     0.040 A
HETATM    6  C12 UNL     1       4.012  -6.102  18.236  1.00  0.00     0.083 A
HETATM    7  C13 UNL     1       1.649  -6.836  18.209  1.00  0.00     0.159 C
HETATM    8  C14 UNL     1       0.267  -6.282  18.207  1.00  0.00     0.073 C
HETATM    9  C15 UNL     1      -0.044  -5.352  19.363  1.00  0.00     0.154 C
HETATM   10  O4  UNL     1       1.044  -4.577  19.775  1.00  0.00    -0.338 OA
ENDROOT
BRANCH   1  11
HETATM   11  C6  UNL     1       6.411  -5.378  18.195  1.00  0.00     0.046 C
BRANCH  11  12
HETATM   12  C4  UNL     1       6.862  -4.671  16.978  1.00  0.00    -0.011 C
HETATM   13  C5  UNL     1       6.164  -5.019  15.693  1.00  0.00     0.010 C
BRANCH  12  14
HETATM   14  C2  UNL     1       8.345  -5.024  16.736  1.00  0.00    -0.019 C
HETATM   15  C1  UNL     1       8.790  -6.098  17.682  1.00  0.00     0.010 C
HETATM   16  C3  UNL     1       8.579  -5.353  15.288  1.00  0.00     0.010 C
ENDBRANCH  12  14
ENDBRANCH  11  12
ENDBRANCH   1  11
BRANCH   6  17
HETATM   17  O2  UNL     1       4.309  -7.192  17.490  1.00  0.00    -0.359 OA
ATOM     18  H2  UNL     1       3.917  -8.030  17.705  1.00  0.00     0.217 HD
ENDBRANCH   6  17
BRANCH   3  19
HETATM   19  O1  UNL     1       3.004  -2.790  20.538  1.00  0.00    -0.358 OA
ATOM     20  H1  UNL     1       2.443  -2.102  20.200  1.00  0.00     0.217 HD
ENDBRANCH   3  19
BRANCH   7  21
HETATM   21  O3  UNL     1       1.671  -7.903  19.137  1.00  0.00    -0.391 OA
ATOM     22  H3  UNL     1       0.802  -8.286  19.139  1.00  0.00     0.210 HD
ENDBRANCH   7  21
BRANCH   9  23
HETATM   23  C16 UNL     1      -0.619  -6.132  20.481  1.00  0.00     0.002 C
HETATM   24  C17 UNL     1      -1.355  -5.627  21.438  1.00  0.00    -0.024 C
BRANCH  24  25
HETATM   25  C18 UNL     1      -1.764  -4.221  21.612  1.00  0.00     0.008 A
HETATM   26  C19 UNL     1      -0.899  -3.229  22.315  1.00  0.00     0.009 A
HETATM   27  C20 UNL     1      -2.091  -3.817  23.008  1.00  0.00     0.009 A
ENDBRANCH  24  25
ENDBRANCH   9  23
TORSDOF 8
ENDMDL