MODEL 4
REMARK VINA RESULT: -7.977969181      1.570      2.552
REMARK  11 active torsions:
REMARK  status: ('A' for Active; 'I' for Inactive)
REMARK    1  A    between atoms: C2_2  and  C3_3
REMARK    2  A    between atoms: C4_4  and  C5_5
REMARK    3  A    between atoms: C8_8  and  O1_9
REMARK    4  A    between atoms: C14_16  and  C15_17
REMARK    5  A    between atoms: C15_17  and  O2_18
REMARK    6  A    between atoms: C15_17  and  C16_20
REMARK    7  A    between atoms: C16_20  and  C17_21
REMARK    8  A    between atoms: C17_21  and  C19_23
REMARK    9  A    between atoms: C19_23  and  C20_24
REMARK   10  A    between atoms: C20_24  and  O3_25
REMARK   11  A    between atoms: C20_24  and  O4_27
ROOT
HETATM    1  C1  UNL     1       7.342  -3.290  18.832  1.00  0.00     0.048 C
HETATM    2  C2  UNL     1       6.542  -4.441  18.456  1.00  0.00    -0.059 C
HETATM    3  C14 UNL     1       7.018  -5.370  17.618  1.00  0.00     0.043 C
ENDROOT
BRANCH   2   4
HETATM    4  C3  UNL     1       5.171  -4.666  18.962  1.00  0.00     0.007 C
HETATM    5  C4  UNL     1       4.139  -4.912  18.242  1.00  0.00     0.009 C
BRANCH   5   6
HETATM    6  C5  UNL     1       2.750  -5.148  18.646  1.00  0.00    -0.046 C
HETATM    7  C6  UNL     1       2.174  -6.292  18.307  1.00  0.00    -0.048 C
HETATM    8  C7  UNL     1       2.970  -7.298  17.523  1.00  0.00     0.046 C
HETATM    9  C8  UNL     1       0.814  -6.687  18.639  1.00  0.00     0.147 C
HETATM   10  C9  UNL     1       0.235  -5.931  19.804  1.00  0.00     0.037 C
HETATM   11  C10 UNL     1       0.594  -4.487  19.786  1.00  0.00     0.016 C
HETATM   12  C11 UNL     1       2.002  -4.150  19.403  1.00  0.00    -0.020 C
HETATM   13  C12 UNL     1       2.729  -3.860  20.716  1.00  0.00     0.020 C
HETATM   14  C13 UNL     1       1.968  -2.847  18.584  1.00  0.00     0.020 C
BRANCH   9  15
HETATM   15  O1  UNL     1       0.846  -8.046  19.024  1.00  0.00    -0.391 OA
ATOM     16  H1  UNL     1       0.287  -8.141  19.786  1.00  0.00     0.210 HD
ENDBRANCH   9  15
ENDBRANCH   5   6
ENDBRANCH   2   4
BRANCH   3  17
HETATM   17  C15 UNL     1       8.320  -5.339  17.021  1.00  0.00     0.066 C
BRANCH  17  18
HETATM   18  O2  UNL     1       9.207  -6.129  17.553  1.00  0.00    -0.361 OA
ATOM     19  H2  UNL     1       9.500  -6.849  17.007  1.00  0.00     0.217 HD
ENDBRANCH  17  18
BRANCH  17  20
HETATM   20  C16 UNL     1       8.795  -4.567  15.923  1.00  0.00     0.039 C
BRANCH  20  21
HETATM   21  C17 UNL     1       9.863  -3.891  15.702  1.00  0.00    -0.076 C
HETATM   22  C18 UNL     1       9.917  -2.415  15.795  1.00  0.00     0.043 C
BRANCH  21  23
HETATM   23  C19 UNL     1      11.176  -4.533  15.341  1.00  0.00     0.094 C
BRANCH  23  24
HETATM   24  C20 UNL     1      12.317  -3.592  15.229  1.00  0.00     0.257 C
BRANCH  24  25
HETATM   25  O3  UNL     1      13.368  -4.136  16.024  1.00  0.00    -0.371 OA
ATOM     26  H3  UNL     1      12.951  -4.627  16.723  1.00  0.00     0.212 HD
ENDBRANCH  24  25
BRANCH  24  27
HETATM   27  O4  UNL     1      12.864  -3.583  13.930  1.00  0.00    -0.371 OA
ATOM     28  H4  UNL     1      12.872  -4.452  13.544  1.00  0.00     0.212 HD
ENDBRANCH  24  27
ENDBRANCH  23  24
ENDBRANCH  21  23
ENDBRANCH  20  21
ENDBRANCH  17  20
ENDBRANCH   3  17
TORSDOF 11
ENDMDL