MODEL 5
REMARK VINA RESULT: -7.534094564      2.423      3.768
REMARK  6 active torsions:
REMARK  status: ('A' for Active; 'I' for Inactive)
REMARK    1  A    between atoms: C2_2  and  C3_3
REMARK    2  A    between atoms: C4_4  and  C5_5
REMARK    3  A    between atoms: C5_5  and  C6_6
REMARK    4  A    between atoms: C10_13  and  O1_14
REMARK    5  A    between atoms: N2_16  and  C11_17
REMARK    6  A    between atoms: C16_22  and  O2_23
ROOT
HETATM    1  C6  UNL     1       4.118  -5.014  19.101  1.00  0.00     0.199 C
HETATM    2  N1  UNL     1       3.657  -6.171  19.842  1.00  0.00    -0.061 N
ATOM      3  H11 UNL     1       3.351  -5.957  20.790  1.00  0.00     0.278 HD
ATOM      4  H12 UNL     1       4.403  -6.817  20.101  1.00  0.00     0.278 HD
HETATM    5  C7  UNL     1       2.631  -6.766  19.019  1.00  0.00     0.232 C
HETATM    6  C8  UNL     1       3.194  -7.154  17.676  1.00  0.00     0.035 A
HETATM    7  C9  UNL     1       3.523  -5.994  17.013  1.00  0.00     0.013 A
HETATM    8  C10 UNL     1       4.036  -6.329  15.784  1.00  0.00     0.152 A
HETATM    9  N2  UNL     1       4.030  -7.668  15.682  1.00  0.00    -0.303 N
HETATM   10  C16 UNL     1       3.523  -8.179  16.818  1.00  0.00     0.153 A
HETATM   11  C17 UNL     1       3.163  -4.875  17.962  1.00  0.00     0.065 C
HETATM   12  C18 UNL     1       1.892  -5.490  18.565  1.00  0.00    -0.005 C
HETATM   13  C19 UNL     1       1.316  -4.716  19.684  1.00  0.00     0.018 C
HETATM   14  C20 UNL     1       0.891  -5.842  17.510  1.00  0.00     0.018 C
ENDROOT
BRANCH   1  15
HETATM   15  C5  UNL     1       4.334  -3.803  19.933  1.00  0.00     0.060 C
BRANCH  15  16
HETATM   16  C4  UNL     1       5.512  -3.019  19.474  1.00  0.00    -0.029 C
HETATM   17  C3  UNL     1       6.549  -3.547  18.846  1.00  0.00    -0.031 C
BRANCH  17  18
HETATM   18  C2  UNL     1       7.681  -2.690  18.423  1.00  0.00     0.022 C
HETATM   19  C1  UNL     1       8.078  -2.985  16.991  1.00  0.00     0.009 C
ENDBRANCH  17  18
ENDBRANCH  15  16
ENDBRANCH   1  15
BRANCH   8  20
HETATM   20  O1  UNL     1       4.484  -5.428  14.817  1.00  0.00    -0.345 OA
ATOM     21  H1  UNL     1       4.227  -5.424  13.903  1.00  0.00     0.219 HD
ENDBRANCH   8  20
BRANCH  10  22
HETATM   22  O2  UNL     1       3.346  -9.548  17.109  1.00  0.00    -0.345 OA
ATOM     23  H2  UNL     1       2.519  -9.940  17.361  1.00  0.00     0.219 HD
ENDBRANCH  10  22
BRANCH   9  24
HETATM   24  C11 UNL     1       4.465  -8.494  14.590  1.00  0.00     0.094 C
HETATM   25  C12 UNL     1       5.895  -8.317  14.212  1.00  0.00     0.026 C
HETATM   26  C13 UNL     1       5.982  -8.986  12.860  1.00  0.00     0.002 C
HETATM   27  C14 UNL     1       4.564  -9.106  12.342  1.00  0.00     0.002 C
HETATM   28  C15 UNL     1       3.733  -8.246  13.308  1.00  0.00     0.026 C
ENDBRANCH   9  24
TORSDOF 6
ENDMDL