MODEL 3
REMARK VINA RESULT: -8.186786035      2.669      4.725
REMARK  6 active torsions:
REMARK  status: ('A' for Active; 'I' for Inactive)
REMARK    1  A    between atoms: C2_2  and  C3_3
REMARK    2  A    between atoms: C3_3  and  C4_4
REMARK    3  A    between atoms: C4_4  and  S1_6
REMARK    4  A    between atoms: C4_4  and  C8_20
REMARK    5  A    between atoms: S1_6  and  C6_7
REMARK    6  A    between atoms: C7_16  and  N5_17
ROOT
HETATM    1  C4  UNL     1       6.692  -6.571  16.204  1.00  0.00     0.019 C
HETATM    2  C5  UNL     1       5.523  -6.537  17.135  1.00  0.00     0.028 C
ENDROOT
BRANCH   1   3
HETATM    3  C3  UNL     1       7.179  -7.978  16.135  1.00  0.00     0.021 C
BRANCH   3   4
HETATM    4  C2  UNL     1       6.216  -9.105  16.065  1.00  0.00    -0.003 C
HETATM    5  C1  UNL     1       6.384 -10.158  15.023  1.00  0.00     0.005 C
ENDBRANCH   3   4
ENDBRANCH   1   3
BRANCH   1   6
HETATM    6  S1  UNL     1       6.244  -6.176  14.461  1.00  0.00    -0.097 SA
BRANCH   6   7
HETATM    7  C6  UNL     1       5.640  -7.076  13.321  1.00  0.00     0.132 A
HETATM    8  N1  UNL     1       6.321  -7.743  12.407  1.00  0.00    -0.275 N
HETATM    9  N2  UNL     1       5.775  -8.476  11.458  1.00  0.00    -0.227 N
ATOM     10  H1  UNL     1       7.339  -7.686  12.437  1.00  0.00     0.189 HD
HETATM   11  N3  UNL     1       4.471  -8.598  11.357  1.00  0.00    -0.227 N
ATOM     12  H2  UNL     1       6.376  -8.958  10.790  1.00  0.00     0.210 HD
HETATM   13  N4  UNL     1       3.744  -7.953  12.245  1.00  0.00    -0.268 N
ATOM     14  H3  UNL     1       4.042  -9.165  10.626  1.00  0.00     0.210 HD
HETATM   15  C7  UNL     1       4.244  -7.201  13.221  1.00  0.00     0.150 A
ATOM     16  H4  UNL     1       2.729  -8.035  12.181  1.00  0.00     0.190 HD
BRANCH  15  17
HETATM   17  N5  UNL     1       3.451  -6.610  14.041  1.00  0.00    -0.382 N
ATOM     18  H52 UNL     1       3.243  -5.618  13.919  1.00  0.00     0.157 HD
ATOM     19  H51 UNL     1       3.018  -7.105  14.821  1.00  0.00     0.157 HD
ENDBRANCH  15  17
ENDBRANCH   6   7
ENDBRANCH   1   6
BRANCH   1  20
HETATM   20  C8  UNL     1       7.763  -5.572  16.560  1.00  0.00    -0.020 C
HETATM   21  C9  UNL     1       8.655  -5.589  15.306  1.00  0.00     0.011 C
HETATM   22  C10 UNL     1       9.953  -4.846  15.435  1.00  0.00     0.001 C
HETATM   23  C11 UNL     1       9.592  -3.433  15.686  1.00  0.00     0.000 C
HETATM   24  C12 UNL     1       8.586  -3.247  16.707  1.00  0.00     0.005 C
HETATM   25  C13 UNL     1       7.384  -4.161  16.766  1.00  0.00    -0.004 C
HETATM   26  C14 UNL     1       6.801  -3.799  18.123  1.00  0.00     0.005 C
HETATM   27  C15 UNL     1       7.602  -4.321  19.268  1.00  0.00     0.000 C
HETATM   28  C16 UNL     1       8.283  -5.623  19.074  1.00  0.00     0.001 C
HETATM   29  C17 UNL     1       8.670  -5.965  17.674  1.00  0.00     0.011 C
ENDBRANCH   1  20
TORSDOF 6
ENDMDL