MODEL 1
REMARK VINA RESULT: -8.350142681      0.000      0.000
REMARK  7 active torsions:
REMARK  status: ('A' for Active; 'I' for Inactive)
REMARK    1  A    between atoms: C2_2  and  C3_3
REMARK    2  A    between atoms: C3_3  and  C4_4
REMARK    3  A    between atoms: C5_11  and  O1_12
REMARK    4  A    between atoms: C6_14  and  C7_15
REMARK    5  A    between atoms: C7_15  and  C8_16
REMARK    6  A    between atoms: C8_16  and  O2_18
REMARK    7  A    between atoms: C8_16  and  C10_20
ROOT
HETATM    1  C7  UNL     1       6.248  -5.254  17.550  1.00  0.00     0.066 C
ENDROOT
BRANCH   1   2
HETATM    2  C6  UNL     1       7.402  -6.107  17.226  1.00  0.00    -0.017 C
HETATM    3  C2  UNL     1       8.174  -6.011  16.018  1.00  0.00    -0.063 C
HETATM    4  C1  UNL     1       9.390  -5.142  15.864  1.00  0.00     0.048 C
BRANCH   3   5
HETATM    5  C3  UNL     1       7.900  -6.785  14.983  1.00  0.00     0.041 C
BRANCH   5   6
HETATM    6  C4  UNL     1       6.782  -6.574  14.085  1.00  0.00     0.102 A
HETATM    7  N1  UNL     1       6.064  -5.481  13.840  1.00  0.00    -0.282 N
HETATM    8  N2  UNL     1       5.132  -5.734  12.942  1.00  0.00    -0.240 N
ATOM      9  H1  UNL     1       6.213  -4.575  14.283  1.00  0.00     0.188 HD
HETATM   10  N3  UNL     1       5.208  -7.007  12.566  1.00  0.00    -0.264 N
ATOM     11  H2  UNL     1       4.456  -5.056  12.589  1.00  0.00     0.208 HD
HETATM   12  C5  UNL     1       6.220  -7.547  13.258  1.00  0.00     0.184 A
ATOM     13  H3  UNL     1       4.613  -7.479  11.886  1.00  0.00     0.190 HD
BRANCH  12  14
HETATM   14  O1  UNL     1       6.635  -8.871  13.162  1.00  0.00    -0.343 OA
ATOM     15  H1  UNL     1       6.419  -9.567  13.771  1.00  0.00     0.219 HD
ENDBRANCH  12  14
ENDBRANCH   5   6
ENDBRANCH   3   5
ENDBRANCH   1   2
BRANCH   1  16
HETATM   16  C8  UNL     1       4.878  -5.747  17.387  1.00  0.00     0.065 C
HETATM   17  C9  UNL     1       4.738  -7.231  17.440  1.00  0.00     0.047 C
BRANCH  16  18
HETATM   18  O2  UNL     1       4.399  -5.374  16.090  1.00  0.00    -0.389 OA
ATOM     19  H2  UNL     1       3.867  -6.080  15.741  1.00  0.00     0.210 HD
ENDBRANCH  16  18
BRANCH  16  20
HETATM   20  C10 UNL     1       3.875  -5.096  18.321  1.00  0.00    -0.008 C
HETATM   21  C11 UNL     1       2.565  -4.992  17.589  1.00  0.00     0.017 C
HETATM   22  C12 UNL     1       1.533  -4.160  18.360  1.00  0.00    -0.013 C
HETATM   23  C13 UNL     1       1.252  -5.012  19.606  1.00  0.00     0.009 C
HETATM   24  C17 UNL     1       2.130  -2.835  18.691  1.00  0.00     0.009 C
HETATM   25  C14 UNL     1       2.541  -5.182  20.358  1.00  0.00    -0.013 C
HETATM   26  C15 UNL     1       2.960  -3.796  20.820  1.00  0.00     0.009 C
HETATM   27  C19 UNL     1       3.625  -5.880  19.583  1.00  0.00     0.017 C
HETATM   28  C16 UNL     1       3.319  -3.016  19.571  1.00  0.00    -0.013 C
HETATM   29  C18 UNL     1       4.399  -3.743  18.794  1.00  0.00     0.017 C
ENDBRANCH  16  20
ENDBRANCH   1  16
TORSDOF 7
ENDMDL