MODEL 1
REMARK VINA RESULT: -7.179027113      0.000      0.000
REMARK  6 active torsions:
REMARK  status: ('A' for Active; 'I' for Inactive)
REMARK    1  A    between atoms: C2_2  and  S1_3
REMARK    2  A    between atoms: S1_3  and  C3_4
REMARK    3  A    between atoms: C3_4  and  C4_5
REMARK    4  A    between atoms: C4_5  and  N1_6
REMARK    5  A    between atoms: N1_6  and  C5_7
REMARK    6  A    between atoms: C12_21  and  S2_23
ROOT
HETATM    1  C4  UNL     1       7.312  -4.165  17.859  1.00  0.00     0.178 C
ENDROOT
BRANCH   1   2
HETATM    2  C3  UNL     1       7.408  -5.200  16.793  1.00  0.00     0.057 C
HETATM    3  C10 UNL     1       7.682  -6.574  17.274  1.00  0.00     0.029 C
HETATM    4  C11 UNL     1       7.681  -7.567  16.099  1.00  0.00     0.022 C
HETATM    5  C12 UNL     1       6.354  -7.599  15.365  1.00  0.00     0.004 C
HETATM    6  C13 UNL     1       6.601  -7.452  13.896  1.00  0.00     0.027 C
HETATM    7  C15 UNL     1       5.504  -6.462  15.920  1.00  0.00     0.022 C
HETATM    8  C16 UNL     1       6.211  -5.139  15.812  1.00  0.00     0.029 C
BRANCH   2   9
HETATM    9  S1  UNL     1       8.833  -4.737  15.734  1.00  0.00    -0.126 SA
BRANCH   9  10
HETATM   10  C2  UNL     1       9.225  -2.979  16.080  1.00  0.00     0.036 C
HETATM   11  C1  UNL     1      10.274  -2.390  15.681  1.00  0.00     0.018 C
ENDBRANCH   9  10
ENDBRANCH   2   9
BRANCH   5  12
HETATM   12  S2  UNL     1       5.441  -9.107  15.729  1.00  0.00    -0.164 SA
HETATM   13  C14 UNL     1       4.060  -8.857  16.828  1.00  0.00     0.090 C
ENDBRANCH   5  12
ENDBRANCH   1   2
BRANCH   1  14
HETATM   14  N1  UNL     1       6.312  -3.999  18.731  1.00  0.00    -0.398 NA
BRANCH  14  15
HETATM   15  C5  UNL     1       5.215  -4.019  19.210  1.00  0.00     0.221 A
HETATM   16  N2  UNL     1       4.432  -5.123  19.251  1.00  0.00    -0.336 N
HETATM   17  C6  UNL     1       3.225  -5.130  19.816  1.00  0.00     0.115 A
ATOM     18  H2  UNL     1       4.781  -5.985  18.833  1.00  0.00     0.168 HD
HETATM   19  C7  UNL     1       2.688  -3.989  20.407  1.00  0.00     0.022 A
HETATM   20  C8  UNL     1       1.340  -4.026  21.004  1.00  0.00     0.069 C
HETATM   21  N3  UNL     1       3.396  -2.878  20.399  1.00  0.00    -0.341 N
HETATM   22  C9  UNL     1       4.625  -2.837  19.826  1.00  0.00     0.158 A
ATOM     23  H3  UNL     1       3.015  -2.037  20.831  1.00  0.00     0.167 HD
HETATM   24  N4  UNL     1       5.376  -1.752  19.748  1.00  0.00    -0.381 N
ATOM     25  H42 UNL     1       6.300  -1.720  19.317  1.00  0.00     0.157 HD
ATOM     26  H41 UNL     1       4.963  -0.924  20.179  1.00  0.00     0.157 HD
ENDBRANCH  14  15
ENDBRANCH   1  14
TORSDOF 6
ENDMDL