MODEL 3
REMARK VINA RESULT: -6.708443392      2.983      6.505
REMARK  8 active torsions:
REMARK  status: ('A' for Active; 'I' for Inactive)
REMARK    1  A    between atoms: C2_2  and  N1_4
REMARK    2  A    between atoms: N1_4  and  C4_6
REMARK    3  A    between atoms: C4_6  and  N2_7
REMARK    4  A    between atoms: C4_6  and  C10_16
REMARK    5  A    between atoms: N2_7  and  C5_9
REMARK    6  A    between atoms: C5_9  and  O1_10
REMARK    7  A    between atoms: C5_9  and  C6_12
REMARK    8  A    between atoms: C12_18  and  C13_19
ROOT
HETATM    1  C10 UNL     1       4.518  -6.166  17.387  1.00  0.00     0.012 A
HETATM    2  C11 UNL     1       4.084  -5.064  18.044  1.00  0.00     0.028 A
HETATM    3  C12 UNL     1       3.006  -5.219  18.867  1.00  0.00    -0.008 A
HETATM    4  S1  UNL     1       2.624  -6.871  18.714  1.00  0.00    -0.082 SA
HETATM    5  C17 UNL     1       3.861  -7.327  17.593  1.00  0.00     0.095 A
HETATM    6  C18 UNL     1       4.075  -8.657  17.088  1.00  0.00     0.107 C
HETATM    7  N3  UNL     1       4.269  -9.733  16.676  1.00  0.00    -0.191 NA
ENDROOT
BRANCH   1   8
HETATM    8  C4  UNL     1       5.696  -6.045  16.415  1.00  0.00     0.211 C
BRANCH   8   9
HETATM    9  N1  UNL     1       6.400  -4.896  16.962  1.00  0.00    -0.395 N
ATOM     10  H1  UNL     1       5.977  -3.969  16.996  1.00  0.00     0.155 HD
BRANCH   9  11
HETATM   11  C2  UNL     1       7.690  -5.138  17.439  1.00  0.00     0.070 C
HETATM   12  C1  UNL     1       8.097  -6.539  17.028  1.00  0.00     0.031 C
HETATM   13  C3  UNL     1       7.879  -4.990  18.917  1.00  0.00     0.031 C
ENDBRANCH   9  11
ENDBRANCH   8   9
BRANCH   8  14
HETATM   14  N2  UNL     1       5.227  -5.597  15.143  1.00  0.00    -0.372 N
ATOM     15  H2  UNL     1       4.654  -4.753  15.110  1.00  0.00     0.158 HD
BRANCH  14  16
HETATM   16  C5  UNL     1       5.508  -6.247  13.951  1.00  0.00     0.219 C
BRANCH  16  17
HETATM   17  O1  UNL     1       5.063  -5.568  12.802  1.00  0.00    -0.377 OA
ATOM     18  H1  UNL     1       4.142  -5.691  12.607  1.00  0.00     0.212 HD
ENDBRANCH  16  17
BRANCH  16  19
HETATM   19  C6  UNL     1       5.151  -7.707  13.849  1.00  0.00     0.034 C
HETATM   20  C7  UNL     1       5.837  -8.378  12.630  1.00  0.00     0.009 C
HETATM   21  C8  UNL     1       4.565  -9.193  12.450  1.00  0.00     0.001 C
HETATM   22  C9  UNL     1       3.851  -8.041  13.149  1.00  0.00     0.009 C
ENDBRANCH  16  19
ENDBRANCH  14  16
ENDBRANCH   8  14
ENDBRANCH   1   8
BRANCH   3  23
HETATM   23  C13 UNL     1       2.326  -4.166  19.709  1.00  0.00    -0.018 C
HETATM   24  C14 UNL     1       2.071  -3.010  18.735  1.00  0.00     0.020 C
HETATM   25  C15 UNL     1       3.201  -3.679  20.822  1.00  0.00     0.020 C
HETATM   26  C16 UNL     1       1.054  -4.765  20.216  1.00  0.00     0.020 C
ENDBRANCH   3  23
TORSDOF 8
ENDMDL