MODEL 5
REMARK VINA RESULT: -5.525405971      5.121      9.632
REMARK  12 active torsions:
REMARK  status: ('A' for Active; 'I' for Inactive)
REMARK    1  A    between atoms: N1_1  and  C1_4
REMARK    2  A    between atoms: N4_13  and  C5_14
REMARK    3  A    between atoms: C6_15  and  O2_16
REMARK    4  A    between atoms: C7_18  and  O3_19
REMARK    5  A    between atoms: C8_21  and  O4_22
REMARK    6  A    between atoms: C9_24  and  C10_25
REMARK    7  A    between atoms: C10_25  and  O5_26
REMARK    8  A    between atoms: O5_26  and  S1_27
REMARK    9  A    between atoms: S1_27  and  N5_30
REMARK       I    between atoms: N5_30  and  C11_32
REMARK   10  A    between atoms: C11_32  and  C12_34
REMARK   11  A    between atoms: C13_36  and  O10_37
REMARK   12  A    between atoms: C15_40  and  N6_41
ROOT
HETATM    1  C5  UNL     1      20.394  -3.416  38.288  1.00  0.00     0.056 C
HETATM    2  C6  UNL     1      19.479  -3.150  37.153  1.00  0.00     0.198 C
HETATM    3  C7  UNL     1      18.482  -4.349  36.968  1.00  0.00     0.181 C
HETATM    4  C8  UNL     1      19.346  -5.586  36.786  1.00  0.00     0.158 C
HETATM    5  C9  UNL     1      20.324  -5.819  37.869  1.00  0.00     0.077 C
HETATM    6  C13 UNL     1      21.257  -4.620  38.152  1.00  0.00     0.175 C
ENDROOT
BRANCH   1   7
HETATM    7  N4  UNL     1      20.563  -2.546  39.421  1.00  0.00    -0.305 N
HETATM    8  C4  UNL     1      20.252  -2.791  40.757  1.00  0.00     0.189 A
HETATM    9  N3  UNL     1      20.507  -1.763  41.542  1.00  0.00    -0.345 N
HETATM   10  C3  UNL     1      20.990  -0.817  40.769  1.00  0.00     0.133 A
ATOM     11  H3  UNL     1      20.358  -1.712  42.550  1.00  0.00     0.167 HD
HETATM   12  C2  UNL     1      21.375   0.456  41.175  1.00  0.00     0.288 C
HETATM   13  C14 UNL     1      21.031  -1.296  39.445  1.00  0.00     0.117 A
HETATM   14  N2  UNL     1      21.413   1.583  40.397  1.00  0.00    -0.154 N
HETATM   15  O1  UNL     1      21.716   0.565  42.372  1.00  0.00    -0.265 OA
HETATM   16  C1  UNL     1      21.210   1.664  39.056  1.00  0.00     0.680 C
ATOM     17  H2  UNL     1      21.617   2.460  40.878  1.00  0.00     0.187 HD
HETATM   18  N7  UNL     1      21.376   0.719  38.117  1.00  0.00    -0.175 N
HETATM   19  C15 UNL     1      21.499  -0.620  38.343  1.00  0.00     0.144 C
ATOM     20  H7  UNL     1      21.415   1.031  37.147  1.00  0.00     0.186 HD
BRANCH  16  21
HETATM   21  N1  UNL     1      20.801   2.807  38.635  1.00  0.00    -0.234 N
ATOM     22  H12 UNL     1      21.074   3.614  39.197  1.00  0.00     0.174 HD
ATOM     23  H11 UNL     1      20.245   2.780  37.780  1.00  0.00     0.174 HD
ENDBRANCH  16  21
BRANCH  19  24
HETATM   24  N6  UNL     1      22.112  -1.356  37.504  1.00  0.00    -0.383 N
ATOM     25  H62 UNL     1      22.381  -2.308  37.757  1.00  0.00     0.157 HD
ATOM     26  H61 UNL     1      22.271  -0.913  36.599  1.00  0.00     0.157 HD
ENDBRANCH  19  24
ENDBRANCH   1   7
BRANCH   2  27
HETATM   27  O2  UNL     1      20.031  -3.322  35.851  1.00  0.00    -0.387 OA
ATOM     28  H2  UNL     1      20.817  -2.824  35.663  1.00  0.00     0.210 HD
ENDBRANCH   2  27
BRANCH   6  29
HETATM   29  O10 UNL     1      22.216  -4.730  37.229  1.00  0.00    -0.389 OA
ATOM     30  H10 UNL     1      22.892  -5.396  37.260  1.00  0.00     0.210 HD
ENDBRANCH   6  29
BRANCH   3  31
HETATM   31  O3  UNL     1      17.713  -4.379  38.104  1.00  0.00    -0.390 OA
ATOM     32  H3  UNL     1      17.028  -5.017  37.940  1.00  0.00     0.210 HD
ENDBRANCH   3  31
BRANCH   5  33
HETATM   33  C10 UNL     1      21.043  -7.102  37.686  1.00  0.00     0.202 C
BRANCH  33  34
HETATM   34  O5  UNL     1      20.141  -8.065  37.231  1.00  0.00    -0.259 OA
BRANCH  34  35
HETATM   35  S1  UNL     1      19.356  -8.886  38.449  1.00  0.00     0.364 S
HETATM   36  O6  UNL     1      19.093 -10.284  38.031  1.00  0.00    -0.175 OA
HETATM   37  O7  UNL     1      20.261  -8.967  39.668  1.00  0.00    -0.175 OA
BRANCH  35  38
HETATM   38  N5  UNL     1      17.898  -8.128  38.918  1.00  0.00    -0.225 N
HETATM   39  C11 UNL     1      16.882  -7.896  37.960  1.00  0.00     0.294 C
HETATM   40  O8  UNL     1      17.066  -8.252  36.779  1.00  0.00    -0.264 OA
ATOM     41  H5  UNL     1      17.760  -7.844  39.887  1.00  0.00     0.184 HD
BRANCH  39  42
HETATM   42  C12 UNL     1      15.617  -7.247  38.328  1.00  0.00     0.333 C
HETATM   43  O9  UNL     1      15.308  -6.098  37.929  1.00  0.00    -0.296 OA
ENDBRANCH  39  42
ENDBRANCH  35  38
ENDBRANCH  34  35
ENDBRANCH  33  34
ENDBRANCH   5  33
BRANCH   4  44
HETATM   44  O4  UNL     1      19.843  -5.649  35.512  1.00  0.00    -0.392 OA
ATOM     45  H4  UNL     1      19.164  -5.459  34.875  1.00  0.00     0.210 HD
ENDBRANCH   4  44
TORSDOF 12
ENDMDL