MODEL 5
REMARK VINA RESULT: -5.001100018      3.586      5.762
REMARK  13 active torsions:
REMARK  status: ('A' for Active; 'I' for Inactive)
REMARK    1  A    between atoms: O1_2  and  C2_3
REMARK    2  A    between atoms: C2_3  and  N1_4
REMARK    3  A    between atoms: C5_10  and  N3_11
REMARK    4  A    between atoms: C7_13  and  O3_14
REMARK    5  A    between atoms: C7_13  and  C8_16
REMARK    6  A    between atoms: C8_16  and  O4_17
REMARK    7  A    between atoms: C9_19  and  O5_20
REMARK    8  A    between atoms: C10_22  and  O6_23
REMARK    9  A    between atoms: C13_34  and  O7_35
REMARK   10  A    between atoms: C14_37  and  O8_38
REMARK   11  A    between atoms: C15_40  and  N7_41
REMARK   12  A    between atoms: C16_45  and  O9_46
REMARK   13  A    between atoms: O9_46  and  C17_47
ROOT
HETATM    1  N1  UNL     1      18.701  -5.890  37.558  1.00  0.00    -0.244 N
HETATM    2  C3  UNL     1      18.437  -6.483  36.388  1.00  0.00     0.331 A
HETATM    3  O2  UNL     1      19.148  -6.504  35.364  1.00  0.00    -0.246 OA
HETATM    4  N2  UNL     1      17.241  -7.105  36.408  1.00  0.00    -0.302 N
ATOM      5  H2  UNL     1      16.825  -7.624  35.634  1.00  0.00     0.171 HD
HETATM    6  C4  UNL     1      16.694  -6.926  37.611  1.00  0.00     0.126 A
HETATM    7  C5  UNL     1      15.484  -7.359  38.134  1.00  0.00     0.152 A
HETATM    8  N4  UNL     1      15.215  -7.007  39.395  1.00  0.00    -0.174 N
ATOM      9  H4  UNL     1      14.335  -7.305  39.816  1.00  0.00     0.186 HD
HETATM   10  C11 UNL     1      16.066  -6.278  40.116  1.00  0.00     0.679 A
HETATM   11  N5  UNL     1      15.797  -5.938  41.351  1.00  0.00    -0.234 N
ATOM     12  H51 UNL     1      16.448  -5.380  41.903  1.00  0.00     0.174 HD
ATOM     13  H52 UNL     1      14.911  -6.248  41.750  1.00  0.00     0.174 HD
HETATM   14  N6  UNL     1      17.246  -5.865  39.585  1.00  0.00    -0.174 N
ATOM     15  H6  UNL     1      17.879  -5.308  40.159  1.00  0.00     0.186 HD
HETATM   16  C12 UNL     1      17.607  -6.167  38.330  1.00  0.00     0.160 A
ENDROOT
BRANCH   1  17
HETATM   17  C2  UNL     1      19.869  -5.117  37.964  1.00  0.00     0.203 C
HETATM   18  C13 UNL     1      19.418  -3.620  38.022  1.00  0.00     0.208 C
HETATM   19  C14 UNL     1      20.755  -2.909  37.737  1.00  0.00     0.185 C
HETATM   20  C15 UNL     1      21.144  -3.637  36.489  1.00  0.00     0.249 C
HETATM   21  C16 UNL     1      20.998  -5.111  37.011  1.00  0.00     0.225 C
BRANCH  17  22
HETATM   22  O1  UNL     1      20.259  -5.359  39.240  1.00  0.00    -0.360 OA
HETATM   23  C1  UNL     1      20.674  -6.560  39.649  1.00  0.00     0.205 C
ENDBRANCH  17  22
BRANCH  18  24
HETATM   24  O7  UNL     1      19.074  -3.242  39.289  1.00  0.00    -0.388 OA
ATOM     25  H7  UNL     1      19.399  -2.375  39.500  1.00  0.00     0.210 HD
ENDBRANCH  18  24
BRANCH  19  26
HETATM   26  O8  UNL     1      20.575  -1.561  37.566  1.00  0.00    -0.391 OA
ATOM     27  H8  UNL     1      20.352  -1.136  38.386  1.00  0.00     0.210 HD
ENDBRANCH  19  26
BRANCH  20  28
HETATM   28  N7  UNL     1      20.287  -3.414  35.370  1.00  0.00    -0.070 N
ATOM     29  H73 UNL     1      19.484  -2.850  35.649  1.00  0.00     0.274 HD
ATOM     30  H72 UNL     1      20.731  -2.777  34.709  1.00  0.00     0.274 HD
ATOM     31  H71 UNL     1      19.976  -4.259  34.891  1.00  0.00     0.274 HD
ENDBRANCH  20  28
BRANCH  21  32
HETATM   32  O9  UNL     1      22.280  -5.341  37.573  1.00  0.00    -0.294 OA
BRANCH  32  33
HETATM   33  C17 UNL     1      23.334  -5.875  36.843  1.00  0.00     0.373 C
HETATM   34  N8  UNL     1      23.009  -6.745  35.759  1.00  0.00    -0.032 NA
HETATM   35  O10 UNL     1      24.513  -5.589  37.143  1.00  0.00    -0.242 OA
ENDBRANCH  32  33
ENDBRANCH  21  32
ENDBRANCH   1  17
BRANCH   7  36
HETATM   36  N3  UNL     1      14.549  -8.132  37.397  1.00  0.00    -0.333 N
HETATM   37  C6  UNL     1      14.751  -9.414  36.790  1.00  0.00     0.170 C
HETATM   38  C7  UNL     1      13.661  -9.564  35.771  1.00  0.00     0.125 C
HETATM   39  C9  UNL     1      12.826  -8.303  35.790  1.00  0.00     0.205 C
HETATM   40  C10 UNL     1      13.168  -7.704  37.137  1.00  0.00     0.253 C
BRANCH  38  41
HETATM   41  O3  UNL     1      12.810 -10.607  36.138  1.00  0.00    -0.383 OA
ATOM     42  H3  UNL     1      11.994 -10.254  36.472  1.00  0.00     0.210 HD
ENDBRANCH  38  41
BRANCH  38  43
HETATM   43  C8  UNL     1      14.221  -9.824  34.380  1.00  0.00     0.206 C
BRANCH  43  44
HETATM   44  O4  UNL     1      13.802  -8.856  33.488  1.00  0.00    -0.398 OA
ATOM     45  H4  UNL     1      13.550  -9.243  32.658  1.00  0.00     0.209 HD
ENDBRANCH  43  44
ENDBRANCH  38  43
BRANCH  39  46
HETATM   46  O5  UNL     1      11.470  -8.611  35.695  1.00  0.00    -0.388 OA
ATOM     47  H5  UNL     1      11.006  -8.321  36.472  1.00  0.00     0.210 HD
ENDBRANCH  39  46
BRANCH  40  48
HETATM   48  O6  UNL     1      13.082  -6.312  37.110  1.00  0.00    -0.374 OA
ATOM     49  H6  UNL     1      12.234  -6.024  37.425  1.00  0.00     0.212 HD
ENDBRANCH  40  48
ENDBRANCH   7  36
TORSDOF 13
ENDMDL