MODEL 1
REMARK VINA RESULT: -6.328224679      0.000      0.000
REMARK  14 active torsions:
REMARK  status: ('A' for Active; 'I' for Inactive)
REMARK    1  A    between atoms: C1_4  and  N2_5
REMARK    2  A    between atoms: C1_4  and  C17_48
REMARK    3  A    between atoms: N2_5  and  C2_7
REMARK    4  A    between atoms: C4_12  and  C5_13
REMARK    5  A    between atoms: C5_13  and  N5_14
REMARK    6  A    between atoms: C8_22  and  N9_23
REMARK    7  A    between atoms: N9_23  and  C9_25
REMARK    8  A    between atoms: C9_25  and  C10_26
REMARK    9  A    between atoms: C10_26  and  N10_27
REMARK   10  A    between atoms: C11_33  and  N12_34
REMARK   11  A    between atoms: C15_44  and  C16_45
REMARK   12  A    between atoms: C16_45  and  O3_46
REMARK   13  A    between atoms: C17_48  and  N14_49
REMARK   14  A    between atoms: C17_48  and  N15_53
ROOT
HETATM    1  N5  UNL     1      18.666  -6.815  37.052  1.00  0.00    -0.305 N
HETATM    2  C6  UNL     1      19.027  -6.390  35.828  1.00  0.00     0.187 A
HETATM    3  N6  UNL     1      19.594  -5.191  35.602  1.00  0.00    -0.336 N
ATOM      4  H6  UNL     1      19.843  -4.933  34.647  1.00  0.00     0.168 HD
HETATM    5  C7  UNL     1      19.844  -4.319  36.601  1.00  0.00     0.141 A
HETATM    6  N7  UNL     1      20.375  -3.102  36.703  1.00  0.00    -0.262 N
ATOM      7  H7  UNL     1      20.726  -2.567  35.908  1.00  0.00     0.190 HD
HETATM    8  N8  UNL     1      20.395  -2.667  37.943  1.00  0.00    -0.066 N
HETATM    9  C8  UNL     1      20.805  -1.551  38.572  1.00  0.00     0.715 A
HETATM   10  N11 UNL     1      20.648  -1.476  39.929  1.00  0.00    -0.021 N
ATOM     11  H11 UNL     1      20.958  -0.632  40.413  1.00  0.00     0.203 HD
HETATM   12  C11 UNL     1      20.105  -2.466  40.646  1.00  0.00     0.692 A
HETATM   13  N13 UNL     1      19.696  -3.579  40.020  1.00  0.00    -0.173 N
ATOM     14  H13 UNL     1      19.279  -4.350  40.541  1.00  0.00     0.186 HD
HETATM   15  C12 UNL     1      19.849  -3.650  38.694  1.00  0.00     0.180 A
HETATM   16  C13 UNL     1      19.485  -4.725  37.873  1.00  0.00     0.124 A
HETATM   17  C14 UNL     1      18.904  -5.960  38.073  1.00  0.00     0.266 A
HETATM   18  O1  UNL     1      18.585  -6.314  39.224  1.00  0.00    -0.267 OA
ENDROOT
BRANCH   1  19
HETATM   19  C5  UNL     1      18.066  -8.107  37.216  1.00  0.00     0.186 C
BRANCH  19  20
HETATM   20  C4  UNL     1      16.579  -8.111  36.999  1.00  0.00     0.240 C
HETATM   21  N4  UNL     1      15.891  -7.134  37.820  1.00  0.00    -0.352 N
HETATM   22  C3  UNL     1      14.613  -7.074  37.634  1.00  0.00     0.116 C
ATOM     23  H4  UNL     1      16.377  -6.541  38.493  1.00  0.00     0.163 HD
HETATM   24  C2  UNL     1      14.047  -8.001  36.620  1.00  0.00     0.178 C
HETATM   25  N3  UNL     1      13.784  -6.167  38.360  1.00  0.00    -0.086 NA
HETATM   26  C15 UNL     1      14.742  -9.326  36.593  1.00  0.00     0.177 C
HETATM   27  O2  UNL     1      15.989  -9.330  37.215  1.00  0.00    -0.355 OA
BRANCH  24  28
HETATM   28  N2  UNL     1      12.605  -8.121  36.801  1.00  0.00    -0.363 N
ATOM     29  H2  UNL     1      12.264  -8.610  37.629  1.00  0.00     0.161 HD
BRANCH  28  30
HETATM   30  C1  UNL     1      11.659  -7.602  35.904  1.00  0.00     0.130 C
HETATM   31  N1  UNL     1      11.366  -6.354  35.940  1.00  0.00    -0.386 N
ATOM     32  H12 UNL     1      11.830  -5.757  36.625  1.00  0.00     0.157 HD
ATOM     33  H11 UNL     1      10.678  -5.977  35.288  1.00  0.00     0.157 HD
BRANCH  30  34
HETATM   34  C17 UNL     1      10.987  -8.466  34.911  1.00  0.00     0.443 C
BRANCH  34  35
HETATM   35  N14 UNL     1      11.655  -8.434  33.623  1.00  0.00    -0.043 N
ATOM     36 3H14 UNL     1      12.531  -7.914  33.673  1.00  0.00     0.277 HD
ATOM     37 2H14 UNL     1      12.027  -9.351  33.375  1.00  0.00     0.277 HD
ATOM     38 1H14 UNL     1      11.049  -8.070  32.888  1.00  0.00     0.277 HD
ENDBRANCH  34  35
BRANCH  34  39
HETATM   39  N15 UNL     1       9.612  -8.065  34.680  1.00  0.00    -0.043 N
ATOM     40 3H15 UNL     1       8.958  -8.758  35.043  1.00  0.00     0.277 HD
ATOM     41 2H15 UNL     1       9.353  -7.274  35.271  1.00  0.00     0.277 HD
ATOM     42 1H15 UNL     1       9.431  -7.866  33.696  1.00  0.00     0.277 HD
ENDBRANCH  34  39
ENDBRANCH  30  34
ENDBRANCH  28  30
ENDBRANCH  24  28
BRANCH  26  43
HETATM   43  C16 UNL     1      14.997  -9.804  35.157  1.00  0.00     0.198 C
BRANCH  43  44
HETATM   44  O3  UNL     1      14.581  -8.813  34.268  1.00  0.00    -0.398 OA
ATOM     45  H3  UNL     1      14.680  -9.133  33.379  1.00  0.00     0.209 HD
ENDBRANCH  43  44
ENDBRANCH  26  43
ENDBRANCH  19  20
ENDBRANCH   1  19
BRANCH   9  46
HETATM   46  N9  UNL     1      21.325  -0.577  37.963  1.00  0.00    -0.222 N
ATOM     47  H9  UNL     1      21.472  -0.655  36.957  1.00  0.00     0.177 HD
BRANCH  46  48
HETATM   48  C9  UNL     1      21.719   0.631  38.620  1.00  0.00     0.165 C
BRANCH  48  49
HETATM   49  C10 UNL     1      20.746   1.760  38.274  1.00  0.00     0.249 C
BRANCH  49  50
HETATM   50  N10 UNL     1      19.809   1.343  37.255  1.00  0.00    -0.078 N
ATOM     51 3H10 UNL     1      20.097   1.658  36.329  1.00  0.00     0.274 HD
ATOM     52 2H10 UNL     1      19.849   0.336  37.097  1.00  0.00     0.274 HD
ATOM     53 1H10 UNL     1      18.864   1.651  37.480  1.00  0.00     0.274 HD
ENDBRANCH  49  50
ENDBRANCH  48  49
ENDBRANCH  46  48
ENDBRANCH   9  46
BRANCH  12  54
HETATM   54  N12 UNL     1      19.955  -2.395  41.939  1.00  0.00    -0.234 N
ATOM     55 2H12 UNL     1      19.065  -2.693  42.340  1.00  0.00     0.174 HD
ATOM     56 1H12 UNL     1      20.690  -2.054  42.558  1.00  0.00     0.174 HD
ENDBRANCH  12  54
TORSDOF 14
ENDMDL