MODEL 4
REMARK VINA RESULT: -4.644004847      1.278      1.953
REMARK  13 active torsions:
REMARK  status: ('A' for Active; 'I' for Inactive)
REMARK    1  A    between atoms: N1_1  and  C1_4
REMARK    2  A    between atoms: N4_12  and  N5_13
REMARK    3  A    between atoms: N6_19  and  C6_20
REMARK    4  A    between atoms: C7_21  and  O3_22
REMARK    5  A    between atoms: C8_24  and  C9_25
REMARK    6  A    between atoms: C9_25  and  O4_26
REMARK    7  A    between atoms: C9_25  and  C10_28
REMARK    8  A    between atoms: C10_28  and  O5_29
REMARK    9  A    between atoms: C10_28  and  C11_31
REMARK   10  A    between atoms: C11_31  and  O6_32
REMARK   11  A    between atoms: C11_31  and  C12_34
REMARK   12  A    between atoms: C12_34  and  O7_35
REMARK   13  A    between atoms: C13_38  and  N7_39
ROOT
HETATM    1  C6  UNL     1      18.113  -6.540  36.561  1.00  0.00     0.189 C
HETATM    2  C7  UNL     1      16.900  -7.345  36.364  1.00  0.00     0.178 C
HETATM    3  C8  UNL     1      15.909  -6.826  37.315  1.00  0.00     0.186 C
HETATM    4  O8  UNL     1      16.169  -5.484  37.368  1.00  0.00    -0.353 OA
HETATM    5  C13 UNL     1      17.558  -5.321  37.195  1.00  0.00     0.259 C
ENDROOT
BRANCH   1   6
HETATM    6  N6  UNL     1      19.239  -7.191  37.145  1.00  0.00    -0.163 N
HETATM    7  C1  UNL     1      19.268  -8.096  38.136  1.00  0.00     0.681 A
HETATM    8  N2  UNL     1      20.542  -8.438  38.354  1.00  0.00    -0.174 N
HETATM    9  C2  UNL     1      21.346  -7.746  37.491  1.00  0.00     0.158 A
ATOM     10  H2  UNL     1      20.864  -9.108  39.053  1.00  0.00     0.186 HD
HETATM   11  N3  UNL     1      22.681  -7.777  37.341  1.00  0.00    -0.290 N
HETATM   12  C5  UNL     1      20.521  -6.954  36.722  1.00  0.00     0.167 A
HETATM   13  C3  UNL     1      23.228  -6.999  36.396  1.00  0.00     0.349 A
ATOM     14  H3  UNL     1      23.261  -8.375  37.929  1.00  0.00     0.172 HD
HETATM   15  O1  UNL     1      24.485  -6.991  36.215  1.00  0.00    -0.244 OA
HETATM   16  N4  UNL     1      22.459  -6.215  35.625  1.00  0.00    -0.173 N
HETATM   17  C4  UNL     1      21.115  -6.168  35.757  1.00  0.00     0.301 A
HETATM   18  O2  UNL     1      20.414  -5.434  35.026  1.00  0.00    -0.263 OA
BRANCH   7  19
HETATM   19  N1  UNL     1      18.301  -8.622  38.807  1.00  0.00    -0.234 N
ATOM     20  H12 UNL     1      17.670  -8.200  39.487  1.00  0.00     0.174 HD
ATOM     21  H11 UNL     1      18.045  -9.603  38.697  1.00  0.00     0.174 HD
ENDBRANCH   7  19
BRANCH  16  22
HETATM   22  N5  UNL     1      23.036  -5.410  34.642  1.00  0.00    -0.332 N
ATOM     23  H52 UNL     1      22.545  -4.551  34.391  1.00  0.00     0.177 HD
ATOM     24  H51 UNL     1      23.913  -5.685  34.201  1.00  0.00     0.177 HD
ENDBRANCH  16  22
ENDBRANCH   1   6
BRANCH   2  25
HETATM   25  O3  UNL     1      16.374  -7.019  35.074  1.00  0.00    -0.391 OA
ATOM     26  H3  UNL     1      15.706  -7.662  34.869  1.00  0.00     0.210 HD
ENDBRANCH   2  25
BRANCH   5  27
HETATM   27  N7  UNL     1      18.112  -4.749  38.353  1.00  0.00    -0.280 N
HETATM   28  C14 UNL     1      17.830  -5.157  39.583  1.00  0.00     0.104 A
HETATM   29  C15 UNL     1      18.376  -4.581  40.744  1.00  0.00     0.092 A
HETATM   30  C16 UNL     1      19.242  -3.546  40.585  1.00  0.00     0.250 A
HETATM   31  O9  UNL     1      19.794  -2.955  41.578  1.00  0.00    -0.268 OA
HETATM   32  N8  UNL     1      19.526  -3.132  39.341  1.00  0.00    -0.275 N
HETATM   33  C17 UNL     1      18.973  -3.720  38.263  1.00  0.00     0.331 A
ATOM     34  H8  UNL     1      20.175  -2.356  39.209  1.00  0.00     0.173 HD
HETATM   35  O10 UNL     1      19.316  -3.237  37.153  1.00  0.00    -0.246 OA
ENDBRANCH   5  27
BRANCH   3  36
HETATM   36  C9  UNL     1      14.466  -7.082  36.830  1.00  0.00     0.181 C
BRANCH  36  37
HETATM   37  O4  UNL     1      13.624  -6.251  37.564  1.00  0.00    -0.390 OA
ATOM     38  H4  UNL     1      13.535  -6.628  38.431  1.00  0.00     0.210 HD
ENDBRANCH  36  37
BRANCH  36  39
HETATM   39  C10 UNL     1      14.062  -8.498  37.072  1.00  0.00     0.180 C
BRANCH  39  40
HETATM   40  O5  UNL     1      15.253  -9.260  37.064  1.00  0.00    -0.390 OA
ATOM     41  H5  UNL     1      15.092 -10.014  37.619  1.00  0.00     0.210 HD
ENDBRANCH  39  40
BRANCH  39  42
HETATM   42  C11 UNL     1      13.246  -9.032  35.901  1.00  0.00     0.173 C
BRANCH  42  43
HETATM   43  O6  UNL     1      12.681  -8.018  35.160  1.00  0.00    -0.391 OA
ATOM     44  H6  UNL     1      12.974  -8.032  34.256  1.00  0.00     0.210 HD
ENDBRANCH  42  43
BRANCH  42  45
HETATM   45  C12 UNL     1      14.158  -9.839  34.985  1.00  0.00     0.198 C
BRANCH  45  46
HETATM   46  O7  UNL     1      14.599  -8.972  33.984  1.00  0.00    -0.398 OA
ATOM     47  H7  UNL     1      15.507  -9.189  33.810  1.00  0.00     0.209 HD
ENDBRANCH  45  46
ENDBRANCH  42  45
ENDBRANCH  39  42
ENDBRANCH  36  39
ENDBRANCH   3  36
TORSDOF 13
ENDMDL