MODEL 1
REMARK VINA RESULT: -5.764791906      0.000      0.000
REMARK  12 active torsions:
REMARK  status: ('A' for Active; 'I' for Inactive)
REMARK    1  A    between atoms: N1_1  and  C1_4
REMARK    2  A    between atoms: N6_15  and  C5_16
REMARK    3  A    between atoms: C6_17  and  O1_18
REMARK    4  A    between atoms: C7_20  and  O2_21
REMARK    5  A    between atoms: C8_23  and  C9_24
REMARK    6  A    between atoms: C9_24  and  O3_25
REMARK    7  A    between atoms: O3_25  and  C10_26
REMARK    8  A    between atoms: C13_30  and  N7_31
REMARK    9  A    between atoms: C14_35  and  O5_36
REMARK   10  A    between atoms: C15_38  and  O6_39
REMARK   11  A    between atoms: N8_42  and  N9_43
REMARK   12  A    between atoms: N9_43  and  N10_45
ROOT
HETATM    1  C5  UNL     1      13.045  -8.213  38.544  1.00  0.00     0.233 C
HETATM    2  C6  UNL     1      12.885  -7.566  39.876  1.00  0.00     0.187 C
HETATM    3  C7  UNL     1      14.036  -6.521  40.025  1.00  0.00     0.157 C
HETATM    4  C8  UNL     1      15.258  -7.337  40.239  1.00  0.00     0.056 C
HETATM    5  C16 UNL     1      15.365  -8.365  39.115  1.00  0.00     0.127 C
HETATM    6  N8  UNL     1      14.410  -8.136  38.051  1.00  0.00    -0.188 NA
ENDROOT
BRANCH   4   7
HETATM    7  C9  UNL     1      16.539  -6.625  40.444  1.00  0.00     0.177 C
BRANCH   7   8
HETATM    8  O3  UNL     1      16.886  -5.668  39.612  1.00  0.00    -0.375 OA
BRANCH   8   9
HETATM    9  C10 UNL     1      17.948  -5.673  38.797  1.00  0.00     0.222 C
HETATM   10  C11 UNL     1      17.545  -5.435  37.373  1.00  0.00     0.160 C
HETATM   11  O4  UNL     1      16.387  -5.491  37.079  1.00  0.00    -0.295 OA
HETATM   12  C12 UNL     1      18.579  -5.143  36.376  1.00  0.00     0.116 C
HETATM   13  C13 UNL     1      19.367  -3.929  36.886  1.00  0.00     0.221 C
HETATM   14  C14 UNL     1      19.948  -4.373  38.235  1.00  0.00     0.180 C
HETATM   15  C15 UNL     1      18.799  -4.425  39.199  1.00  0.00     0.185 C
BRANCH  13  16
HETATM   16  N7  UNL     1      20.424  -3.559  35.987  1.00  0.00    -0.072 N
ATOM     17  H73 UNL     1      20.655  -2.569  36.075  1.00  0.00     0.274 HD
ATOM     18  H72 UNL     1      21.316  -3.959  36.279  1.00  0.00     0.274 HD
ATOM     19  H71 UNL     1      20.206  -3.804  35.022  1.00  0.00     0.274 HD
ENDBRANCH  13  16
BRANCH  14  20
HETATM   20  O5  UNL     1      20.934  -3.495  38.612  1.00  0.00    -0.391 OA
ATOM     21  H5  UNL     1      20.540  -2.763  39.073  1.00  0.00     0.210 HD
ENDBRANCH  14  20
BRANCH  15  22
HETATM   22  O6  UNL     1      17.934  -3.344  39.045  1.00  0.00    -0.390 OA
ATOM     23  H6  UNL     1      17.608  -3.422  38.156  1.00  0.00     0.210 HD
ENDBRANCH  15  22
ENDBRANCH   8   9
ENDBRANCH   7   8
ENDBRANCH   4   7
BRANCH   3  24
HETATM   24  O2  UNL     1      14.082  -5.794  38.831  1.00  0.00    -0.392 OA
ATOM     25  H2  UNL     1      14.234  -4.885  39.066  1.00  0.00     0.210 HD
ENDBRANCH   3  24
BRANCH   2  26
HETATM   26  O1  UNL     1      11.689  -6.857  39.973  1.00  0.00    -0.389 OA
ATOM     27  H1  UNL     1      11.175  -7.125  40.727  1.00  0.00     0.210 HD
ENDBRANCH   2  26
BRANCH   6  28
HETATM   28  N9  UNL     1      14.571  -9.164  37.131  1.00  0.00    -0.258 N
ATOM     29  H9  UNL     1      14.665 -10.122  37.469  1.00  0.00     0.202 HD
BRANCH  28  30
HETATM   30  N10 UNL     1      14.610  -8.927  35.765  1.00  0.00    -0.265 N
HETATM   31  C17 UNL     1      13.796  -9.505  34.967  1.00  0.00     0.216 C
HETATM   32  N11 UNL     1      13.804  -9.286  33.556  1.00  0.00    -0.065 NA
HETATM   33  N12 UNL     1      12.840 -10.402  35.493  1.00  0.00    -0.065 NA
ATOM     34  H10 UNL     1      15.301  -8.278  35.389  1.00  0.00     0.190 HD
ENDBRANCH  28  30
ENDBRANCH   6  28
BRANCH   1  35
HETATM   35  N6  UNL     1      12.126  -7.639  37.587  1.00  0.00    -0.235 N
HETATM   36  C3  UNL     1      10.823  -8.020  37.421  1.00  0.00     0.155 A
HETATM   37  N3  UNL     1      10.059  -8.943  38.025  1.00  0.00    -0.336 N
HETATM   38  C4  UNL     1      10.235  -7.271  36.423  1.00  0.00     0.135 A
HETATM   39  C2  UNL     1       8.777  -9.119  37.662  1.00  0.00     0.183 A
ATOM     40  H3  UNL     1      10.456  -9.518  38.768  1.00  0.00     0.168 HD
HETATM   41  N2  UNL     1       8.207  -8.375  36.677  1.00  0.00    -0.337 N
HETATM   42  C1  UNL     1       8.922  -7.433  36.035  1.00  0.00     0.132 A
ATOM     43  H2  UNL     1       7.231  -8.532  36.423  1.00  0.00     0.168 HD
HETATM   44  N4  UNL     1      11.217  -6.439  36.003  1.00  0.00    -0.277 N
HETATM   45  N5  UNL     1      12.316  -6.674  36.699  1.00  0.00    -0.016 NA
ATOM     46  H4  UNL     1      11.124  -5.741  35.265  1.00  0.00     0.184 HD
BRANCH  42  47
HETATM   47  N1  UNL     1       8.382  -6.727  35.100  1.00  0.00    -0.383 N
ATOM     48  H12 UNL     1       7.981  -7.143  34.260  1.00  0.00     0.157 HD
ATOM     49  H11 UNL     1       8.341  -5.711  35.180  1.00  0.00     0.157 HD
ENDBRANCH  42  47
ENDBRANCH   1  35
TORSDOF 12
ENDMDL