MODEL 3
REMARK VINA RESULT: -6.327457164      3.629      7.531
REMARK  11 active torsions:
REMARK  status: ('A' for Active; 'I' for Inactive)
REMARK       I    between atoms: C2_2  and  N1_4
REMARK       I    between atoms: N1_4  and  C3_6
REMARK    1  A    between atoms: C3_6  and  C4_8
REMARK    2  A    between atoms: C4_8  and  N2_9
REMARK       I    between atoms: N2_9  and  C5_11
REMARK    3  A    between atoms: C5_11  and  C6_13
REMARK    4  A    between atoms: N4_17  and  C8_18
REMARK    5  A    between atoms: C9_20  and  C10_21
REMARK    6  A    between atoms: C10_21  and  O5_22
REMARK    7  A    between atoms: C10_21  and  O6_24
REMARK    8  A    between atoms: O6_24  and  N5_25
REMARK    9  A    between atoms: C11_28  and  O7_29
REMARK   10  A    between atoms: C12_31  and  O8_32
REMARK   11  A    between atoms: C14_37  and  N7_38
ROOT
HETATM    1  C6  UNL     1      20.253  -0.975  42.200  1.00  0.00     0.204 A
HETATM    2  N3  UNL     1      21.033  -0.294  41.342  1.00  0.00    -0.167 N
ATOM      3  H3  UNL     1      21.543   0.567  41.538  1.00  0.00     0.186 HD
HETATM    4  C7  UNL     1      21.012  -0.964  40.174  1.00  0.00     0.712 A
HETATM    5  N4  UNL     1      21.486  -0.950  38.915  1.00  0.00    -0.133 N
HETATM    6  C13 UNL     1      21.023  -2.017  38.215  1.00  0.00     0.175 A
HETATM    7  N6  UNL     1      21.216  -2.432  36.938  1.00  0.00    -0.173 N
ATOM      8  H6  UNL     1      21.811  -1.903  36.301  1.00  0.00     0.186 HD
HETATM    9  C14 UNL     1      20.602  -3.557  36.534  1.00  0.00     0.679 A
HETATM   10  N8  UNL     1      19.813  -4.254  37.388  1.00  0.00    -0.175 N
ATOM     11  H8  UNL     1      19.359  -5.105  37.055  1.00  0.00     0.186 HD
HETATM   12  C15 UNL     1      19.606  -3.867  38.656  1.00  0.00     0.148 A
HETATM   13  N9  UNL     1      18.860  -4.533  39.447  1.00  0.00    -0.383 N
ATOM     14  H91 UNL     1      18.703  -4.239  40.411  1.00  0.00     0.157 HD
ATOM     15  H92 UNL     1      18.403  -5.385  39.122  1.00  0.00     0.157 HD
HETATM   16  C16 UNL     1      20.224  -2.715  39.095  1.00  0.00     0.164 A
HETATM   17  N10 UNL     1      20.231  -2.056  40.283  1.00  0.00    -0.077 N
HETATM   18  N11 UNL     1      19.778  -2.042  41.527  1.00  0.00    -0.259 N
ATOM     19  H11 UNL     1      19.154  -2.745  41.923  1.00  0.00     0.190 HD
ENDROOT
BRANCH   5  20
HETATM   20  C8  UNL     1      22.376   0.051  38.350  1.00  0.00     0.279 C
HETATM   21  O4  UNL     1      23.334   0.438  39.242  1.00  0.00    -0.350 OA
HETATM   22  C9  UNL     1      23.115   1.705  39.696  1.00  0.00     0.212 C
HETATM   23  C11 UNL     1      21.854   2.224  39.069  1.00  0.00     0.185 C
HETATM   24  C12 UNL     1      21.679   1.291  37.915  1.00  0.00     0.199 C
BRANCH  22  25
HETATM   25  C10 UNL     1      24.313   2.573  39.286  1.00  0.00     0.316 C
BRANCH  25  26
HETATM   26  O5  UNL     1      24.782   3.187  40.457  1.00  0.00    -0.367 OA
ATOM     27  H5  UNL     1      25.188   4.003  40.191  1.00  0.00     0.212 HD
ENDBRANCH  25  26
BRANCH  25  28
HETATM   28  O6  UNL     1      25.290   1.838  38.658  1.00  0.00    -0.252 OA
BRANCH  28  29
HETATM   29  N5  UNL     1      25.258   1.990  37.333  1.00  0.00    -0.308 N
ATOM     30  H52 UNL     1      24.471   2.413  36.839  1.00  0.00     0.184 HD
ATOM     31  H51 UNL     1      26.104   1.637  36.886  1.00  0.00     0.184 HD
ENDBRANCH  28  29
ENDBRANCH  25  28
ENDBRANCH  22  25
BRANCH  23  32
HETATM   32  O7  UNL     1      20.783   2.220  39.959  1.00  0.00    -0.390 OA
ATOM     33  H7  UNL     1      19.955   2.055  39.524  1.00  0.00     0.210 HD
ENDBRANCH  23  32
BRANCH  24  34
HETATM   34  O8  UNL     1      20.320   1.135  37.684  1.00  0.00    -0.388 OA
ATOM     35  H8  UNL     1      19.785   1.136  38.469  1.00  0.00     0.210 HD
ENDBRANCH  24  34
ENDBRANCH   5  20
BRANCH   1  36
HETATM   36  C5  UNL     1      19.968  -0.637  43.591  1.00  0.00     0.287 C
HETATM   37  N2  UNL     1      18.795   0.083  43.949  1.00  0.00    -0.346 N
ATOM     38  H2  UNL     1      18.140   0.360  43.218  1.00  0.00     0.163 HD
HETATM   39  O3  UNL     1      20.791  -0.998  44.478  1.00  0.00    -0.264 OA
BRANCH  37  40
HETATM   40  C4  UNL     1      18.513   0.428  45.293  1.00  0.00     0.226 C
BRANCH  40  41
HETATM   41  C3  UNL     1      18.366   1.886  45.478  1.00  0.00     0.241 C
HETATM   42  N1  UNL     1      19.249   2.822  44.927  1.00  0.00    -0.297 N
HETATM   43  C2  UNL     1      19.092   4.207  45.160  1.00  0.00     0.220 C
ATOM     44  H1  UNL     1      20.021   2.498  44.345  1.00  0.00     0.171 HD
HETATM   45  C1  UNL     1      17.982   4.702  45.999  1.00  0.00     0.117 C
HETATM   46  O1  UNL     1      19.924   5.015  44.631  1.00  0.00    -0.274 OA
HETATM   47  O2  UNL     1      17.355   2.243  46.187  1.00  0.00    -0.271 OA
ENDBRANCH  40  41
ENDBRANCH  37  40
ENDBRANCH   1  36
BRANCH   9  48
HETATM   48  N7  UNL     1      20.764  -3.984  35.316  1.00  0.00    -0.234 N
ATOM     49  H72 UNL     1      21.674  -4.340  35.023  1.00  0.00     0.174 HD
ATOM     50  H71 UNL     1      19.983  -3.962  34.659  1.00  0.00     0.174 HD
ENDBRANCH   9  48
TORSDOF 11
ENDMDL