MODEL 4
REMARK VINA RESULT: -5.188669912      2.150      2.897
REMARK  13 active torsions:
REMARK  status: ('A' for Active; 'I' for Inactive)
REMARK    1  A    between atoms: N5_15  and  C6_16
REMARK    2  A    between atoms: C9_20  and  C10_21
REMARK    3  A    between atoms: C10_21  and  O2_22
REMARK    4  A    between atoms: C10_21  and  C11_24
REMARK    5  A    between atoms: C11_24  and  O3_25
REMARK    6  A    between atoms: C11_24  and  C12_27
REMARK    7  A    between atoms: C12_27  and  O4_28
REMARK    8  A    between atoms: C13_30  and  O5_31
REMARK    9  A    between atoms: C14_33  and  O6_34
REMARK   10  A    between atoms: C15_36  and  O7_37
REMARK   11  A    between atoms: C16_39  and  O8_40
REMARK   12  A    between atoms: C16_39  and  C17_42
REMARK   13  A    between atoms: C17_42  and  C18_44
ROOT
HETATM    1  C6  UNL     1      11.883  -7.683  37.587  1.00  0.00     0.237 C
HETATM    2  C7  UNL     1      12.608  -8.921  38.021  1.00  0.00     0.101 C
HETATM    3  C8  UNL     1      13.939  -8.895  37.263  1.00  0.00     0.158 C
HETATM    4  O1  UNL     1      13.745  -9.672  36.134  1.00  0.00    -0.360 OA
HETATM    5  C9  UNL     1      13.782 -11.033  36.288  1.00  0.00     0.185 C
HETATM    6  C13 UNL     1      15.038 -11.527  36.954  1.00  0.00     0.181 C
HETATM    7  C14 UNL     1      15.895 -10.397  37.468  1.00  0.00     0.181 C
HETATM    8  C15 UNL     1      15.106  -9.269  38.085  1.00  0.00     0.190 C
HETATM    9  C16 UNL     1      13.996  -7.456  36.809  1.00  0.00     0.273 C
HETATM   10  O12 UNL     1      12.765  -6.870  36.951  1.00  0.00    -0.320 OA
ENDROOT
BRANCH   8  11
HETATM   11  O7  UNL     1      14.633  -9.648  39.371  1.00  0.00    -0.390 OA
ATOM     12  H7  UNL     1      15.388  -9.842  39.915  1.00  0.00     0.210 HD
ENDBRANCH   8  11
BRANCH   9  13
HETATM   13  O8  UNL     1      14.354  -7.498  35.415  1.00  0.00    -0.357 OA
ATOM     14  H8  UNL     1      13.629  -7.922  34.973  1.00  0.00     0.213 HD
ENDBRANCH   9  13
BRANCH   9  15
HETATM   15  C17 UNL     1      15.005  -6.609  37.431  1.00  0.00     0.289 C
HETATM   16  O9  UNL     1      14.791  -6.140  38.607  1.00  0.00    -0.280 OA
BRANCH  15  17
HETATM   17  C18 UNL     1      16.252  -6.245  36.824  1.00  0.00     0.252 C
HETATM   18  O10 UNL     1      16.773  -5.129  36.929  1.00  0.00    -0.642 OA
HETATM   19  O11 UNL     1      16.955  -7.193  36.052  1.00  0.00    -0.642 OA
ENDBRANCH  15  17
ENDBRANCH   9  15
BRANCH   1  20
HETATM   20  N5  UNL     1      10.668  -7.945  36.838  1.00  0.00    -0.300 N
HETATM   21  C3  UNL     1      10.598  -8.247  35.527  1.00  0.00     0.142 A
HETATM   22  N3  UNL     1      11.505  -8.390  34.531  1.00  0.00    -0.336 N
HETATM   23  C4  UNL     1       9.264  -8.437  35.194  1.00  0.00     0.122 A
HETATM   24  C2  UNL     1      11.151  -8.703  33.267  1.00  0.00     0.183 A
ATOM     25  H3  UNL     1      12.494  -8.256  34.744  1.00  0.00     0.168 HD
HETATM   26  N2  UNL     1       9.866  -8.890  32.932  1.00  0.00    -0.337 N
HETATM   27  C1  UNL     1       8.922  -8.760  33.883  1.00  0.00     0.131 A
ATOM     28  H2  UNL     1       9.607  -9.126  31.974  1.00  0.00     0.168 HD
HETATM   29  N1  UNL     1       7.680  -8.931  33.603  1.00  0.00    -0.383 N
ATOM     30  H12 UNL     1       7.430  -9.167  32.642  1.00  0.00     0.157 HD
ATOM     31  H11 UNL     1       6.965  -8.832  34.323  1.00  0.00     0.157 HD
HETATM   32  N4  UNL     1       8.600  -8.236  36.342  1.00  0.00    -0.346 N
HETATM   33  C5  UNL     1       9.434  -7.937  37.351  1.00  0.00     0.188 A
ATOM     34  H4  UNL     1       7.586  -8.302  36.436  1.00  0.00     0.167 HD
ENDBRANCH   1  20
BRANCH   5  35
HETATM   35  C10 UNL     1      13.567 -11.655  34.922  1.00  0.00     0.180 C
BRANCH  35  36
HETATM   36  O2  UNL     1      14.011 -13.004  35.052  1.00  0.00    -0.390 OA
ATOM     37  H2  UNL     1      13.314 -13.533  34.683  1.00  0.00     0.210 HD
ENDBRANCH  35  36
BRANCH  35  38
HETATM   38  C11 UNL     1      14.545 -11.086  33.885  1.00  0.00     0.173 C
BRANCH  38  39
HETATM   39  O3  UNL     1      14.243  -9.812  33.483  1.00  0.00    -0.391 OA
ATOM     40  H3  UNL     1      14.933  -9.183  33.656  1.00  0.00     0.210 HD
ENDBRANCH  38  39
BRANCH  38  41
HETATM   41  C12 UNL     1      14.499 -11.987  32.667  1.00  0.00     0.198 C
BRANCH  41  42
HETATM   42  O4  UNL     1      15.729 -12.527  32.353  1.00  0.00    -0.398 OA
ATOM     43  H4  UNL     1      15.750 -12.917  31.487  1.00  0.00     0.209 HD
ENDBRANCH  41  42
ENDBRANCH  38  41
ENDBRANCH  35  38
ENDBRANCH   5  35
BRANCH   7  44
HETATM   44  O6  UNL     1      16.774 -10.913  38.403  1.00  0.00    -0.390 OA
ATOM     45  H6  UNL     1      17.489 -10.297  38.509  1.00  0.00     0.210 HD
ENDBRANCH   7  44
BRANCH   6  46
HETATM   46  O5  UNL     1      14.749 -12.467  37.930  1.00  0.00    -0.390 OA
ATOM     47  H5  UNL     1      14.572 -13.318  37.545  1.00  0.00     0.210 HD
ENDBRANCH   6  46
TORSDOF 13
ENDMDL