MODEL 4
REMARK VINA RESULT: -5.879926048      1.982      2.832
REMARK  14 active torsions:
REMARK  status: ('A' for Active; 'I' for Inactive)
REMARK    1  A    between atoms: C2_7  and  C3_8
REMARK    2  A    between atoms: C4_11  and  S1_12
REMARK    3  A    between atoms: S1_12  and  C5_13
REMARK    4  A    between atoms: C7_15  and  O3_16
REMARK    5  A    between atoms: C7_15  and  C8_18
REMARK    6  A    between atoms: C8_18  and  O5_20
REMARK    7  A    between atoms: O5_20  and  C9_21
REMARK    8  A    between atoms: C9_21  and  C10_22
REMARK    9  A    between atoms: C10_22  and  O6_23
REMARK   10  A    between atoms: C11_25  and  O7_26
REMARK   11  A    between atoms: C12_28  and  N4_29
REMARK   12  A    between atoms: C13_33  and  O8_34
REMARK   13  A    between atoms: C14_36  and  O9_37
REMARK   14  A    between atoms: C15_39  and  O10_40
ROOT
HETATM    1  C8  UNL     1      16.035  -6.491  38.863  1.00  0.00     0.301 C
HETATM    2  O4  UNL     1      15.751  -5.811  39.875  1.00  0.00    -0.261 OA
ENDROOT
BRANCH   1   3
HETATM    3  C7  UNL     1      14.914  -6.748  37.922  1.00  0.00     0.208 C
HETATM    4  C6  UNL     1      14.696  -8.241  37.634  1.00  0.00     0.080 C
HETATM    5  C5  UNL     1      14.330  -7.752  36.247  1.00  0.00     0.131 C
HETATM    6  C16 UNL     1      15.250  -6.616  36.485  1.00  0.00     0.185 C
HETATM    7  O11 UNL     1      15.963  -5.889  35.839  1.00  0.00    -0.293 OA
BRANCH   5   8
HETATM    8  S1  UNL     1      14.752  -8.844  34.897  1.00  0.00    -0.097 SA
BRANCH   8   9
HETATM    9  C4  UNL     1      13.243  -9.517  34.218  1.00  0.00     0.108 A
HETATM   10  C2  UNL     1      13.176 -10.757  33.747  1.00  0.00     0.159 A
HETATM   11  N3  UNL     1      11.938 -11.219  33.223  1.00  0.00    -0.290 N
HETATM   12  N2  UNL     1      10.782 -10.434  33.177  1.00  0.00    -0.273 N
ATOM     13  H3  UNL     1      11.891 -12.171  32.860  1.00  0.00     0.187 HD
HETATM   14  C1  UNL     1      10.826  -9.227  33.631  1.00  0.00     0.208 A
ATOM     15  H2  UNL     1       9.916 -10.811  32.792  1.00  0.00     0.189 HD
HETATM   16  N1  UNL     1       9.711  -8.350  33.631  1.00  0.00    -0.062 NA
HETATM   17  N5  UNL     1      12.048  -8.751  34.155  1.00  0.00    -0.322 N
ATOM     18  H5  UNL     1      12.074  -7.797  34.511  1.00  0.00     0.169 HD
BRANCH  10  19
HETATM   19  C3  UNL     1      14.335 -11.612  33.767  1.00  0.00     0.231 C
HETATM   20  O1  UNL     1      15.085 -11.671  32.781  1.00  0.00    -0.643 OA
HETATM   21  O2  UNL     1      14.623 -12.374  34.880  1.00  0.00    -0.643 OA
ENDBRANCH  10  19
ENDBRANCH   8   9
ENDBRANCH   5   8
BRANCH   3  22
HETATM   22  O3  UNL     1      13.745  -6.090  38.212  1.00  0.00    -0.372 OA
ATOM     23  H3  UNL     1      13.418  -6.292  39.080  1.00  0.00     0.211 HD
ENDBRANCH   3  22
ENDBRANCH   1   3
BRANCH   1  24
HETATM   24  O5  UNL     1      17.294  -6.919  38.712  1.00  0.00    -0.316 OA
BRANCH  24  25
HETATM   25  C9  UNL     1      18.533  -6.492  39.019  1.00  0.00     0.222 C
BRANCH  25  26
HETATM   26  C10 UNL     1      19.102  -5.212  38.571  1.00  0.00     0.136 C
HETATM   27  C11 UNL     1      18.672  -4.627  37.291  1.00  0.00     0.190 C
HETATM   28  C12 UNL     1      19.408  -3.329  36.992  1.00  0.00     0.246 C
HETATM   29  C13 UNL     1      20.495  -2.984  37.940  1.00  0.00     0.182 C
HETATM   30  C14 UNL     1      20.211  -3.211  39.384  1.00  0.00     0.180 C
HETATM   31  C15 UNL     1      19.038  -4.125  39.634  1.00  0.00     0.188 C
BRANCH  26  32
HETATM   32  O6  UNL     1      20.515  -5.478  38.441  1.00  0.00    -0.382 OA
ATOM     33  H6  UNL     1      20.923  -4.625  38.537  1.00  0.00     0.210 HD
ENDBRANCH  26  32
BRANCH  27  34
HETATM   34  O7  UNL     1      19.024  -5.499  36.260  1.00  0.00    -0.390 OA
ATOM     35  H7  UNL     1      18.370  -5.440  35.575  1.00  0.00     0.210 HD
ENDBRANCH  27  34
BRANCH  28  36
HETATM   36  N4  UNL     1      19.985  -3.372  35.658  1.00  0.00    -0.070 N
ATOM     37  H43 UNL     1      20.937  -3.740  35.667  1.00  0.00     0.274 HD
ATOM     38  H42 UNL     1      19.552  -4.090  35.078  1.00  0.00     0.274 HD
ATOM     39  H41 UNL     1      19.938  -2.452  35.222  1.00  0.00     0.274 HD
ENDBRANCH  28  36
BRANCH  29  40
HETATM   40  O8  UNL     1      20.718  -1.587  37.797  1.00  0.00    -0.391 OA
ATOM     41  H8  UNL     1      20.644  -1.215  38.667  1.00  0.00     0.210 HD
ENDBRANCH  29  40
BRANCH  30  42
HETATM   42  O9  UNL     1      19.972  -2.016  40.068  1.00  0.00    -0.390 OA
ATOM     43  H9  UNL     1      19.061  -1.926  40.325  1.00  0.00     0.210 HD
ENDBRANCH  30  42
BRANCH  31  44
HETATM   44  O10 UNL     1      17.828  -3.476  39.666  1.00  0.00    -0.390 OA
ATOM     45  H10 UNL     1      17.372  -3.498  38.834  1.00  0.00     0.210 HD
ENDBRANCH  31  44
ENDBRANCH  25  26
ENDBRANCH  24  25
ENDBRANCH   1  24
TORSDOF 14
ENDMDL