MODEL 4
REMARK VINA RESULT: -5.100084952      1.006      1.122
REMARK  13 active torsions:
REMARK  status: ('A' for Active; 'I' for Inactive)
REMARK    1  A    between atoms: N1_1  and  C1_4
REMARK    2  A    between atoms: C2_7  and  N3_8
REMARK    3  A    between atoms: N3_8  and  O1_10
REMARK    4  A    between atoms: N6_20  and  C6_21
REMARK    5  A    between atoms: C7_23  and  C8_24
REMARK    6  A    between atoms: C8_24  and  C9_25
REMARK    7  A    between atoms: C8_24  and  O7_33
REMARK    8  A    between atoms: C9_25  and  O4_26
REMARK    9  A    between atoms: O4_26  and  S1_27
REMARK   10  A    between atoms: S1_27  and  N7_28
REMARK   11  A    between atoms: O7_33  and  C10_34
REMARK   12  A    between atoms: C11_40  and  O9_41
REMARK   13  A    between atoms: C12_43  and  O10_44
ROOT
HETATM    1  C6  UNL     1      16.834  -5.727  37.125  1.00  0.00     0.265 C
HETATM    2  O3  UNL     1      16.687  -5.446  38.480  1.00  0.00    -0.329 OA
HETATM    3  C7  UNL     1      16.933  -6.493  39.316  1.00  0.00     0.358 C
HETATM    4  N9  UNL     1      15.920  -7.511  39.179  1.00  0.00    -0.017 N
ATOM      5  H91 UNL     1      15.427  -7.689  40.053  1.00  0.00     0.283 HD
ATOM      6  H92 UNL     1      16.318  -8.440  39.048  1.00  0.00     0.283 HD
HETATM    7  C11 UNL     1      15.035  -7.140  38.118  1.00  0.00     0.355 C
HETATM    8  C12 UNL     1      15.767  -6.778  36.841  1.00  0.00     0.223 C
ENDROOT
BRANCH   1   9
HETATM    9  N6  UNL     1      18.092  -6.322  36.766  1.00  0.00    -0.308 N
HETATM   10  C5  UNL     1      18.362  -7.643  36.601  1.00  0.00     0.186 A
HETATM   11  N5  UNL     1      19.653  -7.836  36.253  1.00  0.00    -0.346 N
HETATM   12  C4  UNL     1      20.193  -6.610  36.204  1.00  0.00     0.133 A
ATOM     13  H5  UNL     1      20.118  -8.725  36.068  1.00  0.00     0.167 HD
HETATM   14  C3  UNL     1      21.494  -6.347  35.881  1.00  0.00     0.288 C
HETATM   15  C13 UNL     1      19.223  -5.650  36.524  1.00  0.00     0.115 A
HETATM   16  N4  UNL     1      21.986  -5.170  35.406  1.00  0.00    -0.152 N
HETATM   17  O2  UNL     1      22.296  -7.294  36.045  1.00  0.00    -0.265 OA
HETATM   18  C2  UNL     1      21.396  -3.967  35.299  1.00  0.00     0.706 C
ATOM     19  H4  UNL     1      22.952  -5.206  35.082  1.00  0.00     0.187 HD
HETATM   20  N2  UNL     1      20.243  -3.565  35.881  1.00  0.00    -0.173 N
HETATM   21  C1  UNL     1      19.347  -4.283  36.600  1.00  0.00     0.144 C
ATOM     22  H2  UNL     1      20.014  -2.578  35.761  1.00  0.00     0.186 HD
BRANCH  18  23
HETATM   23  N3  UNL     1      22.028  -3.138  34.553  1.00  0.00    -0.098 N
ATOM     24  H3  UNL     1      21.800  -2.145  34.599  1.00  0.00     0.213 HD
BRANCH  23  25
HETATM   25  O1  UNL     1      23.003  -3.567  33.697  1.00  0.00    -0.276 OA
ATOM     26  H1  UNL     1      22.846  -4.291  33.103  1.00  0.00     0.245 HD
ENDBRANCH  23  25
ENDBRANCH  18  23
BRANCH  21  27
HETATM   27  N1  UNL     1      18.564  -3.668  37.410  1.00  0.00    -0.383 N
ATOM     28  H12 UNL     1      18.285  -2.721  37.157  1.00  0.00     0.157 HD
ATOM     29  H11 UNL     1      18.255  -4.145  38.256  1.00  0.00     0.157 HD
ENDBRANCH  21  27
ENDBRANCH   1   9
BRANCH   8  30
HETATM   30  O10 UNL     1      14.760  -6.203  36.016  1.00  0.00    -0.387 OA
ATOM     31  H10 UNL     1      14.804  -6.599  35.153  1.00  0.00     0.210 HD
ENDBRANCH   8  30
BRANCH   3  32
HETATM   32  C8  UNL     1      16.842  -5.969  40.754  1.00  0.00     0.215 C
BRANCH  32  33
HETATM   33  C9  UNL     1      15.665  -6.618  41.448  1.00  0.00     0.228 C
BRANCH  33  34
HETATM   34  O4  UNL     1      14.544  -5.792  41.445  1.00  0.00    -0.257 OA
BRANCH  34  35
HETATM   35  S1  UNL     1      13.167  -6.598  41.914  1.00  0.00     0.355 S
HETATM   36  O5  UNL     1      12.372  -5.730  42.854  1.00  0.00    -0.176 OA
HETATM   37  O6  UNL     1      13.547  -7.898  42.566  1.00  0.00    -0.176 OA
BRANCH  35  38
HETATM   38  N7  UNL     1      12.144  -6.962  40.573  1.00  0.00    -0.306 N
ATOM     39  H72 UNL     1      12.156  -7.860  40.089  1.00  0.00     0.171 HD
ATOM     40  H71 UNL     1      11.537  -6.179  40.332  1.00  0.00     0.171 HD
ENDBRANCH  35  38
ENDBRANCH  34  35
ENDBRANCH  33  34
ENDBRANCH  32  33
BRANCH  32  41
HETATM   41  O7  UNL     1      16.643  -4.571  40.796  1.00  0.00    -0.294 OA
BRANCH  41  42
HETATM   42  C10 UNL     1      17.626  -3.751  41.293  1.00  0.00     0.373 C
HETATM   43  N8  UNL     1      18.816  -3.562  40.555  1.00  0.00    -0.032 NA
HETATM   44  O8  UNL     1      17.438  -3.189  42.396  1.00  0.00    -0.242 OA
ENDBRANCH  41  42
ENDBRANCH  32  41
ENDBRANCH   3  32
BRANCH   7  45
HETATM   45  O9  UNL     1      14.329  -6.002  38.503  1.00  0.00    -0.368 OA
ATOM     46  H9  UNL     1      13.484  -6.270  38.846  1.00  0.00     0.212 HD
ENDBRANCH   7  45
TORSDOF 13
ENDMDL