MODEL 4
REMARK VINA RESULT: -5.325949042      2.654      8.527
REMARK  12 active torsions:
REMARK  status: ('A' for Active; 'I' for Inactive)
REMARK    1  A    between atoms: N1_2  and  C3_4
REMARK    2  A    between atoms: C4_5  and  O1_6
REMARK    3  A    between atoms: C5_8  and  O2_9
REMARK    4  A    between atoms: C6_11  and  N2_12
REMARK    5  A    between atoms: C7_13  and  N3_14
REMARK    6  A    between atoms: N3_14  and  N4_15
REMARK       I    between atoms: N4_15  and  C8_17
REMARK    7  A    between atoms: N6_20  and  N7_21
REMARK    8  A    between atoms: N7_21  and  C9_23
REMARK    9  A    between atoms: N8_24  and  N9_26
REMARK   10  A    between atoms: C12_34  and  N11_35
REMARK   11  A    between atoms: C14_42  and  O6_43
REMARK   12  A    between atoms: C14_42  and  C15_45
ROOT
HETATM    1  N2  UNL     1      18.473  -5.320  37.479  1.00  0.00    -0.257 N
HETATM    2  C7  UNL     1      19.383  -4.558  36.813  1.00  0.00     0.309 A
HETATM    3  N6  UNL     1      19.840  -3.565  37.667  1.00  0.00    -0.201 N
HETATM    4  C10 UNL     1      19.226  -3.748  38.829  1.00  0.00     0.174 A
HETATM    5  C11 UNL     1      19.306  -3.140  40.074  1.00  0.00     0.292 A
HETATM    6  O4  UNL     1      20.041  -2.162  40.265  1.00  0.00    -0.265 OA
HETATM    7  N10 UNL     1      18.576  -3.616  41.120  1.00  0.00    -0.154 N
ATOM      8  H10 UNL     1      18.641  -3.162  42.030  1.00  0.00     0.187 HD
HETATM    9  C12 UNL     1      17.806  -4.630  40.969  1.00  0.00     0.680 A
HETATM   10  N12 UNL     1      17.652  -5.301  39.771  1.00  0.00    -0.174 N
ATOM     11  H12 UNL     1      17.027  -6.103  39.684  1.00  0.00     0.186 HD
HETATM   12  C13 UNL     1      18.375  -4.839  38.711  1.00  0.00     0.164 A
ENDROOT
BRANCH   1  13
HETATM   13  C6  UNL     1      17.660  -6.424  36.939  1.00  0.00     0.269 C
HETATM   14  C5  UNL     1      18.312  -7.726  37.183  1.00  0.00     0.198 C
HETATM   15  C4  UNL     1      17.467  -8.814  37.703  1.00  0.00     0.190 C
HETATM   16  C3  UNL     1      15.977  -8.712  37.440  1.00  0.00     0.326 C
HETATM   17  C14 UNL     1      15.644  -7.446  36.709  1.00  0.00     0.290 C
HETATM   18  O5  UNL     1      16.359  -6.388  37.293  1.00  0.00    -0.316 OA
BRANCH  14  19
HETATM   19  O2  UNL     1      19.451  -7.532  38.045  1.00  0.00    -0.389 OA
ATOM     20  H2  UNL     1      19.325  -8.003  38.860  1.00  0.00     0.210 HD
ENDBRANCH  14  19
BRANCH  15  21
HETATM   21  O1  UNL     1      17.958 -10.033  37.288  1.00  0.00    -0.390 OA
ATOM     22  H1  UNL     1      18.424 -10.469  37.991  1.00  0.00     0.210 HD
ENDBRANCH  15  21
BRANCH  16  23
HETATM   23  N1  UNL     1      15.214  -8.873  38.627  1.00  0.00     0.093 N
HETATM   24  C1  UNL     1      15.863  -8.642  39.867  1.00  0.00     0.310 C
HETATM   25  C2  UNL     1      14.422 -10.104  38.655  1.00  0.00     0.310 C
ENDBRANCH  16  23
BRANCH  17  26
HETATM   26  O6  UNL     1      16.262  -7.517  35.400  1.00  0.00    -0.355 OA
ATOM     27  H6  UNL     1      15.621  -7.873  34.797  1.00  0.00     0.213 HD
ENDBRANCH  17  26
BRANCH  17  28
HETATM   28  C15 UNL     1      14.308  -7.099  36.473  1.00  0.00     0.241 C
HETATM   29  O7  UNL     1      13.489  -6.231  36.731  1.00  0.00    -0.644 OA
HETATM   30  O8  UNL     1      13.612  -8.116  35.594  1.00  0.00    -0.644 OA
ENDBRANCH  17  28
ENDBRANCH   1  13
BRANCH   2  31
HETATM   31  N3  UNL     1      19.786  -4.790  35.701  1.00  0.00    -0.281 NA
BRANCH  31  32
HETATM   32  N4  UNL     1      20.210  -5.382  34.644  1.00  0.00    -0.183 N
HETATM   33  C8  UNL     1      20.994  -6.609  34.639  1.00  0.00     0.357 C
HETATM   34  N5  UNL     1      21.404  -7.284  33.467  1.00  0.00    -0.038 NA
HETATM   35  O3  UNL     1      21.327  -7.109  35.752  1.00  0.00    -0.248 OA
ATOM     36  H4  UNL     1      19.981  -4.962  33.743  1.00  0.00     0.206 HD
ENDBRANCH  31  32
ENDBRANCH   2  31
BRANCH   3  37
HETATM   37  N7  UNL     1      20.723  -2.579  37.236  1.00  0.00    -0.284 N
ATOM     38  H7  UNL     1      20.435  -2.118  36.374  1.00  0.00     0.188 HD
BRANCH  37  39
HETATM   39  C9  UNL     1      21.907  -2.109  37.747  1.00  0.00     0.214 C
HETATM   40  N8  UNL     1      22.001  -0.880  38.183  1.00  0.00    -0.301 N
ATOM     41  H8  UNL     1      22.873  -0.521  38.570  1.00  0.00     0.187 HD
BRANCH  40  42
HETATM   42  N9  UNL     1      20.858  -0.076  38.100  1.00  0.00    -0.344 N
ATOM     43  H92 UNL     1      20.075  -0.225  38.737  1.00  0.00     0.176 HD
ATOM     44  H91 UNL     1      20.846   0.652  37.386  1.00  0.00     0.176 HD
ENDBRANCH  40  42
ENDBRANCH  37  39
ENDBRANCH   3  37
BRANCH   9  45
HETATM   45  N11 UNL     1      17.147  -5.067  42.036  1.00  0.00    -0.234 N
ATOM     46 2H11 UNL     1      16.196  -4.734  42.196  1.00  0.00     0.174 HD
ATOM     47 1H11 UNL     1      17.619  -5.739  42.642  1.00  0.00     0.174 HD
ENDBRANCH   9  45
TORSDOF 12
ENDMDL