MODEL 2
REMARK VINA RESULT: -5.212896526      2.801      5.126
REMARK  3 active torsions:
REMARK  status: ('A' for Active; 'I' for Inactive)
REMARK    1  A    between atoms: N1_1  and  C1_4
REMARK    2  A    between atoms: C2_7  and  C3_8
REMARK    3  A    between atoms: N5_12  and  O1_13
ROOT
HETATM    1  C1  UNL     1      -2.316  37.311  -5.958  1.00  0.00     0.676 A
HETATM    2  N2  UNL     1      -2.798  37.312  -4.686  1.00  0.00    -0.188 N
ATOM      3  H2  UNL     1      -2.279  37.798  -3.955  1.00  0.00     0.184 HD
HETATM    4  C2  UNL     1      -3.945  36.687  -4.373  1.00  0.00     0.097 A
HETATM    5  C4  UNL     1      -4.616  36.042  -5.392  1.00  0.00     0.051 A
HETATM    6  C5  UNL     1      -4.126  36.039  -6.696  1.00  0.00     0.108 A
HETATM    7  N7  UNL     1      -2.991  36.675  -6.931  1.00  0.00    -0.202 N
ATOM      8  H7  UNL     1      -2.615  36.683  -7.880  1.00  0.00     0.183 HD
ENDROOT
BRANCH   4   9
HETATM    9  C3  UNL     1      -4.469  36.683  -3.018  1.00  0.00     0.164 A
HETATM   10  N3  UNL     1      -5.669  36.222  -2.625  1.00  0.00    -0.263 N
HETATM   11  N4  UNL     1      -5.811  36.377  -1.318  1.00  0.00     0.025 NA
ATOM     12  H3  UNL     1      -6.368  35.812  -3.243  1.00  0.00     0.186 HD
HETATM   13  N5  UNL     1      -4.706  36.938  -0.861  1.00  0.00    -0.077 N
HETATM   14  N6  UNL     1      -3.885  37.127  -1.893  1.00  0.00    -0.242 N
ATOM     15  H6  UNL     1      -2.956  37.545  -1.837  1.00  0.00     0.192 HD
BRANCH  13  16
HETATM   16  O1  UNL     1      -4.470  37.261   0.451  1.00  0.00    -0.255 OA
ATOM     17  H1  UNL     1      -4.121  36.668   1.105  1.00  0.00     0.248 HD
ENDBRANCH  13  16
ENDBRANCH   4   9
BRANCH   1  18
HETATM   18  N1  UNL     1      -1.226  37.899  -6.280  1.00  0.00    -0.234 N
ATOM     19  H12 UNL     1      -0.745  37.573  -7.118  1.00  0.00     0.174 HD
ATOM     20  H11 UNL     1      -0.835  38.667  -5.734  1.00  0.00     0.174 HD
ENDBRANCH   1  18
TORSDOF 3
ENDMDL