MODEL 3
REMARK VINA RESULT: -5.424010440      1.884      4.865
REMARK  3 active torsions:
REMARK  status: ('A' for Active; 'I' for Inactive)
REMARK    1  A    between atoms: C1_4  and  N2_5
REMARK    2  A    between atoms: C1_4  and  C3_14
REMARK    3  A    between atoms: N2_5  and  C2_7
ROOT
HETATM    1  N1  UNL     1      -3.449  35.673  -0.594  1.00  0.00    -0.383 N
ATOM      2  H11 UNL     1      -2.676  35.400   0.013  1.00  0.00     0.157 HD
ATOM      3  H12 UNL     1      -4.186  34.995  -0.789  1.00  0.00     0.157 HD
HETATM    4  C1  UNL     1      -3.437  36.847  -1.065  1.00  0.00     0.143 C
ENDROOT
BRANCH   4   5
HETATM    5  N2  UNL     1      -4.522  37.230  -1.917  1.00  0.00    -0.173 N
ATOM      6  H2  UNL     1      -5.200  37.939  -1.640  1.00  0.00     0.186 HD
BRANCH   5   7
HETATM    7  C2  UNL     1      -4.594  36.618  -3.072  1.00  0.00     0.709 A
HETATM    8  N3  UNL     1      -5.494  35.736  -3.484  1.00  0.00    -0.117 N
HETATM    9  N4  UNL     1      -5.161  35.394  -4.717  1.00  0.00     0.006 NA
ATOM     10  H3  UNL     1      -6.291  35.389  -2.952  1.00  0.00     0.202 HD
HETATM   11  N5  UNL     1      -4.070  36.043  -5.087  1.00  0.00     0.006 NA
HETATM   12  N6  UNL     1      -3.699  36.811  -4.078  1.00  0.00    -0.117 N
ATOM     13  H6  UNL     1      -2.890  37.433  -4.057  1.00  0.00     0.202 HD
ENDBRANCH   5   7
ENDBRANCH   4   5
BRANCH   4  14
HETATM   14  C3  UNL     1      -2.378  37.820  -0.784  1.00  0.00     0.092 A
HETATM   15  C4  UNL     1      -2.567  39.161  -1.013  1.00  0.00     0.121 A
HETATM   16  N7  UNL     1      -1.576  40.053  -0.748  1.00  0.00    -0.372 N
HETATM   17  C5  UNL     1      -0.400  39.622  -0.258  1.00  0.00     0.104 A
ATOM     18  H7  UNL     1      -1.723  41.047  -0.921  1.00  0.00     0.164 HD
HETATM   19  C6  UNL     1      -0.215  38.276  -0.029  1.00  0.00     0.105 A
HETATM   20  N8  UNL     1      -1.194  37.399  -0.291  1.00  0.00    -0.360 N
ATOM     21  H8  UNL     1      -1.042  36.405  -0.117  1.00  0.00     0.165 HD
ENDBRANCH   4  14
TORSDOF 3
ENDMDL