MODEL 5
REMARK VINA RESULT: -4.998678167      2.514      4.366
REMARK  2 active torsions:
REMARK  status: ('A' for Active; 'I' for Inactive)
REMARK    1  A    between atoms: N1_1  and  C1_4
REMARK    2  A    between atoms: C3_6  and  N2_7
ROOT
HETATM    1  C1  UNL     1      -4.971  36.120  -2.831  1.00  0.00     0.118 A
HETATM    2  C2  UNL     1      -3.667  36.577  -2.833  1.00  0.00     0.099 A
HETATM    3  C3  UNL     1      -3.019  36.914  -1.659  1.00  0.00     0.123 A
HETATM    4  N4  UNL     1      -3.733  36.768  -0.525  1.00  0.00    -0.271 N
ATOM      5  H4  UNL     1      -3.299  37.003   0.367  1.00  0.00     0.190 HD
HETATM    6  N5  UNL     1      -4.983  36.328  -0.537  1.00  0.00    -0.240 N
ATOM      7  H5  UNL     1      -5.478  36.237   0.350  1.00  0.00     0.208 HD
HETATM    8  N6  UNL     1      -5.616  36.003  -1.655  1.00  0.00    -0.271 N
ATOM      9  H6  UNL     1      -6.579  35.667  -1.625  1.00  0.00     0.190 HD
ENDROOT
BRANCH   3  10
HETATM   10  N2  UNL     1      -1.669  37.388  -1.643  1.00  0.00    -0.360 N
HETATM   11  C4  UNL     1      -0.989  37.609  -2.881  1.00  0.00     0.168 C
HETATM   12  C5  UNL     1       0.093  38.627  -2.844  1.00  0.00     0.075 C
HETATM   13  N3  UNL     1       0.464  39.119  -1.577  1.00  0.00    -0.399 N
HETATM   14  C6  UNL     1       0.314  38.224  -0.477  1.00  0.00     0.138 C
ATOM     15  H3  UNL     1       0.820  40.066  -1.452  1.00  0.00     0.158 HD
HETATM   16  C7  UNL     1      -1.059  37.622  -0.355  1.00  0.00     0.144 C
ENDBRANCH   3  10
BRANCH   1  17
HETATM   17  N1  UNL     1      -5.598  35.799  -3.917  1.00  0.00    -0.384 N
ATOM     18  H12 UNL     1      -6.348  36.407  -4.246  1.00  0.00     0.157 HD
ATOM     19  H11 UNL     1      -5.372  34.962  -4.455  1.00  0.00     0.157 HD
ENDBRANCH   1  17
TORSDOF 2
ENDMDL