MODEL 1
REMARK VINA RESULT: -5.312573441      0.000      0.000
REMARK  2 active torsions:
REMARK  status: ('A' for Active; 'I' for Inactive)
REMARK    1  A    between atoms: N1_1  and  C1_4
REMARK    2  A    between atoms: N3_9  and  C4_10
ROOT
HETATM    1  C4  UNL     1      -3.303  36.846  -3.024  1.00  0.00     0.710 A
HETATM    2  N4  UNL     1      -2.139  36.328  -2.552  1.00  0.00    -0.186 N
ATOM      3  H4  UNL     1      -1.431  36.023  -3.219  1.00  0.00     0.185 HD
HETATM    4  C5  UNL     1      -1.888  36.205  -1.238  1.00  0.00     0.202 A
HETATM    5  N5  UNL     1      -2.803  36.600  -0.332  1.00  0.00    -0.304 N
ATOM      6  H5  UNL     1      -2.624  36.512   0.668  1.00  0.00     0.171 HD
HETATM    7  C6  UNL     1      -3.975  37.121  -0.795  1.00  0.00     0.339 A
HETATM    8  O1  UNL     1      -4.815  37.484   0.069  1.00  0.00    -0.246 OA
HETATM    9  N6  UNL     1      -4.208  37.237  -2.108  1.00  0.00    -0.139 N
ATOM     10  H6  UNL     1      -5.094  37.632  -2.423  1.00  0.00     0.189 HD
ENDROOT
BRANCH   1  11
HETATM   11  N3  UNL     1      -3.547  36.967  -4.429  1.00  0.00    -0.070 N
HETATM   12  C1  UNL     1      -4.480  36.331  -5.137  1.00  0.00     0.140 A
HETATM   13  C2  UNL     1      -4.391  36.723  -6.475  1.00  0.00     0.069 A
HETATM   14  C3  UNL     1      -3.349  37.628  -6.503  1.00  0.00     0.112 A
HETATM   15  N2  UNL     1      -2.863  37.750  -5.252  1.00  0.00    -0.289 N
ATOM     16  H2  UNL     1      -2.088  38.353  -4.980  1.00  0.00     0.187 HD
BRANCH  12  17
HETATM   17  N1  UNL     1      -5.352  35.479  -4.705  1.00  0.00    -0.383 N
ATOM     18  H12 UNL     1      -5.206  34.489  -4.507  1.00  0.00     0.157 HD
ATOM     19  H11 UNL     1      -6.323  35.723  -4.510  1.00  0.00     0.157 HD
ENDBRANCH  12  17
ENDBRANCH   1  11
TORSDOF 2
ENDMDL