MODEL 2
REMARK VINA RESULT: -5.649330557      1.199      1.398
REMARK  2 active torsions:
REMARK  status: ('A' for Active; 'I' for Inactive)
REMARK    1  A    between atoms: C2_3  and  C3_4
REMARK    2  A    between atoms: C6_15  and  N5_16
ROOT
HETATM    1  N1  UNL     1      -4.798  35.530  -5.738  1.00  0.00    -0.197 NA
HETATM    2  C1  UNL     1      -5.010  35.774  -4.626  1.00  0.00     0.065 C
HETATM    3  C2  UNL     1      -5.262  36.092  -3.200  1.00  0.00     0.185 C
ENDROOT
BRANCH   3   4
HETATM    4  C3  UNL     1      -3.980  36.487  -2.564  1.00  0.00     0.070 C
HETATM    5  N2  UNL     1      -2.941  36.853  -3.331  1.00  0.00    -0.318 N
HETATM    6  C4  UNL     1      -1.636  37.046  -2.981  1.00  0.00     0.315 C
ATOM      7  H2  UNL     1      -3.158  37.009  -4.315  1.00  0.00     0.169 HD
HETATM    8  O1  UNL     1      -0.796  37.166  -3.902  1.00  0.00    -0.262 OA
HETATM    9  C5  UNL     1      -1.159  37.122  -1.699  1.00  0.00     0.328 C
HETATM   10  O2  UNL     1      -0.072  37.745  -1.582  1.00  0.00    -0.261 OA
HETATM   11  N3  UNL     1      -1.662  36.642  -0.533  1.00  0.00    -0.260 N
HETATM   12  N4  UNL     1      -2.937  36.388  -0.314  1.00  0.00    -0.281 N
ATOM     13  H3  UNL     1      -1.005  36.464   0.227  1.00  0.00     0.190 HD
HETATM   14  C6  UNL     1      -3.987  36.437  -1.181  1.00  0.00     0.137 C
ATOM     15  H4  UNL     1      -3.171  36.116   0.641  1.00  0.00     0.188 HD
BRANCH  14  16
HETATM   16  N5  UNL     1      -5.170  36.436  -0.670  1.00  0.00    -0.383 N
ATOM     17  H52 UNL     1      -5.745  37.263  -0.833  1.00  0.00     0.157 HD
ATOM     18  H51 UNL     1      -5.391  35.587  -0.151  1.00  0.00     0.157 HD
ENDBRANCH  14  16
ENDBRANCH   3   4
TORSDOF 2
ENDMDL