MODEL 2
REMARK VINA RESULT: -4.837953453      1.238      1.416
REMARK  2 active torsions:
REMARK  status: ('A' for Active; 'I' for Inactive)
REMARK    1  A    between atoms: S1_3  and  C2_6
REMARK    2  A    between atoms: C3_11  and  N4_12
ROOT
HETATM    1  N1  UNL     1      -2.399  38.993  -1.224  1.00  0.00    -0.179 NA
HETATM    2  C1  UNL     1      -3.094  38.075  -1.376  1.00  0.00     0.202 C
HETATM    3  S1  UNL     1      -4.116  36.686  -1.594  1.00  0.00     0.303 S
HETATM    4  O1  UNL     1      -3.373  35.519  -0.995  1.00  0.00    -0.204 OA
HETATM    5  O2  UNL     1      -5.429  36.924  -0.880  1.00  0.00    -0.204 OA
ENDROOT
BRANCH   3   6
HETATM    6  C2  UNL     1      -4.459  36.397  -3.273  1.00  0.00     0.247 A
HETATM    7  N2  UNL     1      -5.433  35.594  -3.728  1.00  0.00    -0.260 N
HETATM    8  N3  UNL     1      -5.446  35.576  -5.051  1.00  0.00    -0.130 N
ATOM      9  H2  UNL     1      -6.076  35.069  -3.135  1.00  0.00     0.190 HD
HETATM   10  C3  UNL     1      -4.445  36.399  -5.426  1.00  0.00     0.692 A
ATOM     11  H3  UNL     1      -6.079  35.053  -5.657  1.00  0.00     0.205 HD
HETATM   12  N5  UNL     1      -3.828  36.911  -4.346  1.00  0.00    -0.163 N
ATOM     13  H5  UNL     1      -3.041  37.559  -4.341  1.00  0.00     0.186 HD
BRANCH  10  14
HETATM   14  N4  UNL     1      -4.143  36.641  -6.663  1.00  0.00    -0.233 N
ATOM     15  H42 UNL     1      -3.258  37.020  -7.001  1.00  0.00     0.174 HD
ATOM     16  H41 UNL     1      -4.779  36.471  -7.443  1.00  0.00     0.174 HD
ENDBRANCH  10  14
ENDBRANCH   3   6
TORSDOF 2
ENDMDL