MODEL 2
REMARK VINA RESULT: -5.204924611      2.167      4.245
REMARK  1 active torsions:
REMARK  status: ('A' for Active; 'I' for Inactive)
REMARK    1  A    between atoms: N2_7  and  C3_8
ROOT
HETATM    1  O1  UNL     1      -5.894  35.635  -4.708  1.00  0.00    -0.245 OA
HETATM    2  C1  UNL     1      -5.284  36.028  -3.676  1.00  0.00     0.343 A
HETATM    3  N1  UNL     1      -5.855  36.247  -2.458  1.00  0.00    -0.258 N
ATOM      4  H1  UNL     1      -6.841  36.121  -2.231  1.00  0.00     0.175 HD
HETATM    5  C2  UNL     1      -4.885  36.663  -1.593  1.00  0.00     0.351 A
HETATM    6  O2  UNL     1      -5.090  36.944  -0.398  1.00  0.00    -0.244 OA
HETATM    7  N2  UNL     1      -3.730  36.696  -2.280  1.00  0.00    -0.183 N
HETATM    8  N5  UNL     1      -3.994  36.317  -3.505  1.00  0.00    -0.239 N
ATOM      9  H5  UNL     1      -3.293  36.251  -4.244  1.00  0.00     0.192 HD
ENDROOT
BRANCH   7  10
HETATM   10  C3  UNL     1      -2.450  37.080  -1.753  1.00  0.00     0.148 A
HETATM   11  C4  UNL     1      -1.326  37.385  -2.485  1.00  0.00     0.139 A
HETATM   12  N3  UNL     1      -0.334  37.694  -1.626  1.00  0.00    -0.358 N
HETATM   13  C5  UNL     1      -0.840  37.580  -0.386  1.00  0.00     0.182 A
ATOM     14  H3  UNL     1       0.619  37.963  -1.870  1.00  0.00     0.166 HD
HETATM   15  N4  UNL     1      -2.147  37.201  -0.448  1.00  0.00    -0.336 N
ATOM     16  H4  UNL     1      -2.773  37.041   0.341  1.00  0.00     0.168 HD
ENDBRANCH   7  10
TORSDOF 1
ENDMDL