MODEL 1
REMARK VINA RESULT: -5.341295809      0.000      0.000
REMARK  3 active torsions:
REMARK  status: ('A' for Active; 'I' for Inactive)
REMARK    1  A    between atoms: C1_2  and  C2_4
REMARK    2  A    between atoms: C4_8  and  N3_9
REMARK    3  A    between atoms: N3_9  and  N4_11
ROOT
HETATM    1  C2  UNL     1      -4.395  36.839  -1.634  1.00  0.00     0.088 A
HETATM    2  C3  UNL     1      -5.640  36.290  -1.824  1.00  0.00     0.114 A
HETATM    3  N2  UNL     1      -5.940  35.858  -3.014  1.00  0.00    -0.344 N
ATOM      4  H2  UNL     1      -6.854  35.444  -3.199  1.00  0.00     0.167 HD
HETATM    5  C4  UNL     1      -5.033  35.965  -3.988  1.00  0.00     0.168 A
HETATM    6  S1  UNL     1      -3.709  36.705  -3.193  1.00  0.00    -0.046 SA
ENDROOT
BRANCH   5   7
HETATM    7  N3  UNL     1      -5.141  35.592  -5.244  1.00  0.00    -0.219 N
ATOM      8  H3  UNL     1      -5.760  34.831  -5.523  1.00  0.00     0.195 HD
BRANCH   7   9
HETATM    9  N4  UNL     1      -4.380  36.277  -6.167  1.00  0.00    -0.037 N
HETATM   10  O2  UNL     1      -4.763  37.365  -6.596  1.00  0.00    -0.516 OA
HETATM   11  O3  UNL     1      -3.210  35.737  -6.594  1.00  0.00    -0.516 OA
ENDBRANCH   7   9
ENDBRANCH   5   7
BRANCH   1  12
HETATM   12  C1  UNL     1      -3.829  37.388  -0.404  1.00  0.00     0.273 C
HETATM   13  N1  UNL     1      -2.436  37.484  -0.270  1.00  0.00    -0.057 NA
HETATM   14  O1  UNL     1      -4.602  37.761   0.500  1.00  0.00    -0.270 OA
ENDBRANCH   1  12
TORSDOF 3
ENDMDL