MODEL 4
REMARK VINA RESULT: -5.049205218      3.026      4.468
REMARK  1 active torsions:
REMARK  status: ('A' for Active; 'I' for Inactive)
REMARK       I    between atoms: N3_4  and  C2_6
REMARK    1  A    between atoms: C2_6  and  C3_8
ROOT
HETATM    1  C3  UNL     1      -4.252  36.922  -1.906  1.00  0.00     0.149 A
HETATM    2  N4  UNL     1      -5.462  36.591  -1.569  1.00  0.00    -0.287 N
ATOM      3  H4  UNL     1      -5.808  36.812  -0.635  1.00  0.00     0.188 HD
HETATM    4  N5  UNL     1      -6.230  35.980  -2.413  1.00  0.00    -0.268 N
ATOM      5  H5  UNL     1      -7.191  35.666  -2.280  1.00  0.00     0.195 HD
HETATM    6  S1  UNL     1      -5.268  35.830  -3.783  1.00  0.00     0.019 SA
HETATM    7  C4  UNL     1      -3.863  36.588  -3.185  1.00  0.00     0.138 A
HETATM    8  N6  UNL     1      -2.585  36.837  -3.811  1.00  0.00    -0.090 NA
ENDROOT
BRANCH   1   9
HETATM    9  C2  UNL     1      -3.328  37.623  -0.975  1.00  0.00     0.278 C
HETATM   10  N3  UNL     1      -2.588  38.770  -1.365  1.00  0.00    -0.298 N
HETATM   11  C1  UNL     1      -1.492  39.082  -0.809  1.00  0.00     0.203 C
ATOM     12  H3  UNL     1      -2.948  39.360  -2.115  1.00  0.00     0.171 HD
HETATM   13  N1  UNL     1      -0.880  38.360   0.235  1.00  0.00    -0.066 NA
HETATM   14  N2  UNL     1      -0.820  40.267  -1.280  1.00  0.00    -0.066 NA
HETATM   15  O1  UNL     1      -3.180  37.212   0.198  1.00  0.00    -0.265 OA
ENDBRANCH   1   9
TORSDOF 1
ENDMDL