MODEL 1
REMARK VINA RESULT: -5.268840562      0.000      0.000
REMARK  2 active torsions:
REMARK  status: ('A' for Active; 'I' for Inactive)
REMARK    1  A    between atoms: N1_1  and  C1_4
REMARK    2  A    between atoms: C2_7  and  N3_8
ROOT
HETATM    1  C1  UNL     1      -3.780  36.373  -1.236  1.00  0.00     0.692 A
HETATM    2  N2  UNL     1      -3.426  36.665  -2.499  1.00  0.00    -0.174 N
ATOM      3  H2  UNL     1      -2.497  37.047  -2.677  1.00  0.00     0.186 HD
HETATM    4  C2  UNL     1      -4.273  36.466  -3.553  1.00  0.00     0.136 A
HETATM    5  C7  UNL     1      -5.508  35.945  -3.223  1.00  0.00     0.156 A
HETATM    6  N5  UNL     1      -5.830  35.664  -1.948  1.00  0.00    -0.294 N
ATOM      7  H5  UNL     1      -6.754  35.280  -1.743  1.00  0.00     0.186 HD
HETATM    8  N6  UNL     1      -4.987  35.869  -0.953  1.00  0.00    -0.133 N
ATOM      9  H6  UNL     1      -5.250  35.649   0.008  1.00  0.00     0.205 HD
ENDROOT
BRANCH   4  10
HETATM   10  N3  UNL     1      -3.902  36.773  -4.875  1.00  0.00    -0.362 N
HETATM   11  C3  UNL     1      -2.825  37.686  -5.162  1.00  0.00     0.152 C
HETATM   12  C4  UNL     1      -2.697  38.097  -6.583  1.00  0.00     0.252 C
HETATM   13  N4  UNL     1      -3.176  37.184  -7.564  1.00  0.00    -0.072 N
HETATM   14  C5  UNL     1      -3.558  35.889  -7.051  1.00  0.00     0.252 C
ATOM     15  H42 UNL     1      -3.948  37.599  -8.086  1.00  0.00     0.277 HD
ATOM     16  H41 UNL     1      -2.491  37.079  -8.314  1.00  0.00     0.277 HD
HETATM   17  C6  UNL     1      -4.607  36.165  -5.979  1.00  0.00     0.152 C
ENDBRANCH   4  10
BRANCH   1  18
HETATM   18  N1  UNL     1      -2.965  36.568  -0.253  1.00  0.00    -0.233 N
ATOM     19  H12 UNL     1      -1.983  36.730  -0.476  1.00  0.00     0.174 HD
ATOM     20  H11 UNL     1      -3.294  36.562   0.712  1.00  0.00     0.174 HD
ENDBRANCH   1  18
TORSDOF 2
ENDMDL