MODEL 5
REMARK VINA RESULT: -6.611800602      3.094      3.700
REMARK  7 active torsions:
REMARK  status: ('A' for Active; 'I' for Inactive)
REMARK    1  A    between atoms: N1_5  and  C5_6
REMARK    2  A    between atoms: C5_6  and  C6_7
REMARK    3  A    between atoms: C6_7  and  C7_8
REMARK    4  A    between atoms: C7_8  and  N2_9
REMARK    5  A    between atoms: N2_9  and  C8_11
REMARK    6  A    between atoms: C8_11  and  N3_13
REMARK    7  A    between atoms: N3_13  and  C9_15
ROOT
HETATM    1  C8  UNL     1      -6.659  24.825   3.364  1.00  0.00     0.167 C
HETATM    2  S1  UNL     1      -7.434  26.121   2.690  1.00  0.00    -0.041 SA
ENDROOT
BRANCH   1   3
HETATM    3  N2  UNL     1      -6.542  23.614   2.670  1.00  0.00    -0.367 N
ATOM      4  H2  UNL     1      -7.377  23.237   2.222  1.00  0.00     0.161 HD
BRANCH   3   5
HETATM    5  C7  UNL     1      -5.324  22.876   2.550  1.00  0.00     0.123 C
BRANCH   5   6
HETATM    6  C6  UNL     1      -5.287  21.712   3.488  1.00  0.00     0.050 C
BRANCH   6   7
HETATM    7  C5  UNL     1      -5.647  20.443   2.749  1.00  0.00     0.274 C
BRANCH   7   8
HETATM    8  N1  UNL     1      -6.582  19.603   3.386  1.00  0.00     0.088 N
HETATM    9  C4  UNL     1      -6.266  18.209   3.460  1.00  0.00     0.272 C
HETATM   10  C3  UNL     1      -7.583  17.468   3.479  1.00  0.00     0.034 C
HETATM   11  C2  UNL     1      -8.657  18.112   4.257  1.00  0.00    -0.015 C
HETATM   12  C1  UNL     1      -9.877  18.248   3.331  1.00  0.00     0.010 C
HETATM   13  C16 UNL     1      -8.407  19.425   4.873  1.00  0.00     0.034 C
HETATM   14  C15 UNL     1      -7.031  20.006   4.695  1.00  0.00     0.272 C
ENDBRANCH   7   8
ENDBRANCH   6   7
ENDBRANCH   5   6
ENDBRANCH   3   5
ENDBRANCH   1   3
BRANCH   1  15
HETATM   15  N3  UNL     1      -6.115  25.026   4.645  1.00  0.00    -0.361 N
ATOM     16  H3  UNL     1      -5.128  25.272   4.715  1.00  0.00     0.162 HD
BRANCH  15  17
HETATM   17  C9  UNL     1      -6.892  24.900   5.895  1.00  0.00     0.103 C
HETATM   18  C10 UNL     1      -7.266  23.486   6.064  1.00  0.00     0.056 C
HETATM   19  C11 UNL     1      -7.154  22.902   7.446  1.00  0.00     0.176 C
HETATM   20 CL1  UNL     1      -5.804  21.759   7.542  1.00  0.00    -0.115 Cl
HETATM   21  C12 UNL     1      -7.045  23.915   8.495  1.00  0.00     0.238 C
HETATM   22  O1  UNL     1      -7.594  23.733   9.609  1.00  0.00    -0.272 OA
HETATM   23  N4  UNL     1      -6.325  25.112   8.286  1.00  0.00    -0.353 N
HETATM   24  C13 UNL     1      -5.787  25.916   9.384  1.00  0.00     0.152 C
HETATM   25  C14 UNL     1      -6.097  25.573   6.948  1.00  0.00     0.150 C
ENDBRANCH  15  17
ENDBRANCH   1  15
TORSDOF 7
ENDMDL