MODEL 4
REMARK VINA RESULT: -6.297466420      3.225      6.329
REMARK  7 active torsions:
REMARK  status: ('A' for Active; 'I' for Inactive)
REMARK    1  A    between atoms: C2_2  and  C3_3
REMARK    2  A    between atoms: C3_3  and  N1_4
REMARK    3  A    between atoms: C5_7  and  C6_8
REMARK    4  A    between atoms: C6_8  and  C7_9
REMARK    5  A    between atoms: C9_15  and  C10_16
REMARK    6  A    between atoms: C10_16  and  C11_17
REMARK    7  A    between atoms: C13_23  and  C14_24
ROOT
HETATM    1  N1  UNL     1      -7.199  22.906   5.437  1.00  0.00    -0.335 N
HETATM    2  C4  UNL     1      -6.675  23.703   6.384  1.00  0.00     0.110 A
HETATM    3  S1  UNL     1      -6.589  25.479   6.224  1.00  0.00    -0.030 SA
HETATM    4  C5  UNL     1      -6.194  23.186   7.590  1.00  0.00     0.067 A
HETATM    5  N2  UNL     1      -6.274  21.866   7.773  1.00  0.00    -0.319 N
ATOM      6  H2  UNL     1      -5.933  21.455   8.641  1.00  0.00     0.169 HD
HETATM    7  C8  UNL     1      -6.809  21.062   6.809  1.00  0.00     0.273 A
HETATM    8  O1  UNL     1      -6.834  19.843   7.093  1.00  0.00    -0.266 OA
HETATM    9  C9  UNL     1      -7.285  21.563   5.615  1.00  0.00     0.106 A
ENDROOT
BRANCH   9  10
HETATM   10  C10 UNL     1      -7.802  20.831   4.682  1.00  0.00     0.067 C
BRANCH  10  11
HETATM   11  C11 UNL     1      -7.249  19.543   4.290  1.00  0.00     0.058 A
HETATM   12  N3  UNL     1      -5.974  19.212   4.060  1.00  0.00    -0.351 N
HETATM   13  C12 UNL     1      -5.923  17.943   3.685  1.00  0.00     0.181 A
ATOM     14  H3  UNL     1      -5.173  19.836   4.159  1.00  0.00     0.166 HD
HETATM   15  N4  UNL     1      -7.151  17.462   3.674  1.00  0.00    -0.354 N
HETATM   16  C13 UNL     1      -8.014  18.424   4.045  1.00  0.00     0.040 A
ATOM     17  H4  UNL     1      -7.406  16.507   3.423  1.00  0.00     0.166 HD
BRANCH  16  18
HETATM   18  C14 UNL     1      -9.465  18.225   4.128  1.00  0.00     0.030 C
HETATM   19  C15 UNL     1     -10.131  19.041   3.021  1.00  0.00     0.016 C
HETATM   20  C16 UNL     1      -9.950  16.831   3.973  1.00  0.00     0.016 C
ENDBRANCH  16  18
ENDBRANCH  10  11
ENDBRANCH   9  10
BRANCH   1  21
HETATM   21  C3  UNL     1      -7.642  23.477   4.198  1.00  0.00     0.130 C
BRANCH  21  22
HETATM   22  C2  UNL     1      -6.578  23.767   3.196  1.00  0.00     0.016 C
HETATM   23  C1  UNL     1      -6.983  24.659   2.052  1.00  0.00     0.006 C
ENDBRANCH  21  22
ENDBRANCH   1  21
BRANCH   4  24
HETATM   24  C6  UNL     1      -5.677  23.968   8.519  1.00  0.00     0.020 C
BRANCH  24  25
HETATM   25  C7  UNL     1      -6.468  24.269   9.741  1.00  0.00     0.144 C
HETATM   26 CL1  UNL     1      -6.117  25.949  10.264  1.00  0.00    -0.126 Cl
ENDBRANCH  24  25
ENDBRANCH   4  24
TORSDOF 7
ENDMDL