MODEL 2
REMARK VINA RESULT: -7.216756770      4.752      9.092
REMARK  5 active torsions:
REMARK  status: ('A' for Active; 'I' for Inactive)
REMARK    1  A    between atoms: N1_6  and  S1_7
REMARK    2  A    between atoms: S1_7  and  N2_10
REMARK    3  A    between atoms: N2_10  and  C6_12
REMARK    4  A    between atoms: C9_15  and  C10_16
REMARK    5  A    between atoms: C14_23  and  C15_24
ROOT
HETATM    1  C6  UNL     1      -5.994  25.792   8.767  1.00  0.00     0.094 C
HETATM    2  C7  UNL     1      -6.549  24.692   9.620  1.00  0.00     0.026 C
HETATM    3  C8  UNL     1      -6.522  23.463   8.737  1.00  0.00     0.007 C
HETATM    4  C9  UNL     1      -6.261  23.963   7.324  1.00  0.00    -0.006 C
HETATM    5  C16 UNL     1      -6.479  25.473   7.386  1.00  0.00     0.031 C
ENDROOT
BRANCH   1   6
HETATM    6  N2  UNL     1      -6.278  27.106   9.218  1.00  0.00    -0.302 N
ATOM      7  H2  UNL     1      -7.171  27.354   9.644  1.00  0.00     0.173 HD
BRANCH   6   8
HETATM    8  S1  UNL     1      -5.031  28.241   9.000  1.00  0.00     0.299 S
HETATM    9  O1  UNL     1      -4.455  28.725  10.311  1.00  0.00    -0.188 OA
HETATM   10  O2  UNL     1      -3.929  27.653   8.131  1.00  0.00    -0.188 OA
BRANCH   8  11
HETATM   11  N1  UNL     1      -5.600  29.642   8.165  1.00  0.00    -0.193 NA
HETATM   12  C5  UNL     1      -6.430  29.237   7.077  1.00  0.00     0.109 C
HETATM   13  C4  UNL     1      -6.837  30.534   6.361  1.00  0.00     0.016 C
HETATM   14  C3  UNL     1      -7.840  31.201   7.269  1.00  0.00     0.007 C
HETATM   15  C2  UNL     1      -7.436  31.221   8.704  1.00  0.00    -0.004 C
HETATM   16  C1  UNL     1      -8.537  30.550   9.506  1.00  0.00     0.011 C
HETATM   17  C17 UNL     1      -6.150  30.603   9.048  1.00  0.00     0.113 C
ENDBRANCH   8  11
ENDBRANCH   6   8
ENDBRANCH   1   6
BRANCH   4  18
HETATM   18  C10 UNL     1      -7.232  23.291   6.412  1.00  0.00     0.022 C
HETATM   19  C11 UNL     1      -7.137  21.809   6.612  1.00  0.00     0.237 C
HETATM   20  N3  UNL     1      -5.780  21.415   6.200  1.00  0.00    -0.075 N
HETATM   21  C12 UNL     1      -5.775  21.503   4.750  1.00  0.00     0.232 C
ATOM     22  H32 UNL     1      -5.042  21.960   6.647  1.00  0.00     0.277 HD
ATOM     23  H31 UNL     1      -5.491  20.505   6.558  1.00  0.00     0.277 HD
HETATM   24  C13 UNL     1      -6.028  22.880   4.246  1.00  0.00     0.034 C
HETATM   25  C14 UNL     1      -7.077  23.640   4.974  1.00  0.00     0.022 C
BRANCH  25  26
HETATM   26  C15 UNL     1      -8.431  23.573   4.265  1.00  0.00     0.227 C
HETATM   27  F1  UNL     1      -8.479  24.413   3.191  1.00  0.00    -0.255 F
ENDBRANCH  25  26
ENDBRANCH   4  18
TORSDOF 5
ENDMDL