MODEL 4
REMARK VINA RESULT: -6.682095508      5.595     10.106
REMARK  5 active torsions:
REMARK  status: ('A' for Active; 'I' for Inactive)
REMARK       I    between atoms: C2_3  and  N2_4
REMARK       I    between atoms: C2_3  and  N5_20
REMARK    1  A    between atoms: N2_4  and  C3_6
REMARK    2  A    between atoms: C3_6  and  C4_7
REMARK    3  A    between atoms: C4_7  and  C5_8
REMARK    4  A    between atoms: C5_8  and  N3_9
REMARK    5  A    between atoms: C8_12  and  C9_13
REMARK       I    between atoms: C9_13  and  N4_15
ROOT
HETATM    1  C1  UNL     1      -5.990  19.028   2.849  1.00  0.00     0.233 C
HETATM    2  N1  UNL     1      -5.484  20.009   2.139  1.00  0.00    -0.396 NA
HETATM    3  C2  UNL     1      -5.021  20.898   1.488  1.00  0.00     0.251 C
HETATM    4  N2  UNL     1      -5.470  22.294   1.681  1.00  0.00    -0.350 N
ATOM      5  H2  UNL     1      -5.632  22.935   0.904  1.00  0.00     0.163 HD
HETATM    6  N5  UNL     1      -4.014  20.612   0.512  1.00  0.00    -0.342 N
HETATM    7  C13 UNL     1      -3.050  19.583   0.837  1.00  0.00     0.128 C
HETATM    8  C14 UNL     1      -2.341  19.168  -0.443  1.00  0.00     0.040 C
HETATM    9  C15 UNL     1      -1.645  20.351  -1.025  1.00  0.00     0.085 C
HETATM   10 CL1  UNL     1      -1.389  20.103  -2.783  1.00  0.00    -0.125 Cl
HETATM   11  C16 UNL     1      -2.419  21.636  -0.906  1.00  0.00     0.040 C
HETATM   12  C17 UNL     1      -3.900  21.246  -0.762  1.00  0.00     0.128 C
ENDROOT
BRANCH   4  13
HETATM   13  C3  UNL     1      -5.661  22.674   3.055  1.00  0.00     0.125 C
BRANCH  13  14
HETATM   14  C4  UNL     1      -4.456  23.229   3.717  1.00  0.00     0.050 C
BRANCH  14  15
HETATM   15  C5  UNL     1      -4.588  23.710   5.130  1.00  0.00     0.274 C
BRANCH  15  16
HETATM   16  N3  UNL     1      -5.967  23.275   5.518  1.00  0.00     0.088 N
HETATM   17  C6  UNL     1      -5.809  22.626   6.802  1.00  0.00     0.273 C
HETATM   18  C7  UNL     1      -6.991  22.941   7.712  1.00  0.00     0.044 C
HETATM   19  C8  UNL     1      -6.934  24.427   8.048  1.00  0.00     0.081 C
HETATM   20  C11 UNL     1      -6.632  25.229   6.822  1.00  0.00     0.044 C
HETATM   21  C12 UNL     1      -6.817  24.413   5.561  1.00  0.00     0.273 C
BRANCH  19  22
HETATM   22  C9  UNL     1      -5.872  24.689   9.057  1.00  0.00     0.221 C
HETATM   23  O1  UNL     1      -4.631  24.685   8.774  1.00  0.00    -0.273 OA
HETATM   24  N4  UNL     1      -6.242  24.955  10.399  1.00  0.00    -0.365 N
HETATM   25  C10 UNL     1      -5.211  25.213  11.384  1.00  0.00     0.149 C
ATOM     26  H4  UNL     1      -7.226  24.965  10.668  1.00  0.00     0.161 HD
ENDBRANCH  19  22
ENDBRANCH  15  16
ENDBRANCH  14  15
ENDBRANCH  13  14
ENDBRANCH   4  13
TORSDOF 4
ENDMDL