MODEL 1
REMARK VINA RESULT: -6.495263018      0.000      0.000
REMARK  7 active torsions:
REMARK  status: ('A' for Active; 'I' for Inactive)
REMARK    1  A    between atoms: C2_2  and  C3_3
REMARK       I    between atoms: C3_3  and  N1_5
REMARK    2  A    between atoms: N1_5  and  N2_6
REMARK    3  A    between atoms: N2_6  and  C4_7
REMARK    4  A    between atoms: N2_6  and  C8_15
REMARK    5  A    between atoms: C4_7  and  C5_8
REMARK       I    between atoms: C5_8  and  N3_10
REMARK    6  A    between atoms: C6_12  and  C7_13
REMARK    7  A    between atoms: C8_15  and  C11_18
ROOT
HETATM    1  N2  UNL     1      -6.061  21.952   4.863  1.00  0.00    -0.220 N
ENDROOT
BRANCH   1   2
HETATM    2  N1  UNL     1      -5.548  21.825   3.669  1.00  0.00    -0.284 NA
HETATM    3  C3  UNL     1      -5.006  21.685   2.418  1.00  0.00     0.312 C
HETATM    4  O1  UNL     1      -4.280  20.694   2.044  1.00  0.00    -0.255 OA
BRANCH   3   5
HETATM    5  C2  UNL     1      -5.230  22.718   1.316  1.00  0.00     0.117 C
HETATM    6  C1  UNL     1      -5.095  24.081   1.879  1.00  0.00     0.016 C
ENDBRANCH   3   5
ENDBRANCH   1   2
BRANCH   1   7
HETATM    7  C4  UNL     1      -6.475  20.759   5.568  1.00  0.00     0.199 C
BRANCH   7   8
HETATM    8  C5  UNL     1      -6.502  19.517   4.822  1.00  0.00     0.263 C
HETATM    9  O2  UNL     1      -5.690  18.623   4.903  1.00  0.00    -0.267 OA
HETATM   10  N3  UNL     1      -7.595  19.307   3.898  1.00  0.00    -0.335 N
HETATM   11  C6  UNL     1      -8.678  18.757   4.294  1.00  0.00     0.075 C
ATOM     12  H3  UNL     1      -7.501  19.600   2.925  1.00  0.00     0.168 HD
BRANCH  11  13
HETATM   13  C7  UNL     1      -9.801  18.530   3.376  1.00  0.00     0.129 C
HETATM   14 BR1  UNL     1     -10.222  16.663   3.106  1.00  0.00    -0.091 Br
ENDBRANCH  11  13
ENDBRANCH   7   8
ENDBRANCH   1   7
BRANCH   1  15
HETATM   15  C8  UNL     1      -6.877  23.027   5.304  1.00  0.00     0.065 C
HETATM   16  C9  UNL     1      -7.682  22.432   6.497  1.00  0.00     0.042 C
HETATM   17  C10 UNL     1      -7.905  23.535   4.327  1.00  0.00     0.042 C
BRANCH  15  18
HETATM   18  C11 UNL     1      -6.155  24.164   5.978  1.00  0.00    -0.024 C
HETATM   19  C12 UNL     1      -4.695  24.095   6.072  1.00  0.00     0.017 C
HETATM   20  C13 UNL     1      -6.523  25.425   5.186  1.00  0.00     0.017 C
HETATM   21  C14 UNL     1      -6.702  24.399   7.391  1.00  0.00     0.017 C
ENDBRANCH  15  18
ENDBRANCH   1  15
TORSDOF 7
ENDMDL