MODEL 2
REMARK VINA RESULT: -6.741926578      1.119      1.725
REMARK  6 active torsions:
REMARK  status: ('A' for Active; 'I' for Inactive)
REMARK    1  A    between atoms: C2_2  and  C3_3
REMARK    2  A    between atoms: C3_3  and  S1_4
REMARK    3  A    between atoms: S1_4  and  N1_7
REMARK    4  A    between atoms: N1_7  and  C4_9
REMARK    5  A    between atoms: C4_9  and  C5_10
REMARK    6  A    between atoms: C4_9  and  C11_19
ROOT
HETATM    1  C4  UNL     1      -5.850  21.865   4.209  1.00  0.00     0.047 C
ENDROOT
BRANCH   1   2
HETATM    2  N1  UNL     1      -6.987  20.980   3.991  1.00  0.00    -0.288 N
ATOM      3  H1  UNL     1      -7.808  21.380   3.537  1.00  0.00     0.178 HD
BRANCH   2   4
HETATM    4  S1  UNL     1      -7.064  19.420   4.404  1.00  0.00     0.230 S
HETATM    5  O1  UNL     1      -7.645  19.405   5.840  1.00  0.00    -0.206 OA
HETATM    6  O2  UNL     1      -5.718  18.732   4.667  1.00  0.00    -0.206 OA
BRANCH   4   7
HETATM    7  C3  UNL     1      -8.054  18.262   3.567  1.00  0.00     0.163 C
BRANCH   7   8
HETATM    8  C2  UNL     1      -9.519  18.303   3.941  1.00  0.00     0.012 C
HETATM    9  C1  UNL     1     -10.154  16.932   3.897  1.00  0.00     0.006 C
ENDBRANCH   7   8
ENDBRANCH   4   7
ENDBRANCH   2   4
ENDBRANCH   1   2
BRANCH   1  10
HETATM   10  C5  UNL     1      -6.089  22.630   5.465  1.00  0.00     0.237 C
HETATM   11  N2  UNL     1      -7.521  22.523   5.873  1.00  0.00    -0.061 N
HETATM   12  C6  UNL     1      -7.494  23.095   7.205  1.00  0.00     0.187 C
ATOM     13  H22 UNL     1      -8.187  22.951   5.231  1.00  0.00     0.278 HD
ATOM     14  H21 UNL     1      -7.920  21.586   5.812  1.00  0.00     0.278 HD
HETATM   15  C7  UNL     1      -6.684  24.372   7.269  1.00  0.00     0.033 C
HETATM   16  C10 UNL     1      -6.461  22.113   7.789  1.00  0.00     0.040 C
HETATM   17  C8  UNL     1      -5.215  23.927   7.303  1.00  0.00     0.009 C
HETATM   18  C9  UNL     1      -5.398  22.491   6.708  1.00  0.00     0.024 C
ENDBRANCH   1  10
BRANCH   1  19
HETATM   19  C11 UNL     1      -5.361  22.473   2.986  1.00  0.00     0.052 C
HETATM   20  C12 UNL     1      -6.185  23.528   2.315  1.00  0.00     0.034 C
HETATM   21  C13 UNL     1      -4.072  23.245   3.365  1.00  0.00     0.034 C
HETATM   22 BR1  UNL     1      -4.786  21.309   1.575  1.00  0.00    -0.080 Br
ENDBRANCH   1  19
TORSDOF 6
ENDMDL