MODEL 1
REMARK VINA RESULT: -7.595713428      0.000      0.000
REMARK  9 active torsions:
REMARK  status: ('A' for Active; 'I' for Inactive)
REMARK    1  A    between atoms: C3_5  and  C4_6
REMARK    2  A    between atoms: C4_6  and  N2_7
REMARK    3  A    between atoms: N2_7  and  N3_9
REMARK    4  A    between atoms: N3_9  and  N4_10
REMARK    5  A    between atoms: C9_20  and  N6_21
REMARK       I    between atoms: N6_21  and  C10_23
REMARK    6  A    between atoms: C10_23  and  C11_25
REMARK    7  A    between atoms: C11_25  and  C12_26
REMARK    8  A    between atoms: C13_28  and  N7_29
REMARK    9  A    between atoms: N7_29  and  N8_30
ROOT
HETATM    1  C1  UNL     1      -7.341  23.515   4.348  1.00  0.00     0.360 C
HETATM    2  N1  UNL     1      -6.816  23.320   5.690  1.00  0.00     0.052 N
HETATM    3  O1  UNL     1      -7.910  23.028   6.470  1.00  0.00    -0.062 OA
HETATM    4  C2  UNL     1      -6.233  24.583   6.081  1.00  0.00     0.323 C
HETATM    5  C3  UNL     1      -5.325  24.507   7.250  1.00  0.00     0.066 C
HETATM    6  C5  UNL     1      -4.532  23.243   7.352  1.00  0.00     0.245 C
HETATM    7  N5  UNL     1      -4.539  22.613   6.041  1.00  0.00    -0.025 N
ATOM      8  H51 UNL     1      -3.869  21.849   5.952  1.00  0.00     0.281 HD
ATOM      9  H52 UNL     1      -4.150  23.202   5.303  1.00  0.00     0.281 HD
HETATM   10  C6  UNL     1      -5.925  22.209   5.797  1.00  0.00     0.396 C
HETATM   11  C7  UNL     1      -6.287  21.292   6.973  1.00  0.00     0.090 C
HETATM   12  C8  UNL     1      -7.176  20.219   6.412  1.00  0.00     0.038 C
HETATM   13  C9  UNL     1      -6.607  19.994   5.024  1.00  0.00     0.152 C
HETATM   14  C13 UNL     1      -5.990  21.273   4.647  1.00  0.00     0.181 C
ENDROOT
BRANCH  14  15
HETATM   15  N7  UNL     1      -5.568  21.552   3.503  1.00  0.00    -0.335 NA
BRANCH  15  16
HETATM   16  N8  UNL     1      -5.226  21.616   2.303  1.00  0.00    -0.280 N
ATOM     17  H82 UNL     1      -5.661  22.536   2.239  1.00  0.00     0.191 HD
ATOM     18  H81 UNL     1      -4.871  21.496   1.354  1.00  0.00     0.191 HD
ENDBRANCH  15  16
ENDBRANCH  14  15
BRANCH  13  19
HETATM   19  N6  UNL     1      -7.711  19.615   4.163  1.00  0.00    -0.350 N
HETATM   20  C10 UNL     1      -7.824  18.375   3.527  1.00  0.00     0.219 C
HETATM   21  O2  UNL     1      -6.921  17.523   3.704  1.00  0.00    -0.274 OA
ATOM     22  H6  UNL     1      -8.453  20.298   4.011  1.00  0.00     0.163 HD
BRANCH  20  23
HETATM   23  C11 UNL     1      -8.999  18.095   2.667  1.00  0.00     0.117 C
BRANCH  23  24
HETATM   24  C12 UNL     1      -9.434  16.665   2.906  1.00  0.00     0.124 C
HETATM   25 CL1  UNL     1     -10.533  16.544   4.288  1.00  0.00    -0.130 Cl
ENDBRANCH  23  24
ENDBRANCH  20  23
ENDBRANCH  13  19
BRANCH   5  26
HETATM   26  C4  UNL     1      -6.096  24.824   8.524  1.00  0.00     0.164 C
BRANCH  26  27
HETATM   27  N2  UNL     1      -5.283  24.510   9.684  1.00  0.00    -0.252 N
ATOM     28  H2  UNL     1      -4.622  23.735   9.620  1.00  0.00     0.196 HD
BRANCH  27  29
HETATM   29  N3  UNL     1      -5.352  25.134  10.737  1.00  0.00    -0.249 NA
BRANCH  29  30
HETATM   30  N4  UNL     1      -5.408  25.552  11.886  1.00  0.00    -0.261 N
ATOM     31  H42 UNL     1      -4.568  26.104  11.711  1.00  0.00     0.193 HD
ATOM     32  H41 UNL     1      -5.608  25.793  12.856  1.00  0.00     0.193 HD
ENDBRANCH  29  30
ENDBRANCH  27  29
ENDBRANCH  26  27
ENDBRANCH   5  26
TORSDOF 9
ENDMDL