MODEL 3
REMARK VINA RESULT: -7.043513671      6.332     10.432
REMARK  6 active torsions:
REMARK  status: ('A' for Active; 'I' for Inactive)
REMARK    1  A    between atoms: C2_2  and  C4_5
REMARK    2  A    between atoms: C4_5  and  N1_6
REMARK       I    between atoms: N1_6  and  C5_8
REMARK       I    between atoms: C5_8  and  N5_24
REMARK    3  A    between atoms: N2_9  and  C6_11
REMARK    4  A    between atoms: C6_11  and  C7_12
REMARK    5  A    between atoms: C7_12  and  C8_13
REMARK    6  A    between atoms: C8_13  and  N3_14
ROOT
HETATM    1  N1  UNL     1      -5.483  23.194   7.977  1.00  0.00    -0.223 N
ATOM      2  H1  UNL     1      -5.469  22.677   8.856  1.00  0.00     0.177 HD
HETATM    3  C5  UNL     1      -5.202  24.586   7.967  1.00  0.00     0.672 C
HETATM    4  N2  UNL     1      -5.309  25.280   9.025  1.00  0.00    -0.226 N
ATOM      5  H2  UNL     1      -5.094  26.275   8.960  1.00  0.00     0.177 HD
HETATM    6  N5  UNL     1      -4.798  25.215   6.776  1.00  0.00    -0.214 N
HETATM    7  C15 UNL     1      -5.761  25.772   5.869  1.00  0.00     0.167 C
HETATM    8  C16 UNL     1      -5.114  26.955   5.143  1.00  0.00     0.188 C
HETATM    9  O1  UNL     1      -4.142  27.545   5.966  1.00  0.00    -0.388 OA
HETATM   10  C17 UNL     1      -3.014  26.717   6.087  1.00  0.00     0.188 C
HETATM   11  C18 UNL     1      -3.400  25.302   6.460  1.00  0.00     0.167 C
ENDROOT
BRANCH   4  12
HETATM   12  C6  UNL     1      -5.712  24.766  10.317  1.00  0.00     0.139 C
BRANCH  12  13
HETATM   13  C7  UNL     1      -5.749  25.976  11.259  1.00  0.00     0.040 C
BRANCH  13  14
HETATM   14  C8  UNL     1      -5.492  27.243  10.466  1.00  0.00     0.122 C
BRANCH  14  15
HETATM   15  N3  UNL     1      -6.602  28.126  10.641  1.00  0.00    -0.380 N
HETATM   16  C9  UNL     1      -6.944  29.061   9.816  1.00  0.00     0.072 C
HETATM   17  C10 UNL     1      -8.126  29.821  10.243  1.00  0.00     0.076 C
HETATM   18  N4  UNL     1      -6.132  29.201   8.648  1.00  0.00    -0.380 N
HETATM   19  C11 UNL     1      -8.204  31.196   9.632  1.00  0.00     0.007 C
HETATM   20  C12 UNL     1      -8.488  31.049   8.154  1.00  0.00     0.002 C
HETATM   21  C13 UNL     1      -7.133  31.101   7.449  1.00  0.00     0.020 C
HETATM   22  C14 UNL     1      -6.561  29.722   7.382  1.00  0.00     0.121 C
ATOM     23  H4  UNL     1      -5.160  28.902   8.720  1.00  0.00     0.160 HD
ATOM     24  H3  UNL     1      -7.168  28.009  11.481  1.00  0.00     0.160 HD
ENDBRANCH  14  15
ENDBRANCH  13  14
ENDBRANCH  12  13
ENDBRANCH   4  12
BRANCH   1  25
HETATM   25  C4  UNL     1      -5.790  22.509   6.732  1.00  0.00     0.180 C
BRANCH  25  26
HETATM   26  C2  UNL     1      -7.218  22.065   6.665  1.00  0.00     0.112 C
HETATM   27  C1  UNL     1      -7.355  20.568   6.505  1.00  0.00     0.053 C
HETATM   28  C3  UNL     1      -7.839  22.700   5.436  1.00  0.00     0.053 C
HETATM   29  F1  UNL     1      -7.940  22.499   7.769  1.00  0.00    -0.242 F
ENDBRANCH  25  26
ENDBRANCH   1  25
TORSDOF 6
ENDMDL