MODEL 1
REMARK VINA RESULT: -7.379086540      0.000      0.000
REMARK  5 active torsions:
REMARK  status: ('A' for Active; 'I' for Inactive)
REMARK    1  A    between atoms: N1_2  and  S1_4
REMARK    2  A    between atoms: S1_4  and  N2_7
REMARK    3  A    between atoms: N2_7  and  C2_9
REMARK    4  A    between atoms: C2_9  and  C3_10
REMARK    5  A    between atoms: N3_16  and  C8_17
ROOT
HETATM    1  C2  UNL     1      -6.325  23.046   5.855  1.00  0.00     0.139 C
HETATM    2  C6  UNL     1      -6.084  22.063   6.954  1.00  0.00     0.143 C
HETATM    3  C7  UNL     1      -6.747  20.810   6.513  1.00  0.00     0.227 C
HETATM    4  O3  UNL     1      -6.920  19.777   7.266  1.00  0.00    -0.273 OA
HETATM    5  N3  UNL     1      -7.148  20.929   5.163  1.00  0.00    -0.282 N
HETATM    6  C15 UNL     1      -7.252  22.334   4.866  1.00  0.00     0.353 C
HETATM    7  F1  UNL     1      -6.804  22.558   3.550  1.00  0.00    -0.179 F
HETATM    8  F2  UNL     1      -8.525  22.815   4.979  1.00  0.00    -0.179 F
ENDROOT
BRANCH   1   9
HETATM    9  N2  UNL     1      -5.151  23.353   5.145  1.00  0.00    -0.284 N
ATOM     10  H2  UNL     1      -5.197  23.386   4.127  1.00  0.00     0.175 HD
BRANCH   9  11
HETATM   11  S1  UNL     1      -3.697  23.666   5.875  1.00  0.00     0.315 S
HETATM   12  O1  UNL     1      -3.422  22.502   6.848  1.00  0.00    -0.183 OA
HETATM   13  O2  UNL     1      -2.514  23.662   4.961  1.00  0.00    -0.183 OA
BRANCH  11  14
HETATM   14  N1  UNL     1      -3.680  25.069   6.889  1.00  0.00    -0.307 N
HETATM   15  C1  UNL     1      -3.110  26.212   6.245  1.00  0.00     0.161 C
ATOM     16  H1  UNL     1      -4.038  25.080   7.845  1.00  0.00     0.173 HD
ENDBRANCH  11  14
ENDBRANCH   9  11
ENDBRANCH   1   9
BRANCH   1  17
HETATM   17  C3  UNL     1      -7.024  24.245   6.462  1.00  0.00     0.015 C
HETATM   18  C4  UNL     1      -6.761  24.385   7.932  1.00  0.00     0.012 C
HETATM   19  C5  UNL     1      -6.686  25.539   5.716  1.00  0.00     0.012 C
ENDBRANCH   1  17
BRANCH   5  20
HETATM   20  C8  UNL     1      -7.419  19.787   4.252  1.00  0.00     0.094 C
HETATM   21  C9  UNL     1      -6.166  18.942   4.382  1.00  0.00     0.036 C
HETATM   22  C10 UNL     1      -6.249  17.614   3.560  1.00  0.00     0.082 C
HETATM   23  C11 UNL     1      -7.605  17.431   3.249  1.00  0.00    -0.183 C
HETATM   24  C12 UNL     1      -8.971  17.315   2.966  1.00  0.00     0.080 C
HETATM   25  C13 UNL     1      -9.644  18.615   3.537  1.00  0.00     0.013 C
HETATM   26  C14 UNL     1      -8.735  19.305   4.563  1.00  0.00     0.026 C
ENDBRANCH   5  20
TORSDOF 5
ENDMDL