MODEL 5
REMARK VINA RESULT: -6.276708251      3.292      6.730
REMARK  6 active torsions:
REMARK  status: ('A' for Active; 'I' for Inactive)
REMARK    1  A    between atoms: N1_2  and  C3_4
REMARK    2  A    between atoms: C3_4  and  O1_5
REMARK    3  A    between atoms: C4_7  and  N2_8
REMARK       I    between atoms: N2_8  and  C5_10
REMARK    4  A    between atoms: C5_10  and  C6_12
REMARK    5  A    between atoms: C10_16  and  C11_17
REMARK       I    between atoms: C11_17  and  N3_19
REMARK    6  A    between atoms: N3_19  and  C12_21
ROOT
HETATM    1  C6  UNL     1      -5.547  24.501   5.156  1.00  0.00     0.091 C
HETATM    2  C7  UNL     1      -6.912  25.048   4.904  1.00  0.00     0.015 C
HETATM    3  C8  UNL     1      -7.265  24.598   3.516  1.00  0.00     0.002 C
HETATM    4  C9  UNL     1      -6.154  23.723   3.022  1.00  0.00     0.015 C
HETATM    5  C10 UNL     1      -5.368  23.346   4.240  1.00  0.00     0.091 C
ENDROOT
BRANCH   1   6
HETATM    6  C5  UNL     1      -5.206  24.295   6.538  1.00  0.00     0.226 C
HETATM    7  N2  UNL     1      -6.267  24.280   7.525  1.00  0.00    -0.333 N
ATOM      8  H2  UNL     1      -7.232  24.414   7.224  1.00  0.00     0.168 HD
HETATM    9  O2  UNL     1      -4.065  24.130   6.949  1.00  0.00    -0.273 OA
BRANCH   7  10
HETATM   10  C4  UNL     1      -5.991  24.084   8.892  1.00  0.00     0.146 C
HETATM   11  C3  UNL     1      -5.792  25.235   9.724  1.00  0.00     0.153 C
BRANCH  11  12
HETATM   12  N1  UNL     1      -5.799  26.606   9.528  1.00  0.00    -0.370 N
HETATM   13  C1  UNL     1      -6.208  27.468  10.693  1.00  0.00     0.151 C
HETATM   14  C2  UNL     1      -5.472  27.362   8.364  1.00  0.00     0.151 C
ENDBRANCH  11  12
BRANCH  11  15
HETATM   15  O1  UNL     1      -5.537  24.921  11.003  1.00  0.00    -0.345 OA
ATOM     16  H1  UNL     1      -6.295  24.533  11.424  1.00  0.00     0.219 HD
ENDBRANCH  11  15
ENDBRANCH   7  10
ENDBRANCH   1   6
BRANCH   5  17
HETATM   17  C11 UNL     1      -5.781  22.038   4.720  1.00  0.00     0.223 C
HETATM   18  O3  UNL     1      -5.527  21.666   5.888  1.00  0.00    -0.273 OA
HETATM   19  N3  UNL     1      -6.479  21.138   3.893  1.00  0.00    -0.355 N
ATOM     20  H3  UNL     1      -6.701  21.413   2.936  1.00  0.00     0.162 HD
BRANCH  19  21
HETATM   21  C12 UNL     1      -6.900  19.807   4.371  1.00  0.00     0.102 C
HETATM   22  C13 UNL     1      -8.232  19.875   5.042  1.00  0.00     0.027 C
HETATM   23  C14 UNL     1      -9.035  18.599   4.887  1.00  0.00     0.002 C
HETATM   24  C15 UNL     1      -9.325  18.413   3.428  1.00  0.00     0.002 C
HETATM   25  C16 UNL     1      -8.160  18.659   2.533  1.00  0.00     0.022 C
HETATM   26  C17 UNL     1      -6.852  18.800   3.248  1.00  0.00     0.105 C
HETATM   27 CL1  UNL     1      -6.222  17.233   3.829  1.00  0.00    -0.123 Cl
ENDBRANCH  19  21
ENDBRANCH   5  17
TORSDOF 6
ENDMDL