MODEL 5
REMARK VINA RESULT: -5.108969001      1.128      1.128
REMARK  4 active torsions:
REMARK  status: ('A' for Active; 'I' for Inactive)
REMARK    1  A    between atoms: C2_2  and  O1_3
REMARK    2  A    between atoms: C5_7  and  C6_8
REMARK    3  A    between atoms: C6_8  and  O2_9
REMARK    4  A    between atoms: O2_9  and  N1_10
ROOT
HETATM    1  C1  UNL     1       8.701 -14.010  38.519  1.00  0.00     0.045 C
HETATM    2  C2  UNL     1       9.512 -13.361  39.637  1.00  0.00     0.054 C
HETATM    3  C3  UNL     1       9.712 -14.412  40.676  1.00  0.00     0.038 C
HETATM    4  C4  UNL     1      11.006 -15.147  40.540  1.00  0.00     0.010 C
HETATM    5  C5  UNL     1      12.116 -14.153  40.665  1.00  0.00     0.012 C
HETATM    6  C7  UNL     1      12.009 -12.961  39.795  1.00  0.00     0.010 C
HETATM    7  C8  UNL     1      10.740 -12.769  39.056  1.00  0.00     0.038 C
ENDROOT
BRANCH   5   8
HETATM    8  C6  UNL     1      13.406 -14.918  40.391  1.00  0.00     0.205 C
BRANCH   8   9
HETATM    9  O2  UNL     1      14.188 -15.048  41.524  1.00  0.00    -0.287 OA
BRANCH   9  10
HETATM   10  N1  UNL     1      14.069 -13.890  42.232  1.00  0.00    -0.311 N
ATOM     11  H12 UNL     1      13.532 -13.772  43.091  1.00  0.00     0.184 HD
ATOM     12  H11 UNL     1      14.614 -13.179  41.743  1.00  0.00     0.184 HD
ENDBRANCH   9  10
ENDBRANCH   8   9
ENDBRANCH   5   8
BRANCH   2  13
HETATM   13  O1  UNL     1       8.684 -12.375  40.197  1.00  0.00    -0.390 OA
ATOM     14  H1  UNL     1       8.629 -12.573  41.125  1.00  0.00     0.210 HD
ENDBRANCH   2  13
TORSDOF 4
ENDMDL