MODEL 2
REMARK VINA RESULT: -4.833117942      3.970      6.889
REMARK  3 active torsions:
REMARK  status: ('A' for Active; 'I' for Inactive)
REMARK    1  A    between atoms: C2_2  and  N1_4
REMARK    2  A    between atoms: N1_4  and  C4_6
REMARK    3  A    between atoms: C8_13  and  O1_14
ROOT
HETATM    1  C4  UNL     1      10.748 -13.799  40.157  1.00  0.00     0.309 C
HETATM    2  N2  UNL     1      10.211 -15.080  39.800  1.00  0.00    -0.052 N
ATOM      3  H21 UNL     1       9.985 -15.660  40.608  1.00  0.00     0.279 HD
ATOM      4  H22 UNL     1      10.903 -15.703  39.383  1.00  0.00     0.279 HD
HETATM    5  C5  UNL     1       9.071 -14.837  38.937  1.00  0.00     0.241 C
HETATM    6  C6  UNL     1       9.388 -13.548  38.227  1.00  0.00     0.040 C
HETATM    7  C7  UNL     1       8.166 -12.832  37.718  1.00  0.00     0.014 C
HETATM    8  C8  UNL     1      10.073 -12.754  39.332  1.00  0.00     0.173 C
ENDROOT
BRANCH   1   9
HETATM    9  N1  UNL     1      12.160 -13.707  40.218  1.00  0.00    -0.390 N
ATOM     10  H1  UNL     1      12.663 -12.994  39.689  1.00  0.00     0.155 HD
BRANCH   9  11
HETATM   11  C2  UNL     1      12.853 -14.632  41.033  1.00  0.00     0.070 C
HETATM   12  C1  UNL     1      13.750 -15.506  40.149  1.00  0.00     0.031 C
HETATM   13  C3  UNL     1      13.800 -13.881  41.943  1.00  0.00     0.031 C
ENDBRANCH   9  11
ENDBRANCH   1   9
BRANCH   8  14
HETATM   14  O1  UNL     1       9.042 -12.116  40.029  1.00  0.00    -0.391 OA
ATOM     15  H1  UNL     1       9.342 -11.332  40.474  1.00  0.00     0.210 HD
ENDBRANCH   8  14
TORSDOF 3
ENDMDL