MODEL 4
REMARK VINA RESULT: -4.412247537      2.067      2.884
REMARK  3 active torsions:
REMARK  status: ('A' for Active; 'I' for Inactive)
REMARK    1  A    between atoms: N1_1  and  C1_5
REMARK    2  A    between atoms: C1_5  and  C2_6
REMARK    3  A    between atoms: C8_12  and  N2_13
ROOT
HETATM    1  C2  UNL     1      10.332 -13.996  39.907  1.00  0.00     0.041 C
HETATM    2  C3  UNL     1      10.772 -15.253  39.189  1.00  0.00     0.008 C
HETATM    3  C4  UNL     1      11.892 -15.960  39.905  1.00  0.00     0.000 C
HETATM    4  C5  UNL     1      13.083 -15.078  40.086  1.00  0.00     0.000 C
HETATM    5  C6  UNL     1      12.864 -13.910  40.985  1.00  0.00     0.002 C
HETATM    6  C7  UNL     1      11.748 -14.081  41.967  1.00  0.00     0.033 C
HETATM    7  C8  UNL     1      10.404 -14.257  41.379  1.00  0.00     0.189 C
ENDROOT
BRANCH   1   8
HETATM    8  C1  UNL     1       8.909 -13.710  39.452  1.00  0.00     0.236 C
BRANCH   8   9
HETATM    9  N1  UNL     1       8.658 -14.591  38.311  1.00  0.00    -0.079 N
ATOM     10  H13 UNL     1       7.846 -14.317  37.758  1.00  0.00     0.274 HD
ATOM     11  H12 UNL     1       9.351 -14.499  37.568  1.00  0.00     0.274 HD
ATOM     12  H11 UNL     1       8.592 -15.536  38.688  1.00  0.00     0.274 HD
ENDBRANCH   8   9
ENDBRANCH   1   8
BRANCH   7  13
HETATM   13  N2  UNL     1       9.455 -13.409  42.120  1.00  0.00    -0.075 N
ATOM     14  H23 UNL     1       9.938 -12.705  42.677  1.00  0.00     0.274 HD
ATOM     15  H22 UNL     1       8.940 -12.789  41.494  1.00  0.00     0.274 HD
ATOM     16  H21 UNL     1       8.824 -13.971  42.691  1.00  0.00     0.274 HD
ENDBRANCH   7  13
TORSDOF 3
ENDMDL