MODEL 2
REMARK VINA RESULT: -5.622733799      1.743      2.533
REMARK  2 active torsions:
REMARK  status: ('A' for Active; 'I' for Inactive)
REMARK    1  A    between atoms: C2_2  and  O1_3
REMARK    2  A    between atoms: C7_9  and  N1_10
ROOT
HETATM    1  N1  UNL     1       8.863 -13.545  39.464  1.00  0.00    -0.321 N
ATOM      2  H1  UNL     1       8.136 -14.103  39.911  1.00  0.00     0.172 HD
HETATM    3  C8  UNL     1       8.645 -13.111  38.160  1.00  0.00     0.177 C
HETATM    4  N2  UNL     1       8.472 -12.766  37.071  1.00  0.00    -0.172 NA
ENDROOT
BRANCH   1   5
HETATM    5  C7  UNL     1      10.058 -13.255  40.227  1.00  0.00     0.126 C
HETATM    6  C2  UNL     1      10.236 -14.273  41.271  1.00  0.00     0.075 C
HETATM    7  C1  UNL     1       9.345 -13.888  42.464  1.00  0.00     0.048 C
HETATM    8  C3  UNL     1      11.600 -14.489  41.803  1.00  0.00     0.040 C
HETATM    9  C4  UNL     1      12.659 -13.635  41.148  1.00  0.00     0.003 C
HETATM   10  C5  UNL     1      12.435 -13.825  39.644  1.00  0.00     0.002 C
HETATM   11  C6  UNL     1      11.212 -13.017  39.309  1.00  0.00     0.029 C
BRANCH   6  12
HETATM   12  O1  UNL     1       9.737 -15.526  40.847  1.00  0.00    -0.388 OA
ATOM     13  H1  UNL     1      10.052 -16.140  41.499  1.00  0.00     0.210 HD
ENDBRANCH   6  12
ENDBRANCH   1   5
TORSDOF 2
ENDMDL