MODEL 5
REMARK VINA RESULT: -4.838825585      9.587     10.860
REMARK  1 active torsions:
REMARK  status: ('A' for Active; 'I' for Inactive)
REMARK    1  A    between atoms: C2_2  and  C3_3
ROOT
HETATM    1  C3  UNL     1      16.719  -7.539  44.932  1.00  0.00     0.003 C
HETATM    2  C4  UNL     1      17.974  -8.308  45.277  1.00  0.00     0.008 C
HETATM    3  C5  UNL     1      17.823  -9.788  44.997  1.00  0.00     0.022 C
HETATM    4  C6  UNL     1      16.873 -10.358  46.030  1.00  0.00     0.139 C
HETATM    5  N1  UNL     1      15.511 -10.379  45.521  1.00  0.00    -0.336 N
ATOM      6  H1  UNL     1      15.326 -10.746  44.587  1.00  0.00     0.180 HD
HETATM    7  N2  UNL     1      14.480  -9.913  46.281  1.00  0.00    -0.301 N
ATOM      8  H2  UNL     1      13.926 -10.646  46.724  1.00  0.00     0.187 HD
HETATM    9  C7  UNL     1      14.081  -8.733  46.540  1.00  0.00     0.192 C
HETATM   10  N3  UNL     1      14.622  -7.516  46.090  1.00  0.00    -0.385 N
ATOM     11  H3  UNL     1      13.969  -6.866  45.652  1.00  0.00     0.160 HD
HETATM   12  C8  UNL     1      15.995  -7.079  46.178  1.00  0.00     0.125 C
ENDROOT
BRANCH   1  13
HETATM   13  C2  UNL     1      17.099  -6.334  44.084  1.00  0.00     0.002 C
HETATM   14  C1  UNL     1      18.519  -6.507  43.606  1.00  0.00     0.005 C
ENDBRANCH   1  13
TORSDOF 1
ENDMDL