MODEL 1
REMARK VINA RESULT: -4.730567054      0.000      0.000
REMARK  3 active torsions:
REMARK  status: ('A' for Active; 'I' for Inactive)
REMARK    1  A    between atoms: C2_2  and  N1_3
REMARK    2  A    between atoms: C7_11  and  N2_12
REMARK    3  A    between atoms: C7_11  and  N3_16
ROOT
HETATM    1  C1  UNL     1      17.059  -9.431  45.121  1.00  0.00     0.051 C
HETATM    2  C2  UNL     1      16.584  -8.109  45.675  1.00  0.00     0.176 C
HETATM    3  C3  UNL     1      17.368  -7.662  46.865  1.00  0.00     0.026 C
HETATM    4  C4  UNL     1      16.399  -6.829  47.698  1.00  0.00     0.016 C
HETATM    5  C5  UNL     1      15.640  -8.165  47.782  1.00  0.00     0.047 C
HETATM    6  C6  UNL     1      17.039  -8.759  47.886  1.00  0.00     0.016 C
HETATM    7  C7  UNL     1      15.219  -8.328  46.358  1.00  0.00     0.244 C
ENDROOT
BRANCH   7   8
HETATM    8  N2  UNL     1      14.368  -7.204  46.002  1.00  0.00    -0.049 N
ATOM      9  H23 UNL     1      14.831  -6.302  46.117  1.00  0.00     0.277 HD
ATOM     10  H22 UNL     1      14.196  -7.137  44.999  1.00  0.00     0.277 HD
ATOM     11  H21 UNL     1      13.511  -7.284  46.549  1.00  0.00     0.277 HD
ENDBRANCH   7   8
BRANCH   7  12
HETATM   12  N3  UNL     1      14.659  -9.581  46.040  1.00  0.00    -0.305 N
HETATM   13  N4  UNL     1      13.933 -10.131  46.913  1.00  0.00    -0.347 N
ATOM     14  H42 UNL     1      13.768  -9.674  47.809  1.00  0.00     0.176 HD
ATOM     15  H41 UNL     1      13.527 -11.039  46.683  1.00  0.00     0.176 HD
ATOM     16  H3  UNL     1      14.833 -10.026  45.139  1.00  0.00     0.182 HD
ENDBRANCH   7  12
BRANCH   2  17
HETATM   17  N1  UNL     1      16.451  -7.101  44.655  1.00  0.00    -0.066 N
ATOM     18  H13 UNL     1      17.353  -6.677  44.438  1.00  0.00     0.275 HD
ATOM     19  H12 UNL     1      16.245  -7.521  43.748  1.00  0.00     0.275 HD
ATOM     20  H11 UNL     1      15.760  -6.391  44.896  1.00  0.00     0.275 HD
ENDBRANCH   2  17
TORSDOF 3
ENDMDL