MODEL 5
REMARK VINA RESULT: -4.378429563      2.194      4.482
REMARK  3 active torsions:
REMARK  status: ('A' for Active; 'I' for Inactive)
REMARK    1  A    between atoms: C2_2  and  N1_3
REMARK    2  A    between atoms: C2_2  and  C3_7
REMARK    3  A    between atoms: N2_12  and  N3_14
ROOT
HETATM    1  C3  UNL     1      10.759 -14.472  40.880  1.00  0.00     0.113 C
HETATM    2  C4  UNL     1      10.909 -15.659  39.962  1.00  0.00     0.028 C
HETATM    3  C5  UNL     1      12.190 -15.528  39.128  1.00  0.00     0.010 C
HETATM    4  C6  UNL     1      13.363 -15.721  40.100  1.00  0.00     0.077 C
HETATM    5  C7  UNL     1      13.264 -14.641  41.093  1.00  0.00     0.091 C
HETATM    6  N2  UNL     1      14.317 -14.214  41.687  1.00  0.00    -0.296 N
ATOM      7  H2  UNL     1      15.203 -14.654  41.439  1.00  0.00     0.187 HD
HETATM    8  N4  UNL     1      12.026 -14.042  41.426  1.00  0.00    -0.372 N
ATOM      9  H4  UNL     1      12.028 -13.266  42.087  1.00  0.00     0.161 HD
ENDROOT
BRANCH   1  10
HETATM   10  C2  UNL     1      10.195 -13.303  40.097  1.00  0.00     0.202 C
HETATM   11  C1  UNL     1       9.180 -13.761  39.089  1.00  0.00     0.042 C
BRANCH  10  12
HETATM   12  N1  UNL     1      11.299 -12.639  39.461  1.00  0.00    -0.073 N
ATOM     13  H13 UNL     1      11.217 -12.668  38.444  1.00  0.00     0.274 HD
ATOM     14  H12 UNL     1      11.255 -11.629  39.593  1.00  0.00     0.274 HD
ATOM     15  H11 UNL     1      12.191 -13.019  39.776  1.00  0.00     0.274 HD
ENDBRANCH  10  12
ENDBRANCH   1  10
BRANCH   6  16
HETATM   16  N3  UNL     1      14.353 -13.212  42.632  1.00  0.00    -0.344 N
ATOM     17  H32 UNL     1      15.222 -13.120  43.158  1.00  0.00     0.176 HD
ATOM     18  H31 UNL     1      13.590 -12.567  42.840  1.00  0.00     0.176 HD
ENDBRANCH   6  16
TORSDOF 3
ENDMDL