MODEL 5
REMARK VINA RESULT: -4.678177427      3.597      5.328
REMARK  3 active torsions:
REMARK  status: ('A' for Active; 'I' for Inactive)
REMARK    1  A    between atoms: C2_2  and  C5_5
REMARK    2  A    between atoms: C5_5  and  N1_6
REMARK    3  A    between atoms: N1_6  and  C6_8
ROOT
HETATM    1  C6  UNL     1      16.081 -11.523  45.836  1.00  0.00     0.199 A
HETATM    2  C7  UNL     1      16.366 -12.026  47.202  1.00  0.00     0.167 A
HETATM    3  N2  UNL     1      15.631 -11.171  48.088  1.00  0.00    -0.383 N
ATOM      4  H2  UNL     1      15.666 -11.233  49.106  1.00  0.00     0.160 HD
HETATM    5  C8  UNL     1      14.929 -10.324  47.446  1.00  0.00     0.173 A
HETATM    6  N3  UNL     1      15.092 -10.486  46.052  1.00  0.00    -0.364 N
ATOM      7  H3  UNL     1      14.599  -9.966  45.326  1.00  0.00     0.162 HD
ENDROOT
BRANCH   1   8
HETATM    8  N1  UNL     1      15.573 -12.442  44.909  1.00  0.00    -0.380 N
ATOM      9  H1  UNL     1      14.796 -13.048  45.173  1.00  0.00     0.160 HD
BRANCH   8  10
HETATM   10  C5  UNL     1      16.123 -12.538  43.624  1.00  0.00     0.066 C
BRANCH  10  11
HETATM   11  C2  UNL     1      15.927 -13.937  43.069  1.00  0.00    -0.020 C
HETATM   12  C1  UNL     1      14.562 -14.017  42.409  1.00  0.00     0.020 C
HETATM   13  C3  UNL     1      16.046 -14.892  44.224  1.00  0.00     0.020 C
HETATM   14  C4  UNL     1      16.965 -14.250  42.046  1.00  0.00     0.020 C
ENDBRANCH  10  11
ENDBRANCH   8  10
ENDBRANCH   1   8
TORSDOF 3
ENDMDL