MODEL 5
REMARK VINA RESULT: -4.831060330      2.246      3.389
REMARK  4 active torsions:
REMARK  status: ('A' for Active; 'I' for Inactive)
REMARK    1  A    between atoms: C2_2  and  C3_3
REMARK    2  A    between atoms: C7_7  and  N1_8
REMARK    3  A    between atoms: C8_12  and  N2_13
REMARK    4  A    between atoms: N2_13  and  O1_15
ROOT
HETATM    1  C3  UNL     1      10.520 -13.866  40.578  1.00  0.00    -0.020 C
HETATM    2  C4  UNL     1      11.892 -13.311  40.358  1.00  0.00     0.017 C
HETATM    3  C5  UNL     1       9.503 -13.045  39.838  1.00  0.00     0.013 C
HETATM    4  C6  UNL     1       8.799 -13.942  38.876  1.00  0.00     0.036 C
HETATM    5  C7  UNL     1       9.632 -15.205  38.758  1.00  0.00     0.208 C
HETATM    6  C8  UNL     1      10.321 -15.260  40.100  1.00  0.00     0.144 C
ENDROOT
BRANCH   5   7
HETATM    7  N1  UNL     1       8.695 -16.307  38.591  1.00  0.00    -0.073 N
ATOM      8  H13 UNL     1       7.894 -16.070  38.007  1.00  0.00     0.274 HD
ATOM      9  H12 UNL     1       9.060 -17.061  38.008  1.00  0.00     0.274 HD
ATOM     10  H11 UNL     1       8.435 -16.613  39.529  1.00  0.00     0.274 HD
ENDBRANCH   5   7
BRANCH   6  11
HETATM   11  N2  UNL     1      11.476 -16.092  40.107  1.00  0.00    -0.297 N
ATOM     12  H2  UNL     1      11.930 -16.379  40.975  1.00  0.00     0.187 HD
BRANCH  11  13
HETATM   13  O1  UNL     1      11.928 -16.473  38.923  1.00  0.00    -0.294 OA
ATOM     14  H1  UNL     1      11.797 -17.387  38.699  1.00  0.00     0.244 HD
ENDBRANCH  11  13
ENDBRANCH   6  11
BRANCH   1  15
HETATM   15  C2  UNL     1      10.274 -13.820  42.091  1.00  0.00     0.007 C
HETATM   16  C1  UNL     1       9.304 -14.856  42.534  1.00  0.00     0.006 C
ENDBRANCH   1  15
TORSDOF 4
ENDMDL