MODEL 3
REMARK VINA RESULT: -8.374489686      3.027      7.130
REMARK  5 active torsions:
REMARK  status: ('A' for Active; 'I' for Inactive)
REMARK    1  A    between atoms: C2_3  and  C3_4
REMARK    2  A    between atoms: C3_4  and  C4_5
REMARK    3  A    between atoms: C4_5  and  N2_6
REMARK    4  A    between atoms: C10_24  and  N7_25
REMARK    5  A    between atoms: N7_25  and  N8_27
ROOT
HETATM    1  N2  UNL     1      14.521  35.691  15.730  1.00  0.00    -0.352 N
ATOM      2  H2  UNL     1      13.856  35.600  16.497  1.00  0.00     0.166 HD
HETATM    3  C5  UNL     1      15.193  34.674  15.562  1.00  0.00     0.153 C
HETATM    4  N3  UNL     1      14.945  33.606  16.417  1.00  0.00    -0.291 N
ATOM      5  H3  UNL     1      14.007  33.551  16.814  1.00  0.00     0.172 HD
HETATM    6  C6  UNL     1      15.812  32.628  16.779  1.00  0.00     0.329 C
HETATM    7  O1  UNL     1      15.322  31.745  17.529  1.00  0.00    -0.246 OA
HETATM    8  N4  UNL     1      17.100  32.476  16.454  1.00  0.00    -0.260 N
ATOM      9  H4  UNL     1      17.595  31.723  16.930  1.00  0.00     0.175 HD
HETATM   10  C7  UNL     1      17.821  33.193  15.577  1.00  0.00     0.329 C
HETATM   11  O2  UNL     1      19.061  32.969  15.517  1.00  0.00    -0.246 OA
HETATM   12  N5  UNL     1      17.420  34.162  14.706  1.00  0.00    -0.292 N
ATOM     13  H5  UNL     1      18.139  34.572  14.109  1.00  0.00     0.172 HD
HETATM   14  C8  UNL     1      16.144  34.638  14.554  1.00  0.00     0.148 C
HETATM   15  N6  UNL     1      15.823  35.041  13.384  1.00  0.00    -0.382 N
ATOM     16  H61 UNL     1      16.523  35.014  12.643  1.00  0.00     0.157 HD
ATOM     17  H62 UNL     1      14.874  35.395  13.272  1.00  0.00     0.157 HD
ENDROOT
BRANCH   1  18
HETATM   18  C4  UNL     1      14.459  36.950  15.109  1.00  0.00     0.068 C
BRANCH  18  19
HETATM   19  C3  UNL     1      13.693  37.982  15.910  1.00  0.00     0.102 C
BRANCH  19  20
HETATM   20  C2  UNL     1      12.247  38.004  15.685  1.00  0.00     0.024 A
HETATM   21  N1  UNL     1      11.426  38.361  16.698  1.00  0.00    -0.307 N
HETATM   22  C1  UNL     1      12.037  38.693  17.969  1.00  0.00     0.161 C
HETATM   23  C11 UNL     1      10.091  38.419  16.574  1.00  0.00     0.328 A
HETATM   24  N9  UNL     1       9.499  38.116  15.405  1.00  0.00    -0.293 N
HETATM   25  O3  UNL     1       9.352  38.762  17.557  1.00  0.00    -0.246 OA
HETATM   26  C10 UNL     1      10.248  37.753  14.355  1.00  0.00     0.125 A
ATOM     27  H9  UNL     1       8.484  38.161  15.319  1.00  0.00     0.172 HD
HETATM   28  C9  UNL     1      11.640  37.695  14.492  1.00  0.00     0.075 A
BRANCH  26  29
HETATM   29  N7  UNL     1       9.674  37.464  13.240  1.00  0.00    -0.292 N
ATOM     30  H7  UNL     1       8.922  36.775  13.222  1.00  0.00     0.188 HD
BRANCH  29  31
HETATM   31  N8  UNL     1      10.071  38.083  12.055  1.00  0.00    -0.344 N
ATOM     32  H82 UNL     1      10.646  38.924  12.111  1.00  0.00     0.176 HD
ATOM     33  H81 UNL     1       9.793  37.702  11.151  1.00  0.00     0.176 HD
ENDBRANCH  29  31
ENDBRANCH  26  29
ENDBRANCH  19  20
ENDBRANCH  18  19
ENDBRANCH   1  18
TORSDOF 5
ENDMDL