MODEL 1
REMARK VINA RESULT: -6.508170569      0.000      0.000
REMARK  8 active torsions:
REMARK  status: ('A' for Active; 'I' for Inactive)
REMARK    1  A    between atoms: N1_2  and  C2_4
REMARK    2  A    between atoms: C3_5  and  C4_6
REMARK       I    between atoms: C4_6  and  N2_8
REMARK    3  A    between atoms: N2_8  and  C5_10
REMARK    4  A    between atoms: C5_10  and  C6_11
REMARK    5  A    between atoms: C5_10  and  C7_14
REMARK    6  A    between atoms: C7_14  and  O3_15
REMARK    7  A    between atoms: C7_14  and  O4_17
REMARK    8  A    between atoms: N7_27  and  O6_28
ROOT
HETATM    1  C2  UNL     1      16.894  35.960  16.997  1.00  0.00     0.166 C
HETATM    2  C3  UNL     1      17.811  35.232  16.234  1.00  0.00     0.120 C
HETATM    3  C8  UNL     1      17.654  34.920  14.876  1.00  0.00     0.140 C
HETATM    4  N4  UNL     1      18.845  34.681  14.155  1.00  0.00    -0.081 NA
HETATM    5  N5  UNL     1      16.478  34.826  14.194  1.00  0.00    -0.295 N
ATOM      6  H5  UNL     1      16.552  34.520  13.224  1.00  0.00     0.172 HD
HETATM    7  C9  UNL     1      15.228  35.084  14.638  1.00  0.00     0.342 C
HETATM    8  O5  UNL     1      14.340  34.933  13.757  1.00  0.00    -0.245 OA
HETATM    9  N6  UNL     1      14.805  35.473  15.867  1.00  0.00    -0.223 N
ATOM     10  H6  UNL     1      13.796  35.481  16.013  1.00  0.00     0.194 HD
HETATM   11  N7  UNL     1      15.563  35.851  16.919  1.00  0.00    -0.141 N
ENDROOT
BRANCH   2  12
HETATM   12  C4  UNL     1      19.021  34.772  16.820  1.00  0.00     0.259 C
HETATM   13  O1  UNL     1      18.954  33.738  17.565  1.00  0.00    -0.267 OA
HETATM   14  N2  UNL     1      20.311  35.333  16.681  1.00  0.00    -0.339 N
ATOM     15  H2  UNL     1      20.447  36.166  16.109  1.00  0.00     0.163 HD
BRANCH  14  16
HETATM   16  C5  UNL     1      21.451  34.714  17.362  1.00  0.00     0.229 C
BRANCH  16  17
HETATM   17  C6  UNL     1      22.144  33.748  16.470  1.00  0.00     0.258 C
HETATM   18  N3  UNL     1      22.951  32.699  16.959  1.00  0.00    -0.060 NA
HETATM   19  O2  UNL     1      21.981  33.905  15.220  1.00  0.00    -0.274 OA
ENDBRANCH  16  17
BRANCH  16  20
HETATM   20  C7  UNL     1      22.461  35.752  17.780  1.00  0.00     0.285 C
BRANCH  20  21
HETATM   21  O3  UNL     1      23.624  35.682  17.019  1.00  0.00    -0.369 OA
ATOM     22  H3  UNL     1      24.387  35.967  17.509  1.00  0.00     0.212 HD
ENDBRANCH  20  21
BRANCH  20  23
HETATM   23  O4  UNL     1      21.929  37.032  17.789  1.00  0.00    -0.369 OA
ATOM     24  H4  UNL     1      22.523  37.672  17.416  1.00  0.00     0.212 HD
ENDBRANCH  20  23
ENDBRANCH  16  20
ENDBRANCH  14  16
ENDBRANCH   2  12
BRANCH   1  25
HETATM   25  N1  UNL     1      17.375  36.777  17.799  1.00  0.00    -0.377 N
HETATM   26  C1  UNL     1      17.784  38.123  17.674  1.00  0.00     0.148 C
ATOM     27  H1  UNL     1      17.501  36.399  18.738  1.00  0.00     0.160 HD
ENDBRANCH   1  25
BRANCH  11  28
HETATM   28  O6  UNL     1      14.901  36.121  17.916  1.00  0.00    -0.266 OA
ATOM     29  H6  UNL     1      15.100  36.924  18.383  1.00  0.00     0.247 HD
ENDBRANCH  11  28
TORSDOF 8
ENDMDL