MODEL 1
REMARK VINA RESULT: -7.672466905      0.000      0.000
REMARK  6 active torsions:
REMARK  status: ('A' for Active; 'I' for Inactive)
REMARK    1  A    between atoms: C2_3  and  N2_4
REMARK    2  A    between atoms: N2_4  and  C3_6
REMARK    3  A    between atoms: C3_6  and  C4_7
REMARK    4  A    between atoms: C4_7  and  N3_8
REMARK    5  A    between atoms: C8_20  and  N8_21
REMARK    6  A    between atoms: N9_26  and  N10_27
ROOT
HETATM    1  C1  UNL     1      14.666  37.901  15.975  1.00  0.00     0.177 C
HETATM    2  N1  UNL     1      14.137  36.890  15.089  1.00  0.00    -0.168 N
HETATM    3  C2  UNL     1      14.671  35.743  14.621  1.00  0.00     0.682 A
HETATM    4  N6  UNL     1      13.756  35.131  13.772  1.00  0.00    -0.182 N
ATOM      5  H6  UNL     1      13.899  34.249  13.278  1.00  0.00     0.184 HD
HETATM    6  C6  UNL     1      12.670  35.881  13.710  1.00  0.00     0.163 A
HETATM    7  C7  UNL     1      11.534  35.606  12.954  1.00  0.00     0.278 C
HETATM    8  O1  UNL     1      11.402  34.441  12.590  1.00  0.00    -0.265 OA
HETATM    9  N7  UNL     1      10.581  36.470  12.588  1.00  0.00    -0.303 N
ATOM     10  H7  UNL     1       9.841  36.102  11.990  1.00  0.00     0.171 HD
HETATM   11  C8  UNL     1      10.489  37.795  12.928  1.00  0.00     0.173 C
HETATM   12  C9  UNL     1      11.100  38.500  13.932  1.00  0.00     0.311 C
HETATM   13  O2  UNL     1      10.802  39.711  14.124  1.00  0.00    -0.262 OA
HETATM   14  N9  UNL     1      12.040  37.995  14.777  1.00  0.00    -0.204 N
HETATM   15  C10 UNL     1      12.903  36.982  14.534  1.00  0.00     0.180 A
ENDROOT
BRANCH   3  16
HETATM   16  N2  UNL     1      15.778  35.248  14.879  1.00  0.00    -0.224 N
ATOM     17  H2  UNL     1      16.134  35.721  15.709  1.00  0.00     0.177 HD
BRANCH  16  18
HETATM   18  C3  UNL     1      16.715  34.329  14.505  1.00  0.00     0.157 C
BRANCH  18  19
HETATM   19  C4  UNL     1      17.015  33.408  15.710  1.00  0.00     0.142 C
BRANCH  19  20
HETATM   20  N3  UNL     1      18.362  32.930  15.683  1.00  0.00    -0.365 N
HETATM   21  C5  UNL     1      19.211  33.445  16.503  1.00  0.00     0.197 C
HETATM   22  N4  UNL     1      18.852  34.466  17.425  1.00  0.00    -0.067 NA
HETATM   23  N5  UNL     1      20.549  32.979  16.484  1.00  0.00    -0.067 NA
ATOM     24  H3  UNL     1      18.644  32.198  15.030  1.00  0.00     0.161 HD
ENDBRANCH  19  20
ENDBRANCH  18  19
ENDBRANCH  16  18
ENDBRANCH   3  16
BRANCH  14  25
HETATM   25  N10 UNL     1      12.126  38.565  16.034  1.00  0.00    -0.334 N
ATOM     26 2H10 UNL     1      11.612  39.437  16.159  1.00  0.00     0.177 HD
ATOM     27 1H10 UNL     1      12.696  38.079  16.726  1.00  0.00     0.177 HD
ENDBRANCH  14  25
BRANCH  11  28
HETATM   28  N8  UNL     1       9.699  38.494  12.184  1.00  0.00    -0.381 N
ATOM     29  H82 UNL     1      10.153  38.951  11.392  1.00  0.00     0.157 HD
ATOM     30  H81 UNL     1       8.723  38.501  12.482  1.00  0.00     0.157 HD
ENDBRANCH  11  28
TORSDOF 6
ENDMDL