MODEL 1
REMARK VINA RESULT: -8.271817757      0.000      0.000
REMARK  7 active torsions:
REMARK  status: ('A' for Active; 'I' for Inactive)
REMARK    1  A    between atoms: N1_1  and  N2_4
REMARK       I    between atoms: N2_4  and  C1_6
REMARK    2  A    between atoms: C1_6  and  C2_8
REMARK    3  A    between atoms: C2_8  and  N3_9
REMARK       I    between atoms: N3_9  and  C3_11
REMARK    4  A    between atoms: C3_11  and  C4_13
REMARK    5  A    between atoms: C4_13  and  N4_14
REMARK    6  A    between atoms: N4_14  and  C5_16
REMARK    7  A    between atoms: N8_29  and  N9_30
ROOT
HETATM    1  C5  UNL     1      17.732  33.472  15.530  1.00  0.00     0.708 A
HETATM    2  N5  UNL     1      17.365  34.278  14.495  1.00  0.00    -0.172 N
ATOM      3  H5  UNL     1      18.073  34.542  13.810  1.00  0.00     0.186 HD
HETATM    4  C6  UNL     1      16.129  34.735  14.337  1.00  0.00     0.157 A
HETATM    5  N6  UNL     1      15.515  35.527  13.426  1.00  0.00    -0.292 N
ATOM      6  H6  UNL     1      15.964  35.949  12.614  1.00  0.00     0.172 HD
HETATM    7  C7  UNL     1      14.230  35.666  13.759  1.00  0.00     0.326 A
HETATM    8  O3  UNL     1      13.360  36.342  13.125  1.00  0.00    -0.247 OA
HETATM    9  N7  UNL     1      13.989  34.977  14.876  1.00  0.00    -0.301 N
ATOM     10  H7  UNL     1      13.095  34.902  15.362  1.00  0.00     0.171 HD
HETATM   11  C8  UNL     1      15.167  34.392  15.247  1.00  0.00     0.152 A
HETATM   12  C9  UNL     1      15.523  33.586  16.288  1.00  0.00     0.312 A
HETATM   13  O4  UNL     1      14.646  33.264  17.130  1.00  0.00    -0.263 OA
HETATM   14  N8  UNL     1      16.795  33.137  16.416  1.00  0.00    -0.052 N
ENDROOT
BRANCH   1  15
HETATM   15  N4  UNL     1      18.902  33.099  15.591  1.00  0.00    -0.195 N
ATOM     16  H4  UNL     1      18.986  32.333  16.259  1.00  0.00     0.183 HD
BRANCH  15  17
HETATM   17  C4  UNL     1      20.147  33.386  15.043  1.00  0.00     0.180 C
BRANCH  17  18
HETATM   18  C3  UNL     1      21.278  33.482  15.960  1.00  0.00     0.257 C
HETATM   19  N3  UNL     1      21.907  32.318  16.452  1.00  0.00    -0.348 N
ATOM     20  H3  UNL     1      21.571  31.398  16.167  1.00  0.00     0.163 HD
HETATM   21  O2  UNL     1      21.704  34.594  16.320  1.00  0.00    -0.267 OA
BRANCH  19  22
HETATM   22  C2  UNL     1      23.034  32.428  17.367  1.00  0.00     0.227 C
BRANCH  22  23
HETATM   23  C1  UNL     1      23.066  31.242  18.269  1.00  0.00     0.253 C
HETATM   24  N2  UNL     1      23.495  31.349  19.615  1.00  0.00    -0.275 N
ATOM     25  H2  UNL     1      23.792  32.252  19.986  1.00  0.00     0.189 HD
HETATM   26  O1  UNL     1      22.709  30.131  17.835  1.00  0.00    -0.270 OA
BRANCH  24  27
HETATM   27  N1  UNL     1      23.513  30.216  20.431  1.00  0.00    -0.343 N
ATOM     28  H12 UNL     1      22.718  30.034  21.043  1.00  0.00     0.176 HD
ATOM     29  H11 UNL     1      24.314  29.585  20.407  1.00  0.00     0.176 HD
ENDBRANCH  24  27
ENDBRANCH  22  23
ENDBRANCH  19  22
ENDBRANCH  17  18
ENDBRANCH  15  17
ENDBRANCH   1  15
BRANCH  14  30
HETATM   30  N9  UNL     1      17.054  32.320  17.515  1.00  0.00    -0.321 N
ATOM     31  H92 UNL     1      16.799  32.697  18.428  1.00  0.00     0.178 HD
ATOM     32  H91 UNL     1      17.475  31.395  17.428  1.00  0.00     0.178 HD
ENDBRANCH  14  30
TORSDOF 7
ENDMDL