MODEL 4
REMARK VINA RESULT: -7.284198449      4.998      6.838
REMARK  7 active torsions:
REMARK  status: ('A' for Active; 'I' for Inactive)
REMARK       I    between atoms: N1_1  and  C1_5
REMARK       I    between atoms: C1_5  and  N2_6
REMARK       I    between atoms: C1_5  and  N3_10
REMARK    1  A    between atoms: N3_10  and  C2_12
REMARK    2  A    between atoms: C4_18  and  N6_19
REMARK    3  A    between atoms: N6_19  and  N7_21
REMARK    4  A    between atoms: N7_21  and  S1_23
REMARK    5  A    between atoms: S1_23  and  N8_26
REMARK    6  A    between atoms: N8_26  and  S2_28
REMARK    7  A    between atoms: S2_28  and  N9_29
ROOT
HETATM    1  C2  UNL     1      14.951  36.806  15.585  1.00  0.00     0.696 A
HETATM    2  N4  UNL     1      13.842  36.827  14.817  1.00  0.00    -0.187 N
ATOM      3  H4  UNL     1      13.096  37.485  15.039  1.00  0.00     0.185 HD
HETATM    4  C3  UNL     1      13.697  35.998  13.761  1.00  0.00     0.215 A
HETATM    5  N5  UNL     1      14.658  35.118  13.439  1.00  0.00    -0.185 N
ATOM      6  H5  UNL     1      14.552  34.490  12.643  1.00  0.00     0.185 HD
HETATM    7  C4  UNL     1      15.762  35.092  14.196  1.00  0.00     0.712 A
HETATM    8  N10 UNL     1      15.913  35.928  15.264  1.00  0.00    -0.021 N
ATOM      9  H10 UNL     1      16.766  35.886  15.822  1.00  0.00     0.203 HD
ENDROOT
BRANCH   7  10
HETATM   10  N6  UNL     1      16.704  34.274  13.930  1.00  0.00    -0.121 N
ATOM     11  H6  UNL     1      16.533  33.482  13.311  1.00  0.00     0.206 HD
BRANCH  10  12
HETATM   12  N7  UNL     1      17.964  34.464  14.485  1.00  0.00    -0.195 N
ATOM     13  H7  UNL     1      18.589  35.186  14.125  1.00  0.00     0.202 HD
BRANCH  12  14
HETATM   14  S1  UNL     1      18.447  33.457  15.793  1.00  0.00     0.347 S
HETATM   15  O1  UNL     1      17.498  32.311  15.883  1.00  0.00    -0.180 OA
HETATM   16  O2  UNL     1      19.820  32.898  15.557  1.00  0.00    -0.180 OA
BRANCH  14  17
HETATM   17  N8  UNL     1      18.351  34.375  17.240  1.00  0.00    -0.176 N
ATOM     18  H8  UNL     1      17.748  34.132  18.027  1.00  0.00     0.195 HD
BRANCH  17  19
HETATM   19  S2  UNL     1      19.385  35.751  17.214  1.00  0.00     0.327 S
HETATM   20  O3  UNL     1      19.356  36.478  18.506  1.00  0.00    -0.182 OA
HETATM   21  O4  UNL     1      18.901  36.650  16.104  1.00  0.00    -0.182 OA
BRANCH  19  22
HETATM   22  N9  UNL     1      21.007  35.272  16.822  1.00  0.00    -0.311 N
ATOM     23  H92 UNL     1      21.248  34.398  16.356  1.00  0.00     0.170 HD
ATOM     24  H91 UNL     1      21.667  35.988  17.124  1.00  0.00     0.170 HD
ENDBRANCH  19  22
ENDBRANCH  17  19
ENDBRANCH  14  17
ENDBRANCH  12  14
ENDBRANCH  10  12
ENDBRANCH   7  10
BRANCH   1  25
HETATM   25  N3  UNL     1      15.125  37.582  16.599  1.00  0.00    -0.173 N
HETATM   26  C1  UNL     1      15.918  37.168  17.714  1.00  0.00     0.494 C
HETATM   27  N1  UNL     1      16.870  38.203  18.015  1.00  0.00    -0.032 N
HETATM   28  N2  UNL     1      15.030  36.927  18.852  1.00  0.00    -0.032 N
ATOM     29  H13 UNL     1      16.409  39.060  18.323  1.00  0.00     0.278 HD
ATOM     30  H12 UNL     1      17.394  37.997  18.865  1.00  0.00     0.278 HD
ATOM     31  H11 UNL     1      17.488  38.372  17.222  1.00  0.00     0.278 HD
ATOM     32  H23 UNL     1      15.555  36.720  19.702  1.00  0.00     0.278 HD
ATOM     33  H22 UNL     1      14.570  37.784  19.159  1.00  0.00     0.278 HD
ATOM     34  H21 UNL     1      14.355  36.192  18.639  1.00  0.00     0.278 HD
ATOM     35  H3  UNL     1      14.690  38.505  16.606  1.00  0.00     0.181 HD
ENDBRANCH   1  25
TORSDOF 7
ENDMDL