MODEL 1
REMARK VINA RESULT: -8.295436293      0.000      0.000
REMARK  7 active torsions:
REMARK  status: ('A' for Active; 'I' for Inactive)
REMARK    1  A    between atoms: N1_1  and  C1_4
REMARK    2  A    between atoms: C2_7  and  N3_8
REMARK    3  A    between atoms: N3_8  and  O1_9
REMARK    4  A    between atoms: N3_8  and  C3_11
REMARK    5  A    between atoms: C3_11  and  N4_12
REMARK    6  A    between atoms: C3_11  and  C4_16
REMARK       I    between atoms: C4_16  and  N5_18
REMARK    7  A    between atoms: N5_18  and  C5_20
ROOT
HETATM    1  C3  UNL     1      18.742  33.909  15.756  1.00  0.00     0.403 C
ENDROOT
BRANCH   1   2
HETATM    2  N3  UNL     1      20.055  33.774  15.125  1.00  0.00    -0.203 N
BRANCH   2   3
HETATM    3  C2  UNL     1      21.197  33.576  15.948  1.00  0.00     0.151 A
HETATM    4  N2  UNL     1      21.984  34.646  16.256  1.00  0.00    -0.175 N
HETATM    5  C1  UNL     1      23.098  34.491  16.992  1.00  0.00     0.680 A
ATOM      6  H2  UNL     1      21.725  35.575  15.923  1.00  0.00     0.186 HD
HETATM    7  N9  UNL     1      23.480  33.285  17.456  1.00  0.00    -0.156 N
HETATM    8  C9  UNL     1      22.712  32.234  17.159  1.00  0.00     0.263 A
ATOM      9  H9  UNL     1      24.327  33.179  18.014  1.00  0.00     0.187 HD
HETATM   10  C8  UNL     1      21.559  32.332  16.407  1.00  0.00     0.126 A
HETATM   11  O4  UNL     1      23.025  31.087  17.568  1.00  0.00    -0.268 OA
BRANCH   5  12
HETATM   12  N1  UNL     1      23.842  35.522  17.281  1.00  0.00    -0.234 N
ATOM     13  H12 UNL     1      23.375  36.396  17.523  1.00  0.00     0.174 HD
ATOM     14  H11 UNL     1      24.858  35.443  17.260  1.00  0.00     0.174 HD
ENDBRANCH   5  12
ENDBRANCH   2   3
BRANCH   2  15
HETATM   15  O1  UNL     1      20.176  33.831  13.910  1.00  0.00    -0.283 OA
ATOM     16  H1  UNL     1      20.430  33.058  13.420  1.00  0.00     0.245 HD
ENDBRANCH   2  15
ENDBRANCH   1   2
BRANCH   1  17
HETATM   17  N4  UNL     1      17.926  32.716  15.415  1.00  0.00    -0.047 N
ATOM     18  H43 UNL     1      16.929  32.867  15.572  1.00  0.00     0.277 HD
ATOM     19  H42 UNL     1      17.887  32.545  14.410  1.00  0.00     0.277 HD
ATOM     20  H41 UNL     1      18.287  31.915  15.934  1.00  0.00     0.277 HD
ENDBRANCH   1  17
BRANCH   1  21
HETATM   21  C4  UNL     1      18.000  35.087  15.216  1.00  0.00     0.272 C
HETATM   22  O2  UNL     1      18.541  36.214  15.220  1.00  0.00    -0.269 OA
HETATM   23  N5  UNL     1      16.696  34.932  14.715  1.00  0.00    -0.328 N
ATOM     24  H5  UNL     1      16.304  33.991  14.743  1.00  0.00     0.165 HD
BRANCH  23  25
HETATM   25  C5  UNL     1      15.864  35.958  14.169  1.00  0.00     0.281 A
HETATM   26  N6  UNL     1      14.876  35.363  13.316  1.00  0.00    -0.335 N
HETATM   27  C6  UNL     1      13.671  35.641  13.699  1.00  0.00     0.192 A
ATOM     28  H6  UNL     1      15.098  34.789  12.503  1.00  0.00     0.164 HD
HETATM   29  N7  UNL     1      12.467  35.193  13.055  1.00  0.00    -0.063 NA
HETATM   30  N8  UNL     1      13.713  36.482  14.843  1.00  0.00    -0.298 N
HETATM   31  C7  UNL     1      15.075  36.724  15.163  1.00  0.00     0.266 A
ATOM     32  H8  UNL     1      12.905  36.848  15.347  1.00  0.00     0.171 HD
HETATM   33  O3  UNL     1      15.476  37.437  16.090  1.00  0.00    -0.269 OA
ENDBRANCH  23  25
ENDBRANCH   1  21
TORSDOF 7
ENDMDL