MODEL 4
REMARK VINA RESULT: -7.709912919      1.445      1.708
REMARK  6 active torsions:
REMARK  status: ('A' for Active; 'I' for Inactive)
REMARK    1  A    between atoms: N3_4  and  N4_6
REMARK    2  A    between atoms: C2_8  and  C3_9
REMARK    3  A    between atoms: C4_10  and  O1_11
REMARK    4  A    between atoms: C6_17  and  N6_18
REMARK    5  A    between atoms: N6_18  and  N7_20
REMARK    6  A    between atoms: N7_20  and  S1_22
ROOT
HETATM    1  C3  UNL     1      14.992  35.864  14.923  1.00  0.00     0.100 C
HETATM    2  C4  UNL     1      15.635  35.034  14.035  1.00  0.00     0.160 C
HETATM    3  N5  UNL     1      16.620  34.137  14.314  1.00  0.00    -0.300 N
ATOM      4  H5  UNL     1      16.803  33.454  13.579  1.00  0.00     0.171 HD
HETATM    5  C5  UNL     1      17.393  34.013  15.416  1.00  0.00     0.293 C
HETATM    6  O2  UNL     1      18.314  33.134  15.385  1.00  0.00    -0.264 OA
HETATM    7  C6  UNL     1      17.336  34.703  16.591  1.00  0.00     0.193 C
HETATM    8  N8  UNL     1      16.399  35.647  16.892  1.00  0.00    -0.303 N
ATOM      9  H8  UNL     1      16.566  36.119  17.781  1.00  0.00     0.171 HD
HETATM   10  C7  UNL     1      15.316  36.073  16.260  1.00  0.00     0.263 C
HETATM   11  O6  UNL     1      14.462  36.741  16.892  1.00  0.00    -0.267 OA
ENDROOT
BRANCH   1  12
HETATM   12  C2  UNL     1      13.867  36.576  14.378  1.00  0.00     0.128 C
HETATM   13  N4  UNL     1      12.774  35.973  14.077  1.00  0.00    -0.309 N
ATOM     14  H4  UNL     1      12.718  34.967  14.235  1.00  0.00     0.186 HD
BRANCH  13  15
HETATM   15  N3  UNL     1      11.660  36.617  13.546  1.00  0.00    -0.276 N
HETATM   16  C1  UNL     1      10.749  35.937  12.959  1.00  0.00     0.215 C
HETATM   17  N1  UNL     1       9.631  36.649  12.434  1.00  0.00    -0.065 NA
HETATM   18  N2  UNL     1      10.888  34.528  12.858  1.00  0.00    -0.065 NA
ATOM     19  H3  UNL     1      11.571  37.630  13.625  1.00  0.00     0.189 HD
ENDBRANCH  13  15
ENDBRANCH   1  12
BRANCH   2  20
HETATM   20  O1  UNL     1      15.233  35.122  12.700  1.00  0.00    -0.345 OA
ATOM     21  H1  UNL     1      15.924  35.096  12.049  1.00  0.00     0.219 HD
ENDBRANCH   2  20
BRANCH   7  22
HETATM   22  N6  UNL     1      18.179  34.510  17.519  1.00  0.00    -0.269 N
ATOM     23  H6  UNL     1      18.423  33.539  17.712  1.00  0.00     0.189 HD
BRANCH  22  24
HETATM   24  N7  UNL     1      18.797  35.457  18.289  1.00  0.00    -0.206 N
ATOM     25  H7  UNL     1      18.642  35.469  19.297  1.00  0.00     0.202 HD
BRANCH  24  26
HETATM   26  S1  UNL     1      19.833  36.626  17.574  1.00  0.00     0.223 S
HETATM   27  O3  UNL     1      19.157  37.401  16.482  1.00  0.00    -0.577 OA
HETATM   28  O4  UNL     1      21.106  36.004  17.057  1.00  0.00    -0.577 OA
HETATM   29  O5  UNL     1      20.230  37.738  18.796  1.00  0.00    -0.577 OA
ENDBRANCH  24  26
ENDBRANCH  22  24
ENDBRANCH   7  22
TORSDOF 6
ENDMDL