MODEL 5
REMARK VINA RESULT: -7.466309069      1.295      1.649
REMARK  6 active torsions:
REMARK  status: ('A' for Active; 'I' for Inactive)
REMARK    1  A    between atoms: C3_11  and  O2_12
REMARK    2  A    between atoms: C4_14  and  C5_15
REMARK    3  A    between atoms: N4_16  and  N5_18
REMARK       I    between atoms: N5_18  and  C6_20
REMARK    4  A    between atoms: C6_20  and  C7_22
REMARK    5  A    between atoms: C7_22  and  N6_23
REMARK    6  A    between atoms: C7_22  and  C8_27
ROOT
HETATM    1  N1  UNL     1      19.525  34.266  13.704  1.00  0.00    -0.234 N
ATOM      2  H11 UNL     1      19.168  34.048  12.775  1.00  0.00     0.174 HD
ATOM      3  H12 UNL     1      20.477  34.356  14.060  1.00  0.00     0.174 HD
HETATM    4  C1  UNL     1      18.590  34.463  14.589  1.00  0.00     0.682 C
HETATM    5  N2  UNL     1      19.089  34.768  15.890  1.00  0.00    -0.141 N
ATOM      6  H2  UNL     1      20.099  34.652  15.964  1.00  0.00     0.189 HD
HETATM    7  C2  UNL     1      18.487  35.203  17.119  1.00  0.00     0.340 C
HETATM    8  O1  UNL     1      19.342  35.219  18.056  1.00  0.00    -0.246 OA
HETATM    9  N3  UNL     1      17.181  35.609  17.508  1.00  0.00    -0.288 N
ATOM     10  H3  UNL     1      17.125  35.815  18.506  1.00  0.00     0.172 HD
HETATM   11  C3  UNL     1      15.919  35.802  16.846  1.00  0.00     0.161 C
HETATM   12  C4  UNL     1      15.411  35.494  15.666  1.00  0.00     0.100 C
HETATM   13  C9  UNL     1      15.978  34.797  14.520  1.00  0.00     0.275 C
HETATM   14  O5  UNL     1      15.094  34.517  13.657  1.00  0.00    -0.267 OA
HETATM   15  N8  UNL     1      17.263  34.337  14.093  1.00  0.00    -0.155 N
ATOM     16  H8  UNL     1      17.217  33.792  13.232  1.00  0.00     0.187 HD
ENDROOT
BRANCH  12  17
HETATM   17  C5  UNL     1      14.046  35.940  15.509  1.00  0.00     0.128 C
HETATM   18  N4  UNL     1      13.849  37.007  14.778  1.00  0.00    -0.308 N
ATOM     19  H4  UNL     1      14.654  37.471  14.357  1.00  0.00     0.186 HD
BRANCH  18  20
HETATM   20  N5  UNL     1      12.578  37.530  14.555  1.00  0.00    -0.268 N
HETATM   21  C6  UNL     1      12.107  38.631  15.313  1.00  0.00     0.275 C
HETATM   22  O3  UNL     1      12.835  39.139  16.189  1.00  0.00    -0.269 OA
ATOM     23  H5  UNL     1      11.981  37.117  13.839  1.00  0.00     0.190 HD
BRANCH  21  24
HETATM   24  C7  UNL     1      10.743  39.181  15.064  1.00  0.00     0.364 C
BRANCH  24  25
HETATM   25  N6  UNL     1      10.831  40.582  14.802  1.00  0.00    -0.058 N
ATOM     26  H63 UNL     1      10.014  41.089  15.142  1.00  0.00     0.275 HD
ATOM     27  H62 UNL     1      11.538  41.037  15.379  1.00  0.00     0.275 HD
ATOM     28  H61 UNL     1      10.992  40.734  13.806  1.00  0.00     0.275 HD
ENDBRANCH  24  25
BRANCH  24  29
HETATM   29  C8  UNL     1      10.132  38.419  13.955  1.00  0.00     0.271 C
HETATM   30  N7  UNL     1       9.320  37.260  14.196  1.00  0.00    -0.060 NA
HETATM   31  O4  UNL     1      10.348  38.820  12.786  1.00  0.00    -0.274 OA
ENDBRANCH  24  29
ENDBRANCH  21  24
ENDBRANCH  18  20
ENDBRANCH  12  17
BRANCH  11  32
HETATM   32  O2  UNL     1      14.973  36.480  17.608  1.00  0.00    -0.345 OA
ATOM     33  H2  UNL     1      15.286  36.758  18.460  1.00  0.00     0.219 HD
ENDBRANCH  11  32
TORSDOF 6
ENDMDL