MODEL 1
REMARK VINA RESULT: -7.514840845      0.000      0.000
REMARK  8 active torsions:
REMARK  status: ('A' for Active; 'I' for Inactive)
REMARK    1  A    between atoms: N1_1  and  N2_4
REMARK    2  A    between atoms: N2_4  and  C1_6
REMARK    3  A    between atoms: C1_6  and  C2_8
REMARK    4  A    between atoms: C2_8  and  N3_9
REMARK    5  A    between atoms: C2_8  and  N4_13
REMARK    6  A    between atoms: N4_13  and  N5_15
REMARK    7  A    between atoms: C5_19  and  C6_20
REMARK    8  A    between atoms: C7_25  and  C8_26
ROOT
HETATM    1  N5  UNL     1      15.019  36.993  15.340  1.00  0.00    -0.288 N
ATOM      2  H5  UNL     1      15.341  37.734  15.963  1.00  0.00     0.188 HD
HETATM    3  C3  UNL     1      13.795  36.956  14.890  1.00  0.00     0.123 A
HETATM    4  C4  UNL     1      13.334  35.976  14.053  1.00  0.00     0.084 A
HETATM    5  C5  UNL     1      12.032  35.995  13.614  1.00  0.00     0.103 A
HETATM    6  N7  UNL     1      11.254  37.006  14.040  1.00  0.00    -0.334 N
ATOM      7  H7  UNL     1      10.283  37.045  13.728  1.00  0.00     0.168 HD
HETATM    8  C7  UNL     1      11.713  37.970  14.865  1.00  0.00     0.173 A
HETATM    9  N9  UNL     1      12.986  37.931  15.281  1.00  0.00    -0.323 N
ATOM     10  H9  UNL     1      13.337  38.658  15.905  1.00  0.00     0.169 HD
ENDROOT
BRANCH   1  11
HETATM   11  N4  UNL     1      15.867  35.962  14.924  1.00  0.00    -0.299 N
ATOM     12  H4  UNL     1      16.227  35.912  13.970  1.00  0.00     0.183 HD
BRANCH  11  13
HETATM   13  C2  UNL     1      16.205  34.960  15.931  1.00  0.00     0.359 C
BRANCH  13  14
HETATM   14  C1  UNL     1      17.392  34.162  15.494  1.00  0.00     0.143 C
HETATM   15  S1  UNL     1      18.088  33.155  16.550  1.00  0.00    -0.060 SA
BRANCH  14  16
HETATM   16  N2  UNL     1      17.846  34.336  14.166  1.00  0.00    -0.297 N
ATOM     17  H2  UNL     1      17.157  34.465  13.425  1.00  0.00     0.187 HD
BRANCH  16  18
HETATM   18  N1  UNL     1      19.198  34.336  13.833  1.00  0.00    -0.344 N
ATOM     19  H12 UNL     1      19.608  35.214  13.515  1.00  0.00     0.176 HD
ATOM     20  H11 UNL     1      19.778  33.499  13.896  1.00  0.00     0.176 HD
ENDBRANCH  16  18
ENDBRANCH  14  16
ENDBRANCH  13  14
BRANCH  13  21
HETATM   21  N3  UNL     1      16.490  35.690  17.152  1.00  0.00    -0.051 N
ATOM     22  H33 UNL     1      15.889  35.389  17.919  1.00  0.00     0.277 HD
ATOM     23  H32 UNL     1      17.392  35.424  17.548  1.00  0.00     0.277 HD
ATOM     24  H31 UNL     1      16.429  36.697  16.999  1.00  0.00     0.277 HD
ENDBRANCH  13  21
ENDBRANCH  11  13
ENDBRANCH   1  11
BRANCH   5  25
HETATM   25  C6  UNL     1      11.512  34.953  12.714  1.00  0.00     0.281 C
HETATM   26  N6  UNL     1      10.165  34.528  12.864  1.00  0.00    -0.056 NA
HETATM   27  O1  UNL     1      12.287  34.490  11.855  1.00  0.00    -0.269 OA
ENDBRANCH   5  25
BRANCH   8  28
HETATM   28  C8  UNL     1      10.833  39.033  15.293  1.00  0.00     0.298 C
HETATM   29  N8  UNL     1       9.745  38.752  16.139  1.00  0.00    -0.054 NA
HETATM   30  O2  UNL     1      11.012  40.221  14.926  1.00  0.00    -0.268 OA
ENDBRANCH   8  28
TORSDOF 8
ENDMDL