MODEL 5
REMARK VINA RESULT: -6.789120017      3.760      5.951
REMARK  7 active torsions:
REMARK  status: ('A' for Active; 'I' for Inactive)
REMARK    1  A    between atoms: N1_1  and  N2_4
REMARK    2  A    between atoms: N2_4  and  C1_5
REMARK    3  A    between atoms: C2_13  and  N5_14
REMARK       I    between atoms: N5_14  and  C3_16
REMARK    4  A    between atoms: C3_16  and  C4_18
REMARK    5  A    between atoms: C4_18  and  C5_19
REMARK    6  A    between atoms: C5_19  and  N6_20
REMARK    7  A    between atoms: C5_19  and  C7_25
REMARK       I    between atoms: N6_20  and  C6_22
ROOT
HETATM    1  N5  UNL     1      14.131  37.011  15.168  1.00  0.00    -0.313 N
ATOM      2  H5  UNL     1      14.588  36.153  14.859  1.00  0.00     0.170 HD
HETATM    3  C3  UNL     1      14.800  37.811  16.094  1.00  0.00     0.225 C
HETATM    4  O3  UNL     1      14.359  38.885  16.550  1.00  0.00    -0.273 OA
ENDROOT
BRANCH   1   5
HETATM    5  C2  UNL     1      12.823  37.320  14.614  1.00  0.00     0.136 C
HETATM    6  C1  UNL     1      12.252  36.726  13.407  1.00  0.00     0.276 C
HETATM    7  N3  UNL     1      11.305  37.624  12.775  1.00  0.00    -0.275 N
HETATM    8  S1  UNL     1      10.590  38.269  14.214  1.00  0.00     0.322 S
ATOM      9  H3  UNL     1      11.119  37.816  11.791  1.00  0.00     0.176 HD
HETATM   10  O1  UNL     1       9.483  37.443  14.726  1.00  0.00    -0.182 OA
HETATM   11  O2  UNL     1      10.192  39.681  13.909  1.00  0.00    -0.182 OA
HETATM   12  N4  UNL     1      12.018  38.196  15.174  1.00  0.00    -0.253 N
ATOM     13  H4  UNL     1      12.204  38.732  16.021  1.00  0.00     0.181 HD
BRANCH   6  14
HETATM   14  N2  UNL     1      11.651  35.442  13.696  1.00  0.00    -0.114 NA
BRANCH  14  15
HETATM   15  N1  UNL     1      11.347  34.765  12.532  1.00  0.00    -0.346 N
ATOM     16  H12 UNL     1      10.669  35.097  11.844  1.00  0.00     0.172 HD
ATOM     17  H11 UNL     1      11.887  33.903  12.459  1.00  0.00     0.172 HD
ENDBRANCH  14  15
ENDBRANCH   6  14
ENDBRANCH   1   5
BRANCH   3  18
HETATM   18  C4  UNL     1      16.136  37.374  16.590  1.00  0.00     0.139 C
BRANCH  18  19
HETATM   19  C5  UNL     1      16.599  36.078  15.969  1.00  0.00     0.195 C
BRANCH  19  20
HETATM   20  N6  UNL     1      16.138  34.924  16.661  1.00  0.00    -0.330 N
HETATM   21  C6  UNL     1      15.108  34.075  16.280  1.00  0.00     0.329 C
HETATM   22  N7  UNL     1      14.765  32.914  17.091  1.00  0.00    -0.040 NA
HETATM   23  O4  UNL     1      14.394  34.194  15.263  1.00  0.00    -0.251 OA
ATOM     24  H6  UNL     1      16.617  34.695  17.532  1.00  0.00     0.164 HD
ENDBRANCH  19  20
BRANCH  19  25
HETATM   25  C7  UNL     1      18.034  36.098  15.649  1.00  0.00     0.197 C
HETATM   26  O5  UNL     1      18.805  37.000  16.064  1.00  0.00    -0.646 OA
HETATM   27  O6  UNL     1      18.585  35.100  14.865  1.00  0.00    -0.646 OA
ENDBRANCH  19  25
ENDBRANCH  18  19
ENDBRANCH   3  18
TORSDOF 7
ENDMDL