MODEL 5
REMARK VINA RESULT: -6.637975128      1.715      2.609
REMARK  7 active torsions:
REMARK  status: ('A' for Active; 'I' for Inactive)
REMARK    1  A    between atoms: C2_2  and  C3_4
REMARK    2  A    between atoms: C3_4  and  N1_5
REMARK       I    between atoms: N1_5  and  C5_7
REMARK       I    between atoms: C5_7  and  N6_21
REMARK    3  A    between atoms: N2_8  and  C6_10
REMARK    4  A    between atoms: C6_10  and  C7_11
REMARK    5  A    between atoms: C7_11  and  C8_12
REMARK    6  A    between atoms: C8_12  and  C9_13
REMARK    7  A    between atoms: C9_13  and  N3_14
REMARK       I    between atoms: N3_14  and  C10_16
ROOT
HETATM    1  N1  UNL     1      11.363 -12.675  15.504  1.00  0.00    -0.216 N
HETATM    2  C4  UNL     1      10.837 -11.561  14.744  1.00  0.00     0.169 C
HETATM    3  C5  UNL     1      12.580 -12.504  16.195  1.00  0.00     0.693 C
HETATM    4  N2  UNL     1      13.584 -12.143  15.431  1.00  0.00    -0.225 N
ATOM      5  H2  UNL     1      13.453 -12.009  14.429  1.00  0.00     0.177 HD
HETATM    6  N6  UNL     1      12.728 -12.689  17.579  1.00  0.00    -0.120 N
HETATM    7  C11 UNL     1      13.081 -13.985  18.103  1.00  0.00     0.188 C
HETATM    8  C12 UNL     1      13.817 -13.945  19.414  1.00  0.00     0.144 C
HETATM    9  N7  UNL     1      14.154 -12.635  19.883  1.00  0.00    -0.364 N
ATOM     10  H7  UNL     1      15.022 -12.484  20.396  1.00  0.00     0.162 HD
HETATM   11  C13 UNL     1      13.276 -11.546  19.633  1.00  0.00     0.187 C
HETATM   12  S1  UNL     1      13.150 -10.314  20.707  1.00  0.00    -0.040 SA
HETATM   13  N8  UNL     1      12.528 -11.573  18.425  1.00  0.00    -0.260 N
ATOM     14  H8  UNL     1      11.880 -10.825  18.180  1.00  0.00     0.190 HD
ENDROOT
BRANCH   1  15
HETATM   15  C3  UNL     1      10.660 -13.917  15.492  1.00  0.00     0.186 C
BRANCH  15  16
HETATM   16  C2  UNL     1       9.218 -13.833  15.800  1.00  0.00    -0.002 C
HETATM   17  C1  UNL     1       8.357 -14.351  14.930  1.00  0.00     0.028 C
HETATM   18 BR1  UNL     1       8.602 -13.008  17.386  1.00  0.00    -0.055 Br
ENDBRANCH  15  16
ENDBRANCH   1  15
BRANCH   4  19
HETATM   19  C6  UNL     1      14.866 -11.940  16.035  1.00  0.00     0.138 C
BRANCH  19  20
HETATM   20  C7  UNL     1      15.754 -11.060  15.160  1.00  0.00     0.022 C
BRANCH  20  21
HETATM   21  C8  UNL     1      15.974 -11.814  13.862  1.00  0.00     0.021 C
BRANCH  21  22
HETATM   22  C9  UNL     1      16.840 -13.012  14.102  1.00  0.00     0.122 C
BRANCH  22  23
HETATM   23  N3  UNL     1      16.259 -14.157  13.457  1.00  0.00    -0.365 N
HETATM   24  C10 UNL     1      15.767 -15.301  14.153  1.00  0.00     0.181 C
HETATM   25  N4  UNL     1      14.489 -15.317  14.373  1.00  0.00    -0.374 N
HETATM   26  N5  UNL     1      16.621 -16.336  14.566  1.00  0.00    -0.064 NA
ATOM     27  H42 UNL     1      13.869 -14.565  14.073  1.00  0.00     0.158 HD
ATOM     28  H41 UNL     1      14.138 -16.135  14.871  1.00  0.00     0.158 HD
ATOM     29  H3  UNL     1      16.194 -14.151  12.440  1.00  0.00     0.162 HD
ENDBRANCH  22  23
ENDBRANCH  21  22
ENDBRANCH  20  21
ENDBRANCH  19  20
ENDBRANCH   4  19
TORSDOF 7
ENDMDL