MODEL 4
REMARK VINA RESULT: -6.782111842      1.858      2.446
REMARK  15 active torsions:
REMARK  status: ('A' for Active; 'I' for Inactive)
REMARK    1  A    between atoms: C2_2  and  C3_3
REMARK    2  A    between atoms: C3_3  and  N1_4
REMARK    3  A    between atoms: N1_4  and  C4_5
REMARK    4  A    between atoms: N1_4  and  C14_30
REMARK    5  A    between atoms: C4_5  and  C5_6
REMARK    6  A    between atoms: C6_7  and  C7_8
REMARK    7  A    between atoms: C7_8  and  N2_9
REMARK    8  A    between atoms: N2_9  and  C8_10
REMARK    9  A    between atoms: C8_10  and  N3_12
REMARK   10  A    between atoms: N3_12  and  C10_14
REMARK   11  A    between atoms: C11_19  and  N6_20
REMARK   12  A    between atoms: N6_20  and  C12_22
REMARK   13  A    between atoms: C12_22  and  C13_23
REMARK   14  A    between atoms: C13_23  and  N7_24
REMARK   15  A    between atoms: C14_30  and  C15_31
ROOT
HETATM    1  C10 UNL     1      15.678 -11.877  15.552  1.00  0.00     0.714 A
HETATM    2  N4  UNL     1      15.736 -10.592  15.910  1.00  0.00    -0.117 N
ATOM      3  H4  UNL     1      15.321 -10.196  16.754  1.00  0.00     0.206 HD
HETATM    4  N5  UNL     1      16.408  -9.918  15.008  1.00  0.00    -0.117 N
ATOM      5  H5  UNL     1      16.602  -8.917  15.037  1.00  0.00     0.206 HD
HETATM    6  C11 UNL     1      16.821 -10.806  13.990  1.00  0.00     0.711 A
HETATM    7  N8  UNL     1      16.322 -11.987  14.422  1.00  0.00    -0.019 N
ATOM      8  H8  UNL     1      16.437 -12.867  13.921  1.00  0.00     0.203 HD
ENDROOT
BRANCH   1   9
HETATM    9  N3  UNL     1      15.080 -12.834  16.229  1.00  0.00    -0.167 N
ATOM     10  H3  UNL     1      15.469 -13.769  16.349  1.00  0.00     0.186 HD
BRANCH   9  11
HETATM   11  C8  UNL     1      13.790 -12.411  16.793  1.00  0.00     0.166 C
HETATM   12  C9  UNL     1      13.655 -12.618  18.246  1.00  0.00     0.107 C
BRANCH  11  13
HETATM   13  N2  UNL     1      12.992 -11.978  16.043  1.00  0.00    -0.396 NA
BRANCH  13  14
HETATM   14  C7  UNL     1      12.092 -11.496  15.185  1.00  0.00     0.248 C
BRANCH  14  15
HETATM   15  C6  UNL     1      10.909 -12.225  14.773  1.00  0.00    -0.045 C
HETATM   16  C5  UNL     1       9.905 -12.769  14.412  1.00  0.00    -0.069 C
BRANCH  16  17
HETATM   17  C4  UNL     1       8.643 -13.350  13.953  1.00  0.00     0.366 C
BRANCH  17  18
HETATM   18  N1  UNL     1       8.817 -14.014  12.726  1.00  0.00     0.103 N
BRANCH  18  19
HETATM   19  C3  UNL     1       9.944 -14.937  12.655  1.00  0.00     0.300 C
BRANCH  19  20
HETATM   20  C2  UNL     1      10.588 -14.648  11.341  1.00  0.00    -0.007 C
HETATM   21  C1  UNL     1      10.812 -15.595  10.496  1.00  0.00     0.008 C
ENDBRANCH  19  20
ENDBRANCH  18  19
BRANCH  18  22
HETATM   22  C14 UNL     1       7.602 -14.660  12.245  1.00  0.00     0.284 C
BRANCH  22  23
HETATM   23  C15 UNL     1       6.712 -13.627  11.621  1.00  0.00     0.115 C
HETATM   24 BR1  UNL     1       7.609 -12.862  10.078  1.00  0.00    -0.095 Br
ENDBRANCH  22  23
ENDBRANCH  18  22
ENDBRANCH  17  18
ENDBRANCH  16  17
ENDBRANCH  14  15
ENDBRANCH  13  14
ENDBRANCH  11  13
ENDBRANCH   9  11
ENDBRANCH   1   9
BRANCH   6  25
HETATM   25  N6  UNL     1      17.477 -10.495  12.969  1.00  0.00    -0.202 N
ATOM     26  H6  UNL     1      18.490 -10.482  13.083  1.00  0.00     0.183 HD
BRANCH  25  27
HETATM   27  C12 UNL     1      17.005 -10.160  11.685  1.00  0.00     0.106 C
BRANCH  27  28
HETATM   28  C13 UNL     1      17.142  -8.690  11.417  1.00  0.00     0.274 C
BRANCH  28  29
HETATM   29  N7  UNL     1      15.859  -8.116  11.093  1.00  0.00    -0.075 N
ATOM     30  H73 UNL     1      15.098  -8.779  11.240  1.00  0.00     0.274 HD
ATOM     31  H72 UNL     1      15.577  -7.408  11.771  1.00  0.00     0.274 HD
ATOM     32  H71 UNL     1      15.865  -7.750  10.141  1.00  0.00     0.274 HD
ENDBRANCH  28  29
ENDBRANCH  27  28
ENDBRANCH  25  27
ENDBRANCH   6  25
TORSDOF 15
ENDMDL