MODEL 5
REMARK VINA RESULT: -7.029529734      2.537      4.133
REMARK  10 active torsions:
REMARK  status: ('A' for Active; 'I' for Inactive)
REMARK    1  A    between atoms: C2_2  and  C3_3
REMARK    2  A    between atoms: C3_3  and  N1_4
REMARK       I    between atoms: N1_4  and  C4_6
REMARK    3  A    between atoms: N3_8  and  C5_10
REMARK    4  A    between atoms: C8_13  and  N4_14
REMARK    5  A    between atoms: N4_14  and  C9_15
REMARK    6  A    between atoms: C9_15  and  C10_16
REMARK    7  A    between atoms: C14_20  and  C15_22
REMARK    8  A    between atoms: C15_22  and  O1_23
REMARK    9  A    between atoms: N5_26  and  C17_27
REMARK   10  A    between atoms: C17_27  and  C18_28
ROOT
HETATM    1  C5  UNL     1      12.870 -12.814  14.133  1.00  0.00     0.176 C
HETATM    2  C6  UNL     1      11.675 -12.023  14.534  1.00  0.00     0.038 C
HETATM    3  C7  UNL     1      10.427 -12.897  14.719  1.00  0.00     0.058 C
HETATM    4  C8  UNL     1      10.584 -14.067  13.792  1.00  0.00     0.294 C
HETATM    5  N5  UNL     1      11.540 -14.924  14.372  1.00  0.00    -0.312 N
HETATM    6  C19 UNL     1      12.830 -14.247  14.520  1.00  0.00     0.244 C
HETATM    7  O4  UNL     1      13.841 -14.876  14.959  1.00  0.00    -0.271 OA
ENDROOT
BRANCH   4   8
HETATM    8  N4  UNL     1       9.369 -14.582  13.232  1.00  0.00    -0.043 N
HETATM    9  C12 UNL     1       9.751 -15.265  12.004  1.00  0.00     0.243 C
HETATM   10  C13 UNL     1       9.042 -14.647  10.854  1.00  0.00     0.075 C
HETATM   11  C14 UNL     1       8.094 -13.657  11.432  1.00  0.00     0.150 C
HETATM   12  F1  UNL     1       8.123 -12.440  10.731  1.00  0.00    -0.239 F
HETATM   13  C16 UNL     1       8.516 -13.474  12.865  1.00  0.00     0.285 C
BRANCH   8  14
HETATM   14  C9  UNL     1       8.686 -15.417  14.154  1.00  0.00     0.240 C
BRANCH  14  15
HETATM   15  C10 UNL     1       8.100 -16.699  13.632  1.00  0.00     0.023 C
HETATM   16  C11 UNL     1       7.793 -17.548  14.878  1.00  0.00     0.007 C
ENDBRANCH  14  15
ENDBRANCH   8  14
BRANCH  11  17
HETATM   17  C15 UNL     1       6.684 -14.173  11.278  1.00  0.00     0.209 C
BRANCH  17  18
HETATM   18  O1  UNL     1       6.036 -13.911  12.499  1.00  0.00    -0.398 OA
ATOM     19  H1  UNL     1       6.003 -14.739  12.964  1.00  0.00     0.209 HD
ENDBRANCH  17  18
ENDBRANCH  11  17
ENDBRANCH   4   8
BRANCH   5  20
HETATM   20  C17 UNL     1      11.530 -16.265  14.819  1.00  0.00     0.241 C
BRANCH  20  21
HETATM   21  C18 UNL     1      11.820 -17.311  13.824  1.00  0.00     0.191 C
HETATM   22  O2  UNL     1      12.581 -17.231  12.854  1.00  0.00    -0.647 OA
HETATM   23  O3  UNL     1      11.168 -18.553  13.978  1.00  0.00    -0.647 OA
ENDBRANCH  20  21
ENDBRANCH   5  20
BRANCH   1  24
HETATM   24  N3  UNL     1      14.049 -12.143  14.568  1.00  0.00    -0.351 N
HETATM   25  C4  UNL     1      14.429 -11.808  15.717  1.00  0.00     0.185 C
HETATM   26  N1  UNL     1      15.684 -11.135  15.832  1.00  0.00    -0.361 N
HETATM   27  N2  UNL     1      13.733 -12.028  16.934  1.00  0.00    -0.064 NA
ATOM     28  H1  UNL     1      16.329 -11.416  16.570  1.00  0.00     0.162 HD
ATOM     29  H3  UNL     1      14.694 -11.892  13.820  1.00  0.00     0.163 HD
BRANCH  26  30
HETATM   30  C3  UNL     1      16.068 -10.065  14.933  1.00  0.00     0.148 C
BRANCH  30  31
HETATM   31  C2  UNL     1      16.981 -10.564  13.844  1.00  0.00    -0.018 C
HETATM   32  C1  UNL     1      16.863 -10.121  12.601  1.00  0.00     0.008 C
ENDBRANCH  30  31
ENDBRANCH  26  30
ENDBRANCH   1  24
TORSDOF 10
ENDMDL