MODEL 5
REMARK VINA RESULT: -8.217481643      1.579      2.384
REMARK  9 active torsions:
REMARK  status: ('A' for Active; 'I' for Inactive)
REMARK       I    between atoms: N1_2  and  C2_4
REMARK    1  A    between atoms: N3_6  and  C3_8
REMARK    2  A    between atoms: N4_10  and  C5_12
REMARK    3  A    between atoms: C5_12  and  C6_13
REMARK    4  A    between atoms: C6_13  and  C7_14
REMARK    5  A    between atoms: C7_14  and  C8_15
REMARK    6  A    between atoms: C8_15  and  C9_16
REMARK    7  A    between atoms: C9_16  and  C10_17
REMARK    8  A    between atoms: C15_23  and  N5_24
REMARK       I    between atoms: C16_26  and  N6_27
REMARK       I    between atoms: C16_26  and  N8_31
REMARK    9  A    between atoms: N8_31  and  N9_33
ROOT
HETATM    1  N5  UNL     1      14.487 -11.937  16.065  1.00  0.00    -0.219 N
ATOM      2  H5  UNL     1      14.679 -11.200  16.743  1.00  0.00     0.178 HD
HETATM    3  C16 UNL     1      15.148 -11.980  14.966  1.00  0.00     0.703 C
HETATM    4  N6  UNL     1      16.133 -11.003  14.717  1.00  0.00    -0.125 N
ATOM      5  H6  UNL     1      16.908 -10.883  15.370  1.00  0.00     0.197 HD
HETATM    6  C17 UNL     1      16.051 -10.207  13.589  1.00  0.00     0.196 C
HETATM    7  N7  UNL     1      16.001  -9.537  12.639  1.00  0.00    -0.171 NA
HETATM    8  N8  UNL     1      14.848 -13.028  14.046  1.00  0.00    -0.117 N
ATOM      9  H8  UNL     1      13.962 -13.017  13.541  1.00  0.00     0.207 HD
ENDROOT
BRANCH   1  10
HETATM   10  C15 UNL     1      13.484 -12.912  16.342  1.00  0.00     0.111 C
HETATM   11  C10 UNL     1      12.343 -12.310  17.122  1.00  0.00     0.039 C
HETATM   12  C11 UNL     1      13.161 -12.546  18.352  1.00  0.00    -0.054 C
HETATM   13  C12 UNL     1      13.234 -11.977  19.537  1.00  0.00     0.011 C
HETATM   14  C14 UNL     1      13.809 -13.673  17.612  1.00  0.00     0.062 C
HETATM   15  C13 UNL     1      12.383 -10.834  19.892  1.00  0.00     0.062 C
HETATM   16 CL1  UNL     1      14.377 -12.608  20.705  1.00  0.00    -0.089 Cl
BRANCH  11  17
HETATM   17  C9  UNL     1      11.097 -13.169  17.197  1.00  0.00     0.011 C
BRANCH  17  18
HETATM   18  C8  UNL     1      10.045 -12.401  17.962  1.00  0.00     0.001 C
BRANCH  18  19
HETATM   19  C7  UNL     1       8.657 -12.859  17.660  1.00  0.00     0.002 C
BRANCH  19  20
HETATM   20  C6  UNL     1       8.579 -13.709  16.410  1.00  0.00     0.020 C
BRANCH  20  21
HETATM   21  C5  UNL     1       8.080 -12.826  15.259  1.00  0.00     0.121 C
BRANCH  21  22
HETATM   22  N4  UNL     1       7.627 -13.683  14.181  1.00  0.00    -0.380 N
HETATM   23  C3  UNL     1       8.360 -13.896  13.151  1.00  0.00     0.075 C
HETATM   24  C4  UNL     1       7.813 -14.788  12.096  1.00  0.00     0.089 C
ATOM     25  H4  UNL     1       6.708 -14.123  14.243  1.00  0.00     0.160 HD
BRANCH  23  26
HETATM   26  N3  UNL     1       9.628 -13.291  13.062  1.00  0.00    -0.321 N
HETATM   27  C2  UNL     1      10.691 -13.944  13.361  1.00  0.00     0.189 C
HETATM   28  N1  UNL     1      10.568 -15.294  13.786  1.00  0.00    -0.369 N
HETATM   29  N2  UNL     1      11.992 -13.385  13.290  1.00  0.00    -0.064 NA
HETATM   30  C1  UNL     1      11.600 -16.252  13.412  1.00  0.00     0.148 C
ATOM     31  H1  UNL     1       9.768 -15.588  14.345  1.00  0.00     0.161 HD
ATOM     32  H3  UNL     1       9.703 -12.321  12.756  1.00  0.00     0.169 HD
ENDBRANCH  23  26
ENDBRANCH  21  22
ENDBRANCH  20  21
ENDBRANCH  19  20
ENDBRANCH  18  19
ENDBRANCH  17  18
ENDBRANCH  11  17
ENDBRANCH   1  10
BRANCH   8  33
HETATM   33  N9  UNL     1      15.753 -14.069  13.827  1.00  0.00    -0.235 N
HETATM   34  N10 UNL     1      15.302 -15.253  13.904  1.00  0.00    -0.330 N
ATOM     35 2H10 UNL     1      14.318 -15.420  14.116  1.00  0.00     0.178 HD
ATOM     36 1H10 UNL     1      15.963 -16.013  13.744  1.00  0.00     0.178 HD
ATOM     37  H9  UNL     1      16.733 -13.886  13.617  1.00  0.00     0.208 HD
ENDBRANCH   8  33
TORSDOF 9
ENDMDL