MODEL 1
REMARK VINA RESULT: -7.813163023      0.000      0.000
REMARK  9 active torsions:
REMARK  status: ('A' for Active; 'I' for Inactive)
REMARK    1  A    between atoms: C2_2  and  N1_3
REMARK    2  A    between atoms: N1_3  and  C4_6
REMARK    3  A    between atoms: C4_6  and  C5_7
REMARK    4  A    between atoms: C5_7  and  C6_8
REMARK    5  A    between atoms: C6_8  and  C7_9
REMARK    6  A    between atoms: C7_9  and  N2_10
REMARK    7  A    between atoms: C11_20  and  C12_21
REMARK    8  A    between atoms: C12_21  and  C13_22
REMARK    9  A    between atoms: C15_26  and  N6_27
ROOT
HETATM    1  N2  UNL     1      12.466 -12.557  15.726  1.00  0.00    -0.268 N
HETATM    2  C8  UNL     1      12.200 -12.753  17.086  1.00  0.00     0.329 C
HETATM    3  O1  UNL     1      11.337 -11.951  17.578  1.00  0.00    -0.246 OA
HETATM    4  N3  UNL     1      12.705 -13.680  18.043  1.00  0.00    -0.313 N
ATOM      5  H3  UNL     1      12.361 -13.419  18.967  1.00  0.00     0.170 HD
HETATM    6  C9  UNL     1      13.514 -14.832  18.168  1.00  0.00     0.166 C
HETATM    7  C10 UNL     1      14.168 -15.369  17.011  1.00  0.00     0.257 C
HETATM    8  O2  UNL     1      14.528 -16.567  17.267  1.00  0.00    -0.267 OA
HETATM    9  N4  UNL     1      14.534 -14.992  15.691  1.00  0.00    -0.343 N
ATOM     10  H4  UNL     1      14.719 -15.802  15.099  1.00  0.00     0.163 HD
HETATM   11  C11 UNL     1      14.706 -13.775  14.994  1.00  0.00     0.183 C
HETATM   12  C16 UNL     1      13.461 -12.985  14.815  1.00  0.00     0.251 C
HETATM   13  O3  UNL     1      13.225 -12.613  13.635  1.00  0.00    -0.271 OA
ENDROOT
BRANCH  11  14
HETATM   14  C12 UNL     1      15.814 -12.896  15.597  1.00  0.00     0.094 C
BRANCH  14  15
HETATM   15  C13 UNL     1      16.466 -12.148  14.491  1.00  0.00     0.045 A
HETATM   16  C14 UNL     1      16.624 -10.785  14.326  1.00  0.00     0.131 A
HETATM   17  N5  UNL     1      17.281 -10.558  13.166  1.00  0.00    -0.200 N
HETATM   18  C15 UNL     1      17.537 -11.757  12.604  1.00  0.00     0.675 A
ATOM     19  H5  UNL     1      17.537  -9.646  12.786  1.00  0.00     0.183 HD
HETATM   20  N7  UNL     1      17.043 -12.698  13.406  1.00  0.00    -0.194 N
ATOM     21  H7  UNL     1      17.096 -13.700  13.224  1.00  0.00     0.184 HD
BRANCH  18  22
HETATM   22  N6  UNL     1      18.150 -11.940  11.488  1.00  0.00    -0.234 N
ATOM     23  H62 UNL     1      18.771 -11.282  11.018  1.00  0.00     0.174 HD
ATOM     24  H61 UNL     1      18.096 -12.783  10.917  1.00  0.00     0.174 HD
ENDBRANCH  18  22
ENDBRANCH  14  15
ENDBRANCH  11  14
BRANCH   1  25
HETATM   25  C7  UNL     1      11.481 -11.707  15.099  1.00  0.00     0.137 C
BRANCH  25  26
HETATM   26  C6  UNL     1      10.119 -12.360  15.043  1.00  0.00     0.022 C
BRANCH  26  27
HETATM   27  C5  UNL     1       9.833 -12.960  13.693  1.00  0.00     0.031 C
BRANCH  27  28
HETATM   28  C4  UNL     1       8.385 -13.393  13.566  1.00  0.00     0.258 C
BRANCH  28  29
HETATM   29  N1  UNL     1       8.112 -14.073  12.343  1.00  0.00     0.010 N
HETATM   30  C3  UNL     1       7.765 -15.468  12.536  1.00  0.00     0.295 C
HETATM   31 CL1  UNL     1       9.592 -14.067  11.394  1.00  0.00     0.117 Cl
BRANCH  29  32
HETATM   32  C2  UNL     1       7.095 -13.474  11.534  1.00  0.00     0.253 C
HETATM   33  C1  UNL     1       7.657 -12.706  10.347  1.00  0.00     0.036 C
ENDBRANCH  29  32
ENDBRANCH  28  29
ENDBRANCH  27  28
ENDBRANCH  26  27
ENDBRANCH  25  26
ENDBRANCH   1  25
TORSDOF 9
ENDMDL