MODEL 1
REMARK VINA RESULT: -7.753671170      0.000      0.000
REMARK  8 active torsions:
REMARK  status: ('A' for Active; 'I' for Inactive)
REMARK    1  A    between atoms: N1_4  and  C4_5
REMARK    2  A    between atoms: C4_5  and  C5_6
REMARK    3  A    between atoms: C5_6  and  C6_7
REMARK    4  A    between atoms: C6_7  and  N2_8
REMARK       I    between atoms: N2_8  and  C7_10
REMARK       I    between atoms: C7_10  and  N4_14
REMARK    5  A    between atoms: N4_14  and  N5_16
REMARK    6  A    between atoms: N5_16  and  C10_19
REMARK    7  A    between atoms: C10_19  and  C11_20
REMARK    8  A    between atoms: C11_20  and  N6_21
REMARK       I    between atoms: N7_29  and  C18_30
ROOT
HETATM    1  N2  UNL     1      10.632 -12.663  17.710  1.00  0.00    -0.225 N
ATOM      2  H2  UNL     1      10.540 -13.167  18.592  1.00  0.00     0.177 HD
HETATM    3  C7  UNL     1      11.884 -12.081  17.395  1.00  0.00     0.692 C
HETATM    4  N3  UNL     1      12.599 -11.593  18.346  1.00  0.00    -0.234 N
ATOM      5  H31 UNL     1      13.501 -11.173  18.119  1.00  0.00     0.174 HD
ATOM      6  H32 UNL     1      12.269 -11.627  19.310  1.00  0.00     0.174 HD
HETATM    7  N4  UNL     1      12.349 -12.032  16.032  1.00  0.00    -0.049 N
ATOM      8  H4  UNL     1      11.799 -11.524  15.339  1.00  0.00     0.213 HD
ENDROOT
BRANCH   1   9
HETATM    9  C6  UNL     1       9.479 -12.579  16.841  1.00  0.00     0.139 C
BRANCH   9  10
HETATM   10  C5  UNL     1       8.927 -13.946  16.509  1.00  0.00     0.040 C
BRANCH  10  11
HETATM   11  C4  UNL     1       9.728 -14.602  15.397  1.00  0.00     0.129 C
BRANCH  11  12
HETATM   12  N1  UNL     1       9.108 -14.421  14.113  1.00  0.00    -0.332 N
HETATM   13  C3  UNL     1       9.344 -13.309  13.216  1.00  0.00     0.153 C
HETATM   14  C2  UNL     1       8.963 -13.840  11.858  1.00  0.00     0.111 C
HETATM   15  C1  UNL     1      10.111 -14.606  11.278  1.00  0.00     0.034 C
HETATM   16  N7  UNL     1       7.834 -14.709  12.181  1.00  0.00    -0.268 N
HETATM   17  C17 UNL     1       8.164 -15.265  13.471  1.00  0.00     0.327 C
HETATM   18  C18 UNL     1       6.683 -14.942  11.392  1.00  0.00     0.192 C
HETATM   19  O1  UNL     1       7.661 -16.337  13.910  1.00  0.00    -0.247 OA
HETATM   20  N8  UNL     1       5.510 -14.661  11.839  1.00  0.00    -0.373 N
HETATM   21  N9  UNL     1       6.783 -15.491  10.086  1.00  0.00    -0.063 NA
ATOM     22  H82 UNL     1       5.438 -14.267  12.776  1.00  0.00     0.158 HD
ATOM     23  H81 UNL     1       4.680 -14.829  11.269  1.00  0.00     0.158 HD
ENDBRANCH  11  12
ENDBRANCH  10  11
ENDBRANCH   9  10
ENDBRANCH   1   9
BRANCH   7  24
HETATM   24  N5  UNL     1      13.533 -12.661  15.629  1.00  0.00     0.020 N
HETATM   25  C8  UNL     1      13.926 -13.622  16.639  1.00  0.00     0.302 C
HETATM   26  C9  UNL     1      13.293 -13.300  14.349  1.00  0.00     0.302 C
BRANCH  24  27
HETATM   27  C10 UNL     1      14.552 -11.646  15.549  1.00  0.00     0.292 C
BRANCH  27  28
HETATM   28  C11 UNL     1      14.791 -11.215  14.120  1.00  0.00     0.267 C
BRANCH  28  29
HETATM   29  N6  UNL     1      16.029 -10.526  13.944  1.00  0.00    -0.069 N
HETATM   30  C12 UNL     1      16.372  -9.676  15.068  1.00  0.00     0.272 C
HETATM   31  C13 UNL     1      16.102  -9.739  12.755  1.00  0.00     0.237 C
HETATM   32  C14 UNL     1      17.226 -10.259  11.907  1.00  0.00     0.029 C
HETATM   33  C15 UNL     1      17.326 -11.699  12.367  1.00  0.00     0.029 C
HETATM   34  C16 UNL     1      17.084 -11.537  13.860  1.00  0.00     0.237 C
ENDBRANCH  28  29
ENDBRANCH  27  28
ENDBRANCH  24  27
ENDBRANCH   7  24
TORSDOF 8
ENDMDL