MODEL 4
REMARK VINA RESULT: -6.945429187      0.833      1.119
REMARK  10 active torsions:
REMARK  status: ('A' for Active; 'I' for Inactive)
REMARK    1  A    between atoms: N1_2  and  C3_4
REMARK    2  A    between atoms: C3_4  and  C4_5
REMARK    3  A    between atoms: C4_5  and  C5_6
REMARK    4  A    between atoms: C5_6  and  O1_7
REMARK    5  A    between atoms: C5_6  and  C6_9
REMARK    6  A    between atoms: C6_9  and  C7_10
REMARK    7  A    between atoms: C7_10  and  C8_11
REMARK    8  A    between atoms: C8_11  and  C9_12
REMARK    9  A    between atoms: C9_12  and  C10_13
REMARK   10  A    between atoms: C13_19  and  N3_20
ROOT
HETATM    1  C3  UNL     1      12.856 -13.543  15.370  1.00  0.00     0.116 C
HETATM    2  C11 UNL     1      13.447 -12.556  14.422  1.00  0.00     0.100 C
HETATM    3  C12 UNL     1      14.860 -12.855  14.073  1.00  0.00     0.054 A
HETATM    4  N2  UNL     1      15.654 -11.864  13.627  1.00  0.00    -0.194 N
ATOM      5  H2  UNL     1      15.364 -10.893  13.510  1.00  0.00     0.184 HD
HETATM    6  C13 UNL     1      16.861 -12.329  13.365  1.00  0.00     0.676 A
HETATM    7  N4  UNL     1      16.858 -13.624  13.638  1.00  0.00    -0.192 N
ATOM      8  H4  UNL     1      17.652 -14.255  13.534  1.00  0.00     0.184 HD
HETATM    9  C14 UNL     1      15.613 -13.976  14.084  1.00  0.00     0.067 A
HETATM   10  C15 UNL     1      15.238 -15.336  14.482  1.00  0.00     0.182 C
HETATM   11  N5  UNL     1      13.878 -15.676  14.157  1.00  0.00    -0.353 N
ATOM     12  H5  UNL     1      13.633 -16.386  13.468  1.00  0.00     0.162 HD
HETATM   13  C16 UNL     1      12.921 -14.943  14.873  1.00  0.00     0.246 C
HETATM   14  O2  UNL     1      11.939 -15.584  15.146  1.00  0.00    -0.271 OA
ENDROOT
BRANCH   1  15
HETATM   15  N1  UNL     1      13.718 -13.557  16.541  1.00  0.00    -0.404 N
HETATM   16  C1  UNL     1      13.413 -14.563  17.499  1.00  0.00     0.144 C
HETATM   17  C2  UNL     1      14.006 -12.270  17.095  1.00  0.00     0.144 C
ENDBRANCH   1  15
BRANCH   1  18
HETATM   18  C4  UNL     1      11.465 -13.136  15.723  1.00  0.00     0.073 C
BRANCH  18  19
HETATM   19  C5  UNL     1      10.616 -12.494  14.728  1.00  0.00     0.121 C
BRANCH  19  20
HETATM   20  O1  UNL     1      10.452 -11.116  14.800  1.00  0.00    -0.395 OA
ATOM     21  H1  UNL     1      10.922 -10.577  14.173  1.00  0.00     0.210 HD
ENDBRANCH  19  20
BRANCH  19  22
HETATM   22  C6  UNL     1       9.219 -13.076  14.668  1.00  0.00     0.032 C
BRANCH  22  23
HETATM   23  C7  UNL     1       8.859 -13.506  13.302  1.00  0.00     0.002 C
BRANCH  23  24
HETATM   24  C8  UNL     1      10.026 -14.153  12.571  1.00  0.00     0.001 C
BRANCH  24  25
HETATM   25  C9  UNL     1       9.703 -14.328  11.136  1.00  0.00     0.011 C
BRANCH  25  26
HETATM   26  C10 UNL     1       8.190 -14.363  10.947  1.00  0.00     0.085 C
HETATM   27 BR1  UNL     1       7.621 -12.972   9.755  1.00  0.00    -0.097 Br
ENDBRANCH  25  26
ENDBRANCH  24  25
ENDBRANCH  23  24
ENDBRANCH  22  23
ENDBRANCH  19  22
ENDBRANCH  18  19
ENDBRANCH   1  18
BRANCH   6  28
HETATM   28  N3  UNL     1      17.877 -11.666  12.922  1.00  0.00    -0.234 N
ATOM     29  H32 UNL     1      18.075 -11.485  11.938  1.00  0.00     0.174 HD
ATOM     30  H31 UNL     1      18.620 -11.232  13.471  1.00  0.00     0.174 HD
ENDBRANCH   6  28
TORSDOF 10
ENDMDL