MODEL 1
REMARK VINA RESULT: -6.333034568      0.000      0.000
REMARK  12 active torsions:
REMARK  status: ('A' for Active; 'I' for Inactive)
REMARK    1  A    between atoms: N1_2  and  C2_4
REMARK    2  A    between atoms: C2_4  and  N2_6
REMARK    3  A    between atoms: N2_6  and  C3_8
REMARK    4  A    between atoms: C3_8  and  C4_9
REMARK    5  A    between atoms: C3_8  and  C7_13
REMARK    6  A    between atoms: C4_9  and  C5_10
REMARK    7  A    between atoms: C5_10  and  C6_11
REMARK    8  A    between atoms: C7_13  and  O1_14
REMARK    9  A    between atoms: N3_16  and  C8_18
REMARK   10  A    between atoms: C8_18  and  C9_19
REMARK   11  A    between atoms: C9_19  and  N4_20
REMARK   12  A    between atoms: C14_25  and  O2_26
ROOT
HETATM    1  C7  UNL     1      13.716 -13.580  14.810  1.00  0.00     0.134 C
HETATM    2  N3  UNL     1      13.323 -14.752  15.117  1.00  0.00    -0.371 N
ATOM      3  H3  UNL     1      13.650 -15.161  15.993  1.00  0.00     0.161 HD
ENDROOT
BRANCH   2   4
HETATM    4  C8  UNL     1      12.432 -15.533  14.279  1.00  0.00     0.149 C
BRANCH   4   5
HETATM    5  C9  UNL     1      11.223 -15.879  15.099  1.00  0.00     0.259 C
BRANCH   5   6
HETATM    6  N4  UNL     1      10.006 -15.290  14.624  1.00  0.00    -0.038 N
HETATM    7  C10 UNL     1       9.071 -16.415  14.440  1.00  0.00     0.275 C
HETATM    8  C11 UNL     1       9.512 -14.401  15.669  1.00  0.00     0.272 C
HETATM    9  C12 UNL     1       9.281 -13.077  14.930  1.00  0.00     0.216 C
HETATM   10  C13 UNL     1       7.895 -13.160  14.341  1.00  0.00     0.067 C
HETATM   11  N5  UNL     1      10.206 -13.113  13.822  1.00  0.00    -0.039 N
HETATM   12  C14 UNL     1       7.857 -13.607  12.929  1.00  0.00     0.127 C
HETATM   13  C15 UNL     1       8.907 -14.602  12.539  1.00  0.00     0.069 C
HETATM   14  C16 UNL     1       9.402 -14.197  11.146  1.00  0.00     0.016 C
HETATM   15  C17 UNL     1      10.147 -14.504  13.440  1.00  0.00     0.393 C
ATOM     16  H52 UNL     1      10.015 -12.449  13.073  1.00  0.00     0.280 HD
ATOM     17  H51 UNL     1      11.140 -12.758  14.025  1.00  0.00     0.280 HD
BRANCH  12  18
HETATM   18  O2  UNL     1       6.606 -14.203  12.692  1.00  0.00    -0.395 OA
ATOM     19  H2  UNL     1       6.734 -14.937  12.104  1.00  0.00     0.210 HD
ENDBRANCH  12  18
ENDBRANCH   5   6
ENDBRANCH   4   5
ENDBRANCH   2   4
BRANCH   1  20
HETATM   20  C3  UNL     1      14.629 -12.846  15.723  1.00  0.00     0.158 C
BRANCH  20  21
HETATM   21  N2  UNL     1      14.395 -13.124  17.087  1.00  0.00    -0.355 N
ATOM     22  H2  UNL     1      14.829 -13.964  17.470  1.00  0.00     0.162 HD
BRANCH  21  23
HETATM   23  C2  UNL     1      13.626 -12.355  17.956  1.00  0.00     0.167 C
HETATM   24  S1  UNL     1      11.974 -12.480  17.941  1.00  0.00    -0.041 SA
BRANCH  23  25
HETATM   25  N1  UNL     1      14.172 -11.447  18.877  1.00  0.00    -0.372 N
HETATM   26  C1  UNL     1      13.445 -11.023  20.052  1.00  0.00     0.148 C
ATOM     27  H1  UNL     1      15.108 -11.077  18.713  1.00  0.00     0.161 HD
ENDBRANCH  23  25
ENDBRANCH  21  23
ENDBRANCH  20  21
BRANCH  20  28
HETATM   28  C4  UNL     1      16.080 -13.131  15.318  1.00  0.00     0.034 C
BRANCH  28  29
HETATM   29  C5  UNL     1      16.640 -12.125  14.374  1.00  0.00     0.017 C
BRANCH  29  30
HETATM   30  C6  UNL     1      16.101 -10.755  14.795  1.00  0.00     0.115 C
HETATM   31 CL1  UNL     1      15.562  -9.834  13.396  1.00  0.00    -0.130 Cl
ENDBRANCH  29  30
ENDBRANCH  28  29
ENDBRANCH  20  28
ENDBRANCH   1  20
BRANCH   1  32
HETATM   32  O1  UNL     1      13.282 -13.010  13.636  1.00  0.00    -0.348 OA
ATOM     33  H1  UNL     1      13.517 -13.384  12.795  1.00  0.00     0.219 HD
ENDBRANCH   1  32
TORSDOF 12
ENDMDL