MODEL 5
REMARK VINA RESULT: -6.726851248      3.041      7.726
REMARK  10 active torsions:
REMARK  status: ('A' for Active; 'I' for Inactive)
REMARK    1  A    between atoms: N1_2  and  C4_5
REMARK    2  A    between atoms: C4_5  and  C5_6
REMARK    3  A    between atoms: C5_6  and  N4_17
REMARK       I    between atoms: N2_7  and  C6_9
REMARK       I    between atoms: C6_9  and  N3_11
REMARK    4  A    between atoms: N3_11  and  C7_13
REMARK    5  A    between atoms: C7_13  and  C8_14
REMARK    6  A    between atoms: N4_17  and  C10_19
REMARK    7  A    between atoms: C10_19  and  C11_20
REMARK    8  A    between atoms: C11_20  and  C12_21
REMARK    9  A    between atoms: C12_21  and  C13_22
REMARK   10  A    between atoms: C13_22  and  N6_26
ROOT
HETATM    1  C5  UNL     1      11.480 -12.837  16.347  1.00  0.00     0.107 C
HETATM    2  N2  UNL     1      10.357 -12.267  16.199  1.00  0.00    -0.297 N
ATOM      3  H2  UNL     1      10.233 -11.280  16.423  1.00  0.00     0.172 HD
HETATM    4  C6  UNL     1       9.255 -13.066  15.701  1.00  0.00     0.321 C
HETATM    5  O1  UNL     1       8.601 -13.800  16.482  1.00  0.00    -0.247 OA
HETATM    6  N3  UNL     1       8.901 -13.035  14.336  1.00  0.00    -0.339 N
ATOM      7  H3  UNL     1       9.430 -12.444  13.695  1.00  0.00     0.164 HD
ENDROOT
BRANCH   1   8
HETATM    8  C4  UNL     1      11.647 -14.244  16.027  1.00  0.00     0.311 C
BRANCH   8   9
HETATM    9  N1  UNL     1      12.282 -14.540  14.775  1.00  0.00    -0.072 N
HETATM   10  C1  UNL     1      11.445 -15.556  14.132  1.00  0.00     0.272 C
HETATM   11  C2  UNL     1      12.260 -13.391  13.868  1.00  0.00     0.272 C
HETATM   12  C3  UNL     1      13.600 -15.045  14.822  1.00  0.00     0.272 C
ENDBRANCH   8   9
ENDBRANCH   1   8
BRANCH   1  13
HETATM   13  N4  UNL     1      12.559 -12.052  16.822  1.00  0.00    -0.378 N
ATOM     14  H4  UNL     1      12.457 -11.040  16.761  1.00  0.00     0.160 HD
BRANCH  13  15
HETATM   15  C10 UNL     1      13.783 -12.551  17.383  1.00  0.00     0.121 C
BRANCH  15  16
HETATM   16  C11 UNL     1      15.030 -12.126  16.655  1.00  0.00     0.027 C
BRANCH  16  17
HETATM   17  C12 UNL     1      14.591 -11.489  15.326  1.00  0.00     0.077 C
BRANCH  17  18
HETATM   18  C13 UNL     1      15.647 -10.640  14.766  1.00  0.00     0.073 C
HETATM   19  N5  UNL     1      16.229  -9.768  15.506  1.00  0.00    -0.389 N
ATOM     20  H52 UNL     1      15.924  -9.702  16.478  1.00  0.00     0.157 HD
ATOM     21  H51 UNL     1      16.963  -9.177  15.116  1.00  0.00     0.157 HD
BRANCH  18  22
HETATM   22  N6  UNL     1      16.075 -10.733  13.399  1.00  0.00    -0.365 N
HETATM   23  C14 UNL     1      16.512 -11.989  12.824  1.00  0.00     0.168 C
HETATM   24  C15 UNL     1      17.854 -11.796  12.237  1.00  0.00     0.075 C
HETATM   25  N7  UNL     1      18.189 -10.570  11.666  1.00  0.00    -0.399 N
HETATM   26  C16 UNL     1      17.210  -9.558  11.566  1.00  0.00     0.138 C
ATOM     27  H7  UNL     1      19.135 -10.405  11.322  1.00  0.00     0.158 HD
HETATM   28  C17 UNL     1      16.091  -9.591  12.531  1.00  0.00     0.144 C
ENDBRANCH  18  22
ENDBRANCH  17  18
ENDBRANCH  16  17
ENDBRANCH  15  16
ENDBRANCH  13  15
ENDBRANCH   1  13
BRANCH   6  29
HETATM   29  C7  UNL     1       7.812 -13.817  13.835  1.00  0.00     0.152 C
BRANCH  29  30
HETATM   30  C8  UNL     1       7.923 -13.974  12.375  1.00  0.00     0.000 C
HETATM   31  C9  UNL     1       7.531 -13.002  11.578  1.00  0.00     0.053 C
HETATM   32 BR1  UNL     1       7.660 -13.170   9.679  1.00  0.00    -0.064 Br
ENDBRANCH  29  30
ENDBRANCH   6  29
TORSDOF 10
ENDMDL