MODEL 5
REMARK VINA RESULT: -5.893723083      2.414      2.734
REMARK  13 active torsions:
REMARK  status: ('A' for Active; 'I' for Inactive)
REMARK    1  A    between atoms: C2_2  and  N1_3
REMARK    2  A    between atoms: C2_2  and  N7_24
REMARK    3  A    between atoms: N1_3  and  C3_5
REMARK    4  A    between atoms: C3_5  and  C4_6
REMARK    5  A    between atoms: C4_6  and  N2_7
REMARK    6  A    between atoms: N2_7  and  C5_9
REMARK    7  A    between atoms: C7_14  and  C8_15
REMARK    8  A    between atoms: N7_24  and  C12_25
REMARK    9  A    between atoms: N7_24  and  C14_29
REMARK   10  A    between atoms: C12_25  and  C13_26
REMARK   11  A    between atoms: C13_26  and  O1_27
REMARK   12  A    between atoms: C14_29  and  C15_30
REMARK   13  A    between atoms: C15_30  and  O2_31
ROOT
HETATM    1  N2  UNL     1      12.412 -11.573  15.994  1.00  0.00    -0.224 N
ATOM      2  H2  UNL     1      11.850 -10.813  15.609  1.00  0.00     0.177 HD
ENDROOT
BRANCH   1   3
HETATM    3  C4  UNL     1      11.978 -12.240  17.230  1.00  0.00     0.157 C
BRANCH   3   4
HETATM    4  C3  UNL     1      10.575 -12.730  16.986  1.00  0.00     0.141 C
BRANCH   4   5
HETATM    5  N1  UNL     1      10.208 -12.320  15.627  1.00  0.00    -0.379 N
ATOM      6  H1  UNL     1      10.827 -11.702  15.101  1.00  0.00     0.160 HD
BRANCH   5   7
HETATM    7  C2  UNL     1       9.107 -12.733  15.089  1.00  0.00     0.071 C
HETATM    8  C1  UNL     1       7.835 -12.302  15.689  1.00  0.00     0.088 C
BRANCH   7   9
HETATM    9  N7  UNL     1       9.131 -13.581  13.958  1.00  0.00    -0.367 N
BRANCH   9  10
HETATM   10  C12 UNL     1      10.122 -14.606  13.868  1.00  0.00     0.150 C
BRANCH  10  11
HETATM   11  C13 UNL     1      11.135 -14.344  12.769  1.00  0.00     0.183 C
BRANCH  11  12
HETATM   12  O1  UNL     1      12.058 -13.362  13.184  1.00  0.00    -0.399 OA
ATOM     13  H1  UNL     1      12.335 -13.531  14.077  1.00  0.00     0.209 HD
ENDBRANCH  11  12
ENDBRANCH  10  11
ENDBRANCH   9  10
BRANCH   9  14
HETATM   14  C14 UNL     1       8.137 -13.381  12.948  1.00  0.00     0.150 C
BRANCH  14  15
HETATM   15  C15 UNL     1       7.394 -14.615  12.512  1.00  0.00     0.183 C
BRANCH  15  16
HETATM   16  O2  UNL     1       6.057 -14.394  12.233  1.00  0.00    -0.399 OA
ATOM     17  H2  UNL     1       5.776 -13.500  12.385  1.00  0.00     0.209 HD
ENDBRANCH  15  16
ENDBRANCH  14  15
ENDBRANCH   9  14
ENDBRANCH   7   9
ENDBRANCH   5   7
ENDBRANCH   4   5
ENDBRANCH   3   4
ENDBRANCH   1   3
BRANCH   1  18
HETATM   18  C5  UNL     1      13.484 -11.929  15.392  1.00  0.00     0.679 A
HETATM   19  N3  UNL     1      14.037 -13.135  15.470  1.00  0.00    -0.183 N
HETATM   20  C6  UNL     1      15.154 -13.082  14.683  1.00  0.00     0.125 A
ATOM     21  H3  UNL     1      13.699 -13.935  16.006  1.00  0.00     0.185 HD
HETATM   22 BR1  UNL     1      16.258 -14.623  14.484  1.00  0.00    -0.028 Br
HETATM   23  C7  UNL     1      15.299 -11.844  14.112  1.00  0.00     0.112 A
HETATM   24  N6  UNL     1      14.231 -11.143  14.580  1.00  0.00    -0.187 N
ATOM     25  H6  UNL     1      14.023 -10.171  14.353  1.00  0.00     0.184 HD
BRANCH  23  26
HETATM   26  C8  UNL     1      16.349 -11.377  13.179  1.00  0.00     0.081 A
HETATM   27  C9  UNL     1      17.407 -12.139  12.697  1.00  0.00     0.121 A
HETATM   28  N4  UNL     1      18.140 -11.383  11.848  1.00  0.00    -0.360 N
HETATM   29  C10 UNL     1      17.575 -10.201  11.794  1.00  0.00     0.182 A
ATOM     30  H4  UNL     1      18.976 -11.678  11.343  1.00  0.00     0.166 HD
HETATM   31  N5  UNL     1      16.469 -10.168  12.606  1.00  0.00    -0.344 N
HETATM   32  C11 UNL     1      15.612  -9.021  12.771  1.00  0.00     0.157 C
ENDBRANCH  23  26
ENDBRANCH   1  18
TORSDOF 13
ENDMDL