MODEL 1
REMARK VINA RESULT: -6.984608129      0.000      0.000
REMARK  18 active torsions:
REMARK  status: ('A' for Active; 'I' for Inactive)
REMARK    1  A    between atoms: C2_2  and  N8_35
REMARK    2  A    between atoms: N1_3  and  N2_5
REMARK    3  A    between atoms: N2_5  and  C3_7
REMARK    4  A    between atoms: C3_7  and  C4_8
REMARK    5  A    between atoms: C4_8  and  C5_9
REMARK    6  A    between atoms: C5_9  and  N3_10
REMARK       I    between atoms: C6_12  and  N5_14
REMARK    7  A    between atoms: N5_14  and  C7_16
REMARK    8  A    between atoms: C7_16  and  C8_17
REMARK    9  A    between atoms: C8_17  and  C9_18
REMARK   10  A    between atoms: C9_18  and  C10_19
REMARK   11  A    between atoms: C10_19  and  C11_20
REMARK   12  A    between atoms: C11_20  and  C12_21
REMARK       I    between atoms: C12_21  and  N6_23
REMARK   13  A    between atoms: N6_23  and  C13_24
REMARK   14  A    between atoms: C13_24  and  C14_25
REMARK   15  A    between atoms: N8_35  and  C21_37
REMARK   16  A    between atoms: C21_37  and  C22_38
REMARK   17  A    between atoms: C22_38  and  S1_39
REMARK   18  A    between atoms: S1_39  and  N9_40
ROOT
HETATM    1  N3  UNL     1      12.110 -12.036  18.110  1.00  0.00    -0.365 N
ATOM      2  H3  UNL     1      12.801 -11.791  18.819  1.00  0.00     0.162 HD
HETATM    3  C6  UNL     1      10.947 -12.359  18.478  1.00  0.00     0.183 C
HETATM    4  N4  UNL     1      10.531 -12.402  19.838  1.00  0.00    -0.064 NA
HETATM    5  N5  UNL     1       9.969 -12.718  17.506  1.00  0.00    -0.365 N
ATOM      6  H5  UNL     1      10.251 -13.033  16.578  1.00  0.00     0.162 HD
ENDROOT
BRANCH   1   7
HETATM    7  C5  UNL     1      12.492 -12.003  16.727  1.00  0.00     0.124 C
BRANCH   7   8
HETATM    8  C4  UNL     1      13.226 -13.270  16.384  1.00  0.00     0.041 C
BRANCH   8   9
HETATM    9  C3  UNL     1      12.697 -13.793  15.066  1.00  0.00     0.141 C
BRANCH   9  10
HETATM   10  N2  UNL     1      13.816 -14.042  14.195  1.00  0.00    -0.335 N
ATOM     11  H2  UNL     1      13.900 -13.535  13.314  1.00  0.00     0.180 HD
BRANCH  10  12
HETATM   12  N1  UNL     1      14.776 -14.968  14.554  1.00  0.00    -0.294 N
HETATM   13  C2  UNL     1      15.985 -14.859  14.190  1.00  0.00     0.087 C
HETATM   14  C1  UNL     1      16.922 -15.945  14.653  1.00  0.00     0.090 C
ATOM     15  H1  UNL     1      14.504 -15.763  15.131  1.00  0.00     0.188 HD
BRANCH  13  16
HETATM   16  N8  UNL     1      16.551 -13.830  13.395  1.00  0.00    -0.378 N
ATOM     17  H8  UNL     1      16.397 -13.833  12.387  1.00  0.00     0.160 HD
BRANCH  16  18
HETATM   18  C21 UNL     1      17.331 -12.791  13.983  1.00  0.00     0.137 C
BRANCH  18  19
HETATM   19  C22 UNL     1      17.321 -11.563  13.070  1.00  0.00     0.182 C
BRANCH  19  20
HETATM   20  S1  UNL     1      16.036 -10.489  13.699  1.00  0.00     0.226 S
HETATM   21  O3  UNL     1      14.795 -11.310  13.939  1.00  0.00    -0.206 OA
HETATM   22  O4  UNL     1      15.780  -9.378  12.722  1.00  0.00    -0.206 OA
BRANCH  20  23
HETATM   23  N9  UNL     1      16.616  -9.765  15.148  1.00  0.00    -0.328 N
ATOM     24  H92 UNL     1      17.440 -10.065  15.668  1.00  0.00     0.168 HD
ATOM     25  H91 UNL     1      15.992  -8.993  15.383  1.00  0.00     0.168 HD
ENDBRANCH  20  23
ENDBRANCH  19  20
ENDBRANCH  18  19
ENDBRANCH  16  18
ENDBRANCH  13  16
ENDBRANCH  10  12
ENDBRANCH   9  10
ENDBRANCH   8   9
ENDBRANCH   7   8
ENDBRANCH   1   7
BRANCH   5  26
HETATM   26  C7  UNL     1       8.583 -12.630  17.857  1.00  0.00     0.122 C
BRANCH  26  27
HETATM   27  C8  UNL     1       7.718 -12.949  16.687  1.00  0.00     0.020 C
BRANCH  27  28
HETATM   28  C9  UNL     1       8.529 -13.257  15.472  1.00  0.00     0.002 C
BRANCH  28  29
HETATM   29  C10 UNL     1       8.104 -14.515  14.836  1.00  0.00     0.010 C
BRANCH  29  30
HETATM   30  C11 UNL     1       7.337 -14.509  13.591  1.00  0.00     0.119 C
BRANCH  30  31
HETATM   31  C12 UNL     1       8.136 -14.558  12.313  1.00  0.00     0.290 C
HETATM   32  O1  UNL     1       7.528 -14.167  11.271  1.00  0.00    -0.257 OA
HETATM   33  N6  UNL     1       9.413 -15.013  12.386  1.00  0.00    -0.384 NA
BRANCH  33  34
HETATM   34  C13 UNL     1      10.680 -15.464  12.460  1.00  0.00     0.210 C
BRANCH  34  35
HETATM   35  C14 UNL     1      10.864 -16.755  13.268  1.00  0.00     0.210 C
HETATM   36  F1  UNL     1      10.726 -16.488  14.621  1.00  0.00    -0.227 F
HETATM   37  C15 UNL     1       9.896 -17.825  12.870  1.00  0.00     0.086 C
HETATM   38  C16 UNL     1      10.217 -18.516  11.582  1.00  0.00     0.241 C
HETATM   39  N7  UNL     1      11.577 -18.908  11.417  1.00  0.00    -0.068 N
HETATM   40  C17 UNL     1      11.761 -19.381  10.046  1.00  0.00     0.272 C
HETATM   41  C18 UNL     1      11.849 -20.011  12.344  1.00  0.00     0.272 C
HETATM   42  C19 UNL     1      12.509 -17.828  11.643  1.00  0.00     0.318 C
HETATM   43  C20 UNL     1      12.246 -17.235  12.973  1.00  0.00     0.198 C
HETATM   44  O2  UNL     1      13.135 -17.131  13.827  1.00  0.00    -0.292 OA
ENDBRANCH  34  35
ENDBRANCH  33  34
ENDBRANCH  30  31
ENDBRANCH  29  30
ENDBRANCH  28  29
ENDBRANCH  27  28
ENDBRANCH  26  27
ENDBRANCH   5  26
TORSDOF 18
ENDMDL