MODEL 2
REMARK VINA RESULT: -7.370475508      1.639      2.267
REMARK  16 active torsions:
REMARK  status: ('A' for Active; 'I' for Inactive)
REMARK    1  A    between atoms: C2_2  and  C4_4
REMARK    2  A    between atoms: C4_4  and  C5_5
REMARK    3  A    between atoms: C5_5  and  C6_6
REMARK    4  A    between atoms: C6_6  and  N1_7
REMARK    5  A    between atoms: C6_6  and  C21_36
REMARK       I    between atoms: N1_7  and  C7_9
REMARK    6  A    between atoms: C7_9  and  C8_11
REMARK       I    between atoms: C8_11  and  N2_13
REMARK       I    between atoms: N2_13  and  C9_15
REMARK    7  A    between atoms: C9_15  and  C10_17
REMARK    8  A    between atoms: C10_17  and  C11_18
REMARK    9  A    between atoms: C10_17  and  N4_23
REMARK   10  A    between atoms: C11_18  and  C12_19
REMARK   11  A    between atoms: C12_19  and  C13_20
REMARK   12  A    between atoms: N4_23  and  C14_25
REMARK   13  A    between atoms: C14_25  and  C15_27
REMARK   14  A    between atoms: C15_27  and  C16_28
REMARK   15  A    between atoms: C15_27  and  N5_32
REMARK   16  A    between atoms: C16_28  and  S1_29
ROOT
HETATM    1  C8  UNL     1      12.293 -13.341  14.121  1.00  0.00     0.316 C
HETATM    2  O2  UNL     1      12.092 -12.236  14.686  1.00  0.00    -0.262 OA
HETATM    3  N2  UNL     1      13.643 -13.699  13.858  1.00  0.00    -0.288 N
ATOM      4  H2  UNL     1      13.835 -14.589  13.399  1.00  0.00     0.172 HD
HETATM    5  C9  UNL     1      14.739 -12.858  14.215  1.00  0.00     0.247 C
HETATM    6  O3  UNL     1      14.450 -11.784  14.784  1.00  0.00    -0.271 OA
ENDROOT
BRANCH   1   7
HETATM    7  C7  UNL     1      11.189 -14.215  13.750  1.00  0.00     0.310 C
HETATM    8  N1  UNL     1       9.916 -13.645  13.536  1.00  0.00    -0.348 N
ATOM      9  H1  UNL     1       9.812 -12.637  13.648  1.00  0.00     0.163 HD
HETATM   10  O1  UNL     1      11.411 -15.450  13.634  1.00  0.00    -0.262 OA
BRANCH   8  11
HETATM   11  C6  UNL     1       8.741 -14.424  13.163  1.00  0.00     0.090 C
BRANCH  11  12
HETATM   12  C5  UNL     1       7.663 -14.245  14.181  1.00  0.00     0.026 C
BRANCH  12  13
HETATM   13  C4  UNL     1       8.092 -14.683  15.568  1.00  0.00     0.006 C
BRANCH  13  14
HETATM   14  C2  UNL     1       8.069 -13.510  16.538  1.00  0.00    -0.023 C
HETATM   15  C1  UNL     1       9.489 -13.294  17.014  1.00  0.00     0.009 C
HETATM   16  C3  UNL     1       7.478 -12.277  15.895  1.00  0.00     0.009 C
ENDBRANCH  13  14
ENDBRANCH  12  13
ENDBRANCH  11  12
BRANCH  11  17
HETATM   17  C21 UNL     1       8.374 -14.092  11.769  1.00  0.00     0.036 C
HETATM   18  C22 UNL     1       9.268 -14.806  10.776  1.00  0.00     0.036 C
HETATM   19  C23 UNL     1       8.512 -16.136  10.645  1.00  0.00     0.232 C
HETATM   20  N6  UNL     1       7.124 -15.795  10.771  1.00  0.00    -0.075 N
HETATM   21  C24 UNL     1       7.026 -14.465  11.306  1.00  0.00     0.239 C
ATOM     22  H62 UNL     1       6.613 -15.903   9.894  1.00  0.00     0.277 HD
ATOM     23  H61 UNL     1       6.602 -16.478  11.322  1.00  0.00     0.277 HD
ENDBRANCH  11  17
ENDBRANCH   8  11
ENDBRANCH   1   7
BRANCH   5  24
HETATM   24  C10 UNL     1      16.117 -13.296  13.900  1.00  0.00     0.172 C
BRANCH  24  25
HETATM   25  C11 UNL     1      17.179 -12.288  14.158  1.00  0.00     0.043 C
BRANCH  25  26
HETATM   26  C12 UNL     1      17.759 -11.790  12.869  1.00  0.00     0.102 C
BRANCH  26  27
HETATM   27  C13 UNL     1      17.262 -10.408  12.630  1.00  0.00     0.231 C
HETATM   28  N3  UNL     1      17.355  -9.847  11.332  1.00  0.00    -0.062 NA
HETATM   29  O4  UNL     1      16.771  -9.765  13.580  1.00  0.00    -0.277 OA
ENDBRANCH  26  27
ENDBRANCH  25  26
ENDBRANCH  24  25
BRANCH  24  30
HETATM   30  N4  UNL     1      16.396 -14.627  14.387  1.00  0.00    -0.378 N
ATOM     31  H4  UNL     1      16.617 -15.399  13.758  1.00  0.00     0.157 HD
BRANCH  30  32
HETATM   32  C14 UNL     1      16.344 -14.792  15.800  1.00  0.00     0.297 C
HETATM   33  F1  UNL     1      17.578 -14.769  16.442  1.00  0.00    -0.225 F
BRANCH  32  34
HETATM   34  C15 UNL     1      15.546 -16.005  16.261  1.00  0.00     0.253 C
BRANCH  34  35
HETATM   35  C16 UNL     1      15.160 -16.710  14.965  1.00  0.00     0.146 C
BRANCH  35  36
HETATM   36  S1  UNL     1      15.881 -18.318  14.852  1.00  0.00     0.013 S
HETATM   37  C17 UNL     1      15.034 -19.484  15.895  1.00  0.00     0.127 C
HETATM   38  O5  UNL     1      15.782 -18.931  13.289  1.00  0.00    -0.258 OA
ENDBRANCH  35  36
ENDBRANCH  34  35
BRANCH  34  39
HETATM   39  N5  UNL     1      14.419 -15.750  17.075  1.00  0.00    -0.069 N
HETATM   40  C18 UNL     1      14.292 -14.417  17.588  1.00  0.00     0.272 C
HETATM   41  C19 UNL     1      13.137 -16.140  16.509  1.00  0.00     0.272 C
HETATM   42  C20 UNL     1      14.561 -16.599  18.282  1.00  0.00     0.272 C
ENDBRANCH  34  39
ENDBRANCH  32  34
ENDBRANCH  30  32
ENDBRANCH  24  30
ENDBRANCH   5  24
TORSDOF 16
ENDMDL