MODEL 5
REMARK VINA RESULT: -7.065880948      3.146      7.473
REMARK  16 active torsions:
REMARK  status: ('A' for Active; 'I' for Inactive)
REMARK    1  A    between atoms: C1_4  and  N2_5
REMARK    2  A    between atoms: C1_4  and  C2_8
REMARK    3  A    between atoms: C9_18  and  C10_19
REMARK    4  A    between atoms: C10_19  and  C11_20
REMARK    5  A    between atoms: C11_20  and  C12_21
REMARK    6  A    between atoms: C12_21  and  C13_22
REMARK    7  A    between atoms: C13_22  and  N4_23
REMARK    8  A    between atoms: N4_23  and  S1_25
REMARK    9  A    between atoms: S1_25  and  N5_28
REMARK   10  A    between atoms: N5_28  and  C14_30
REMARK   11  A    between atoms: C14_30  and  C15_31
REMARK   12  A    between atoms: C15_31  and  C16_32
REMARK   13  A    between atoms: C16_32  and  C17_33
REMARK   14  A    between atoms: C17_33  and  C18_34
REMARK   15  A    between atoms: C18_34  and  N6_35
REMARK       I    between atoms: N6_35  and  C19_37
REMARK   16  A    between atoms: C19_37  and  C20_39
ROOT
HETATM    1  C11 UNL     1      11.001 -13.706  14.174  1.00  0.00     0.002 C
ENDROOT
BRANCH   1   2
HETATM    2  C10 UNL     1      12.385 -13.163  14.257  1.00  0.00     0.017 C
BRANCH   2   3
HETATM    3  C9  UNL     1      13.114 -13.127  15.487  1.00  0.00     0.112 C
HETATM    4  C5  UNL     1      14.599 -13.508  15.457  1.00  0.00     0.075 C
HETATM    5  C4  UNL     1      15.096 -14.258  14.355  1.00  0.00     0.042 C
HETATM    6  C6  UNL     1      15.068 -13.851  16.840  1.00  0.00     0.058 C
HETATM    7  O5  UNL     1      15.216 -12.214  15.216  1.00  0.00    -0.366 OA
HETATM    8  C3  UNL     1      16.560 -13.805  14.233  1.00  0.00     0.043 C
HETATM    9  C2  UNL     1      16.508 -12.498  14.994  1.00  0.00     0.189 C
HETATM   10  C7  UNL     1      14.745 -12.789  17.828  1.00  0.00     0.125 C
HETATM   11  N3  UNL     1      13.872 -11.736  17.391  1.00  0.00    -0.361 N
HETATM   12  C8  UNL     1      12.989 -11.880  16.302  1.00  0.00     0.224 C
ATOM     13  H3  UNL     1      13.892 -10.846  17.890  1.00  0.00     0.162 HD
HETATM   14  O1  UNL     1      12.194 -11.098  15.947  1.00  0.00    -0.273 OA
BRANCH   9  15
HETATM   15  C1  UNL     1      17.220 -11.377  14.187  1.00  0.00     0.098 C
HETATM   16  N1  UNL     1      17.124 -10.179  14.567  1.00  0.00    -0.387 N
ATOM     17  H12 UNL     1      17.592  -9.444  14.038  1.00  0.00     0.157 HD
ATOM     18  H11 UNL     1      16.647  -9.830  15.398  1.00  0.00     0.157 HD
BRANCH  15  19
HETATM   19  N2  UNL     1      17.864 -11.850  13.064  1.00  0.00    -0.387 N
ATOM     20  H22 UNL     1      18.802 -11.465  12.951  1.00  0.00     0.157 HD
ATOM     21  H21 UNL     1      17.520 -12.539  12.396  1.00  0.00     0.157 HD
ENDBRANCH  15  19
ENDBRANCH   9  15
ENDBRANCH   2   3
ENDBRANCH   1   2
BRANCH   1  22
HETATM   22  C12 UNL     1      11.016 -14.293  12.815  1.00  0.00     0.020 C
BRANCH  22  23
HETATM   23  C13 UNL     1      10.054 -15.380  12.453  1.00  0.00     0.133 C
BRANCH  23  24
HETATM   24  N4  UNL     1       8.910 -14.745  11.903  1.00  0.00    -0.303 N
ATOM     25  H4  UNL     1       8.893 -14.263  11.004  1.00  0.00     0.173 HD
BRANCH  24  26
HETATM   26  S1  UNL     1       7.626 -14.886  12.896  1.00  0.00     0.314 S
HETATM   27  O2  UNL     1       6.355 -15.468  12.385  1.00  0.00    -0.183 OA
HETATM   28  O3  UNL     1       8.305 -16.300  13.750  1.00  0.00    -0.183 OA
BRANCH  26  29
HETATM   29  N5  UNL     1       7.293 -14.096  14.346  1.00  0.00    -0.303 N
ATOM     30  H5  UNL     1       6.564 -13.383  14.349  1.00  0.00     0.173 HD
BRANCH  29  31
HETATM   31  C14 UNL     1       7.991 -14.375  15.596  1.00  0.00     0.133 C
BRANCH  31  32
HETATM   32  C15 UNL     1       7.715 -12.905  16.099  1.00  0.00     0.021 C
BRANCH  32  33
HETATM   33  C16 UNL     1       8.043 -12.713  17.471  1.00  0.00     0.007 C
BRANCH  33  34
HETATM   34  C17 UNL     1       9.569 -12.763  17.765  1.00  0.00     0.044 C
BRANCH  34  35
HETATM   35  C18 UNL     1       9.804 -12.292  19.079  1.00  0.00     0.064 C
BRANCH  35  36
HETATM   36  N6  UNL     1      11.018 -12.506  19.848  1.00  0.00    -0.340 N
HETATM   37  C19 UNL     1      11.984 -11.526  20.035  1.00  0.00     0.231 C
HETATM   38  O4  UNL     1      12.037 -10.393  19.429  1.00  0.00    -0.272 OA
ATOM     39  H6  UNL     1      11.168 -13.422  20.271  1.00  0.00     0.167 HD
BRANCH  37  40
HETATM   40  C20 UNL     1      12.969 -11.770  21.052  1.00  0.00     0.188 C
HETATM   41 BR1  UNL     1      13.221 -13.651  21.432  1.00  0.00    -0.087 Br
ENDBRANCH  37  40
ENDBRANCH  35  36
ENDBRANCH  34  35
ENDBRANCH  33  34
ENDBRANCH  32  33
ENDBRANCH  31  32
ENDBRANCH  29  31
ENDBRANCH  26  29
ENDBRANCH  24  26
ENDBRANCH  23  24
ENDBRANCH  22  23
ENDBRANCH   1  22
TORSDOF 16
ENDMDL