MODEL 4
REMARK VINA RESULT: -6.768562685      2.480      3.664
REMARK  18 active torsions:
REMARK  status: ('A' for Active; 'I' for Inactive)
REMARK    1  A    between atoms: C2_2  and  C3_3
REMARK    2  A    between atoms: C3_3  and  C4_4
REMARK    3  A    between atoms: C4_4  and  N1_5
REMARK       I    between atoms: N1_5  and  C5_7
REMARK    4  A    between atoms: C5_7  and  C6_9
REMARK    5  A    between atoms: C6_9  and  N2_10
REMARK    6  A    between atoms: C9_16  and  C10_17
REMARK    7  A    between atoms: C10_17  and  C11_18
REMARK    8  A    between atoms: C11_18  and  C12_19
REMARK    9  A    between atoms: C12_19  and  C13_20
REMARK   10  A    between atoms: C13_20  and  S1_21
REMARK   11  A    between atoms: S1_21  and  N4_22
REMARK   12  A    between atoms: S1_21  and  N5_26
REMARK       I    between atoms: N5_26  and  C14_28
REMARK   13  A    between atoms: C14_28  and  C15_30
REMARK   14  A    between atoms: C15_30  and  C16_31
REMARK   15  A    between atoms: C16_31  and  C17_32
REMARK   16  A    between atoms: C17_32  and  N6_33
REMARK   17  A    between atoms: C18_35  and  N7_37
REMARK   18  A    between atoms: N7_37  and  N8_39
ROOT
HETATM    1  C13 UNL     1      10.922 -12.856  16.851  1.00  0.00     0.139 C
ENDROOT
BRANCH   1   2
HETATM    2  C12 UNL     1      11.884 -13.915  17.245  1.00  0.00     0.015 C
BRANCH   2   3
HETATM    3  C11 UNL     1      13.051 -13.382  18.023  1.00  0.00     0.004 C
BRANCH   3   4
HETATM    4  C10 UNL     1      14.307 -13.817  17.319  1.00  0.00     0.035 C
BRANCH   4   5
HETATM    5  C9  UNL     1      14.360 -15.287  16.986  1.00  0.00     0.176 C
HETATM    6  N3  UNL     1      15.413 -15.976  17.703  1.00  0.00    -0.346 N
HETATM    7  C8  UNL     1      16.724 -15.973  17.171  1.00  0.00     0.236 C
ATOM      8  H3  UNL     1      15.212 -16.458  18.579  1.00  0.00     0.163 HD
HETATM    9  C7  UNL     1      17.123 -15.063  16.096  1.00  0.00     0.229 C
HETATM   10  O2  UNL     1      17.581 -16.796  17.654  1.00  0.00    -0.272 OA
HETATM   11  N2  UNL     1      16.024 -14.877  15.132  1.00  0.00    -0.333 N
HETATM   12  C22 UNL     1      14.746 -15.327  15.517  1.00  0.00     0.243 C
HETATM   13  O5  UNL     1      13.928 -15.759  14.680  1.00  0.00    -0.271 OA
BRANCH  11  14
HETATM   14  C6  UNL     1      16.292 -14.250  13.866  1.00  0.00     0.229 C
BRANCH  14  15
HETATM   15  C5  UNL     1      16.034 -12.783  13.888  1.00  0.00     0.239 C
HETATM   16  N1  UNL     1      17.106 -11.891  14.034  1.00  0.00    -0.336 N
ATOM     17  H1  UNL     1      18.046 -12.276  14.135  1.00  0.00     0.168 HD
HETATM   18  O1  UNL     1      14.816 -12.464  13.767  1.00  0.00    -0.271 OA
BRANCH  16  19
HETATM   19  C4  UNL     1      16.952 -10.483  14.047  1.00  0.00     0.087 C
BRANCH  19  20
HETATM   20  C3  UNL     1      16.499  -9.740  12.870  1.00  0.00    -0.010 C
BRANCH  20  21
HETATM   21  C2  UNL     1      17.231  -9.695  11.607  1.00  0.00     0.024 C
HETATM   22  C1  UNL     1      17.037  -8.249  11.054  1.00  0.00     0.009 C
ENDBRANCH  20  21
ENDBRANCH  19  20
ENDBRANCH  16  19
ENDBRANCH  14  15
ENDBRANCH  11  14
ENDBRANCH   4   5
ENDBRANCH   3   4
ENDBRANCH   2   3
ENDBRANCH   1   2
BRANCH   1  23
HETATM   23  S1  UNL     1      11.472 -12.069  15.347  1.00  0.00     0.106 S
HETATM   24  O3  UNL     1      12.558 -11.115  15.597  1.00  0.00    -0.229 OA
BRANCH  23  25
HETATM   25  N4  UNL     1      10.235 -11.243  14.835  1.00  0.00    -0.345 N
ATOM     26  H42 UNL     1       9.569 -11.527  14.117  1.00  0.00     0.167 HD
ATOM     27  H41 UNL     1      10.250 -10.376  15.373  1.00  0.00     0.167 HD
ENDBRANCH  23  25
BRANCH  23  28
HETATM   28  N5  UNL     1      11.845 -13.333  14.251  1.00  0.00    -0.271 N
HETATM   29  C14 UNL     1      10.829 -14.026  13.571  1.00  0.00     0.229 C
HETATM   30  O4  UNL     1       9.601 -13.747  13.751  1.00  0.00    -0.273 OA
ATOM     31  H5  UNL     1      12.819 -13.587  14.090  1.00  0.00     0.180 HD
BRANCH  29  32
HETATM   32  C15 UNL     1      11.217 -15.092  12.636  1.00  0.00     0.105 C
BRANCH  32  33
HETATM   33  C16 UNL     1      11.038 -14.702  11.221  1.00  0.00     0.029 C
BRANCH  33  34
HETATM   34  C17 UNL     1       9.785 -15.288  10.640  1.00  0.00     0.124 C
BRANCH  34  35
HETATM   35  N6  UNL     1       8.635 -14.478  10.826  1.00  0.00    -0.351 N
HETATM   36  C18 UNL     1       7.527 -14.911  11.261  1.00  0.00     0.281 C
HETATM   37  F1  UNL     1       6.510 -14.027  11.394  1.00  0.00    -0.164 F
ATOM     38  H6  UNL     1       8.705 -13.487  10.597  1.00  0.00     0.163 HD
BRANCH  36  39
HETATM   39  N7  UNL     1       7.363 -16.274  11.600  1.00  0.00    -0.177 N
ATOM     40  H7  UNL     1       7.906 -16.678  12.364  1.00  0.00     0.198 HD
BRANCH  39  41
HETATM   41  N8  UNL     1       6.462 -17.067  10.892  1.00  0.00     0.003 N
HETATM   42  C19 UNL     1       6.873 -18.461  11.040  1.00  0.00     0.301 C
HETATM   43  C20 UNL     1       6.476 -16.677   9.500  1.00  0.00     0.301 C
HETATM   44  C21 UNL     1       5.123 -16.994  11.454  1.00  0.00     0.301 C
ENDBRANCH  39  41
ENDBRANCH  36  39
ENDBRANCH  34  35
ENDBRANCH  33  34
ENDBRANCH  32  33
ENDBRANCH  29  32
ENDBRANCH  23  28
ENDBRANCH   1  23
TORSDOF 18
ENDMDL