MODEL 3
REMARK VINA RESULT: -7.388447274      2.292      7.970
REMARK  19 active torsions:
REMARK  status: ('A' for Active; 'I' for Inactive)
REMARK    1  A    between atoms: C3_3  and  C4_4
REMARK    2  A    between atoms: C4_4  and  C5_5
REMARK       I    between atoms: C5_5  and  N1_7
REMARK    3  A    between atoms: N1_7  and  C6_9
REMARK    4  A    between atoms: C6_9  and  C7_10
REMARK    5  A    between atoms: C6_9  and  C8_13
REMARK    6  A    between atoms: C8_13  and  N3_15
REMARK       I    between atoms: N3_15  and  C10_17
REMARK    7  A    between atoms: C10_17  and  C11_19
REMARK    8  A    between atoms: C11_19  and  N4_20
REMARK    9  A    between atoms: C11_19  and  C24_43
REMARK       I    between atoms: N4_20  and  C12_22
REMARK   10  A    between atoms: C12_22  and  C13_24
REMARK   11  A    between atoms: C13_24  and  C14_26
REMARK   12  A    between atoms: C14_26  and  C15_27
REMARK       I    between atoms: C15_27  and  N5_29
REMARK   13  A    between atoms: N5_29  and  C16_31
REMARK   14  A    between atoms: C16_31  and  C17_32
REMARK   15  A    between atoms: C16_31  and  C21_40
REMARK   16  A    between atoms: C17_32  and  O7_33
REMARK   17  A    between atoms: C17_32  and  N6_35
REMARK   18  A    between atoms: N6_35  and  C18_37
REMARK   19  A    between atoms: C18_37  and  C19_38
ROOT
HETATM    1  C1  UNL     1      16.648  -7.721  10.934  1.00  0.00     0.012 C
HETATM    2  C2  UNL     1      17.088  -8.809  11.265  1.00  0.00    -0.117 C
HETATM    3  C3  UNL     1      17.607 -10.102  11.663  1.00  0.00     0.102 C
ENDROOT
BRANCH   3   4
HETATM    4  C4  UNL     1      17.408 -10.338  13.155  1.00  0.00     0.115 C
BRANCH   4   5
HETATM    5  C5  UNL     1      16.658 -11.581  13.424  1.00  0.00     0.219 C
HETATM    6  O1  UNL     1      16.985 -12.661  12.855  1.00  0.00    -0.274 OA
HETATM    7  N1  UNL     1      15.575 -11.579  14.313  1.00  0.00    -0.346 N
ATOM      8  H1  UNL     1      15.337 -10.693  14.759  1.00  0.00     0.163 HD
BRANCH   7   9
HETATM    9  C6  UNL     1      14.765 -12.731  14.651  1.00  0.00     0.196 C
BRANCH   9  10
HETATM   10  C7  UNL     1      13.347 -12.543  14.322  1.00  0.00     0.256 C
HETATM   11  N2  UNL     1      12.530 -13.401  13.581  1.00  0.00    -0.060 NA
HETATM   12  O2  UNL     1      12.814 -11.466  14.767  1.00  0.00    -0.274 OA
ENDBRANCH   9  10
BRANCH   9  13
HETATM   13  C8  UNL     1      14.986 -13.087  16.098  1.00  0.00     0.112 C
HETATM   14  C9  UNL     1      15.996 -14.245  16.153  1.00  0.00     0.034 C
BRANCH  13  15
HETATM   15  N3  UNL     1      13.746 -13.462  16.790  1.00  0.00    -0.349 N
HETATM   16  C10 UNL     1      13.216 -12.632  17.783  1.00  0.00     0.264 C
HETATM   17  O3  UNL     1      13.901 -11.562  18.025  1.00  0.00    -0.266 OA
ATOM     18  H3  UNL     1      13.270 -14.331  16.546  1.00  0.00     0.163 HD
BRANCH  16  19
HETATM   19  C11 UNL     1      12.012 -12.772  18.601  1.00  0.00     0.084 C
BRANCH  19  20
HETATM   20  N4  UNL     1      10.785 -12.600  17.902  1.00  0.00    -0.319 N
HETATM   21  C12 UNL     1      10.292 -13.386  16.840  1.00  0.00     0.292 C
HETATM   22  O4  UNL     1      10.978 -14.349  16.419  1.00  0.00    -0.264 OA
ATOM     23  H4  UNL     1      10.196 -11.822  18.202  1.00  0.00     0.169 HD
BRANCH  21  24
HETATM   24  C13 UNL     1       9.017 -13.145  16.188  1.00  0.00     0.225 C
HETATM   25  O5  UNL     1       8.779 -11.990  15.765  1.00  0.00    -0.287 OA
BRANCH  24  26
HETATM   26  C14 UNL     1       8.039 -14.208  16.030  1.00  0.00     0.191 C
BRANCH  26  27
HETATM   27  C15 UNL     1       7.984 -14.822  14.696  1.00  0.00     0.225 C
HETATM   28  O6  UNL     1       8.379 -16.014  14.573  1.00  0.00    -0.273 OA
HETATM   29  N5  UNL     1       7.511 -14.134  13.553  1.00  0.00    -0.348 N
ATOM     30  H5  UNL     1       7.181 -13.174  13.663  1.00  0.00     0.163 HD
BRANCH  29  31
HETATM   31  C16 UNL     1       7.476 -14.742  12.214  1.00  0.00     0.162 C
BRANCH  31  32
HETATM   32  C17 UNL     1       6.068 -14.966  11.813  1.00  0.00     0.135 C
BRANCH  32  33
HETATM   33  O7  UNL     1       5.190 -14.130  12.289  1.00  0.00    -0.348 OA
ATOM     34  H7  UNL     1       4.289 -14.431  12.310  1.00  0.00     0.219 HD
ENDBRANCH  32  33
BRANCH  32  35
HETATM   35  N6  UNL     1       5.540 -15.958  10.984  1.00  0.00    -0.369 N
ATOM     36  H6  UNL     1       5.358 -15.754  10.001  1.00  0.00     0.161 HD
BRANCH  35  37
HETATM   37  C18 UNL     1       5.243 -17.297  11.522  1.00  0.00     0.148 C
BRANCH  37  38
HETATM   38  C19 UNL     1       3.844 -17.673  11.188  1.00  0.00    -0.018 C
HETATM   39  C20 UNL     1       2.816 -17.293  11.926  1.00  0.00     0.008 C
ENDBRANCH  37  38
ENDBRANCH  35  37
ENDBRANCH  32  35
ENDBRANCH  31  32
BRANCH  31  40
HETATM   40  C21 UNL     1       8.360 -14.056  11.264  1.00  0.00     0.008 C
HETATM   41  C22 UNL     1       7.778 -13.638   9.962  1.00  0.00     0.012 C
HETATM   42  C23 UNL     1       9.653 -14.784  11.066  1.00  0.00     0.012 C
ENDBRANCH  31  40
ENDBRANCH  29  31
ENDBRANCH  26  27
ENDBRANCH  24  26
ENDBRANCH  21  24
ENDBRANCH  19  20
BRANCH  19  43
HETATM   43  C24 UNL     1      12.142 -12.176  19.943  1.00  0.00     0.033 C
HETATM   44  C25 UNL     1      11.873 -13.167  21.040  1.00  0.00     0.016 C
HETATM   45  C26 UNL     1      11.374 -10.895  20.107  1.00  0.00     0.016 C
ENDBRANCH  19  43
ENDBRANCH  16  19
ENDBRANCH  13  15
ENDBRANCH   9  13
ENDBRANCH   7   9
ENDBRANCH   4   5
ENDBRANCH   3   4
TORSDOF 19
ENDMDL