MODEL 5
REMARK VINA RESULT: -7.762369592      2.995      5.705
REMARK  18 active torsions:
REMARK  status: ('A' for Active; 'I' for Inactive)
REMARK    1  A    between atoms: C2_2  and  C3_3
REMARK    2  A    between atoms: C3_3  and  C4_4
REMARK    3  A    between atoms: C4_4  and  N1_5
REMARK    4  A    between atoms: C4_4  and  C5_12
REMARK    5  A    between atoms: N1_5  and  N2_7
REMARK    6  A    between atoms: C5_12  and  N4_13
REMARK    7  A    between atoms: C5_12  and  C12_29
REMARK    8  A    between atoms: N4_13  and  C6_15
REMARK    9  A    between atoms: C6_15  and  O1_16
REMARK   10  A    between atoms: C6_15  and  C7_18
REMARK   11  A    between atoms: C7_18  and  C8_20
REMARK       I    between atoms: C8_20  and  N5_22
REMARK   12  A    between atoms: N5_22  and  C9_24
REMARK   13  A    between atoms: C9_24  and  C10_25
REMARK   14  A    between atoms: C10_25  and  C11_26
REMARK   15  A    between atoms: C12_29  and  C13_31
REMARK   16  A    between atoms: C13_31  and  C14_32
REMARK   17  A    between atoms: N6_40  and  C21_41
REMARK   18  A    between atoms: C21_41  and  C22_42
ROOT
HETATM    1  C5  UNL     1      13.795 -12.635  16.112  1.00  0.00     0.078 C
ENDROOT
BRANCH   1   2
HETATM    2  C4  UNL     1      15.170 -13.089  15.877  1.00  0.00     0.154 C
BRANCH   2   3
HETATM    3  C3  UNL     1      15.333 -14.440  15.186  1.00  0.00     0.042 C
BRANCH   3   4
HETATM    4  C2  UNL     1      15.910 -15.440  16.212  1.00  0.00    -0.042 A
HETATM    5  C1  UNL     1      14.853 -15.936  17.189  1.00  0.00     0.015 C
HETATM    6  C25 UNL     1      16.744 -16.545  15.638  1.00  0.00     0.010 A
HETATM    7  C26 UNL     1      17.307 -15.508  16.578  1.00  0.00     0.010 A
ENDBRANCH   3   4
ENDBRANCH   2   3
BRANCH   2   8
HETATM    8  N1  UNL     1      16.055 -12.095  15.296  1.00  0.00    -0.312 N
ATOM      9  H1  UNL     1      16.546 -12.325  14.432  1.00  0.00     0.182 HD
BRANCH   8  10
HETATM   10  N2  UNL     1      16.263 -10.845  15.866  1.00  0.00    -0.253 N
HETATM   11  N3  UNL     1      16.567  -9.829  15.221  1.00  0.00    -0.331 N
ATOM     12  H32 UNL     1      16.666  -9.936  14.212  1.00  0.00     0.178 HD
ATOM     13  H31 UNL     1      16.719  -8.912  15.639  1.00  0.00     0.178 HD
ATOM     14  H2  UNL     1      16.159 -10.756  16.877  1.00  0.00     0.207 HD
ENDBRANCH   8  10
ENDBRANCH   2   8
ENDBRANCH   1   2
BRANCH   1  15
HETATM   15  N4  UNL     1      13.523 -11.999  17.345  1.00  0.00    -0.360 N
ATOM     16  H4  UNL     1      14.327 -11.684  17.887  1.00  0.00     0.162 HD
BRANCH  15  17
HETATM   17  C6  UNL     1      12.272 -11.762  17.889  1.00  0.00     0.261 C
BRANCH  17  18
HETATM   18  O1  UNL     1      12.375 -10.730  18.898  1.00  0.00    -0.373 OA
ATOM     19  H1  UNL     1      12.108  -9.898  18.525  1.00  0.00     0.212 HD
ENDBRANCH  17  18
BRANCH  17  20
HETATM   20  C7  UNL     1      11.348 -12.807  18.363  1.00  0.00     0.309 C
HETATM   21  F1  UNL     1      11.763 -14.069  17.897  1.00  0.00    -0.235 F
BRANCH  20  22
HETATM   22  C8  UNL     1      11.565 -12.927  19.861  1.00  0.00     0.256 C
HETATM   23  O2  UNL     1      10.608 -12.590  20.598  1.00  0.00    -0.270 OA
HETATM   24  N5  UNL     1      12.771 -13.384  20.414  1.00  0.00    -0.358 N
ATOM     25  H5  UNL     1      13.527 -13.652  19.784  1.00  0.00     0.162 HD
BRANCH  24  26
HETATM   26  C9  UNL     1      12.988 -13.493  21.842  1.00  0.00     0.133 C
BRANCH  26  27
HETATM   27  C10 UNL     1      13.196 -12.140  22.497  1.00  0.00     0.133 C
BRANCH  27  28
HETATM   28  C11 UNL     1      14.459 -11.560  22.001  1.00  0.00     0.174 C
HETATM   29  O3  UNL     1      15.481 -11.589  22.720  1.00  0.00    -0.648 OA
HETATM   30  O4  UNL     1      14.534 -10.982  20.748  1.00  0.00    -0.648 OA
ENDBRANCH  27  28
ENDBRANCH  26  27
ENDBRANCH  24  26
ENDBRANCH  20  22
ENDBRANCH  17  20
ENDBRANCH  15  17
ENDBRANCH   1  15
BRANCH   1  31
HETATM   31  C12 UNL     1      13.051 -11.983  15.002  1.00  0.00     0.175 C
HETATM   32  O5  UNL     1      13.592 -10.899  14.624  1.00  0.00    -0.291 OA
BRANCH  31  33
HETATM   33  C13 UNL     1      11.841 -12.372  14.299  1.00  0.00     0.120 C
BRANCH  33  34
HETATM   34  C14 UNL     1      11.659 -13.879  14.320  1.00  0.00     0.231 C
HETATM   35  C15 UNL     1      11.652 -14.489  12.972  1.00  0.00     0.043 C
HETATM   36  C16 UNL     1      10.784 -15.719  13.141  1.00  0.00     0.028 C
HETATM   37  C17 UNL     1      11.605 -16.985  12.954  1.00  0.00     0.085 C
HETATM   38  C20 UNL     1      10.443 -15.707  14.635  1.00  0.00     0.234 C
HETATM   39  C18 UNL     1      12.382 -17.082  14.244  1.00  0.00     0.129 C
HETATM   40  O6  UNL     1      13.466 -17.623  14.306  1.00  0.00    -0.298 OA
HETATM   41  C19 UNL     1      11.605 -16.433  15.321  1.00  0.00     0.114 C
HETATM   42  N6  UNL     1      10.426 -14.325  14.939  1.00  0.00     0.099 N
BRANCH  42  43
HETATM   43  C21 UNL     1       9.304 -13.598  14.509  1.00  0.00     0.278 C
BRANCH  43  44
HETATM   44  C22 UNL     1       8.085 -13.578  15.319  1.00  0.00     0.014 A
HETATM   45  C23 UNL     1       7.659 -12.440  16.232  1.00  0.00     0.007 A
HETATM   46  C24 UNL     1       8.087 -13.770  16.805  1.00  0.00     0.007 A
ENDBRANCH  43  44
ENDBRANCH  42  43
ENDBRANCH  33  34
ENDBRANCH  31  33
ENDBRANCH   1  31
TORSDOF 18
ENDMDL