MODEL 4
REMARK VINA RESULT: -7.174132574      3.846      7.922
REMARK  16 active torsions:
REMARK  status: ('A' for Active; 'I' for Inactive)
REMARK    1  A    between atoms: N1_2  and  C2_5
REMARK    2  A    between atoms: C2_5  and  C3_6
REMARK    3  A    between atoms: C3_6  and  C4_7
REMARK    4  A    between atoms: C4_7  and  C5_8
REMARK    5  A    between atoms: C5_8  and  C6_9
REMARK    6  A    between atoms: C6_9  and  N2_10
REMARK       I    between atoms: N2_10  and  C7_12
REMARK    7  A    between atoms: C7_12  and  C8_14
REMARK    8  A    between atoms: C8_14  and  N3_15
REMARK       I    between atoms: N3_15  and  C9_17
REMARK    9  A    between atoms: C9_17  and  C10_19
REMARK   10  A    between atoms: C10_19  and  N4_20
REMARK   11  A    between atoms: C12_23  and  N5_24
REMARK       I    between atoms: N5_24  and  C13_26
REMARK   12  A    between atoms: C13_26  and  C14_28
REMARK   13  A    between atoms: C14_28  and  N6_29
REMARK   14  A    between atoms: N6_29  and  C15_32
REMARK   15  A    between atoms: C15_32  and  C16_33
REMARK       I    between atoms: N7_40  and  C23_41
REMARK   16  A    between atoms: C23_41  and  C24_43
ROOT
HETATM    1  N4  UNL     1      14.759 -13.925  15.324  1.00  0.00    -0.245 N
HETATM    2  C11 UNL     1      13.650 -13.745  14.460  1.00  0.00     0.262 C
HETATM    3  O3  UNL     1      13.509 -12.588  13.900  1.00  0.00    -0.269 OA
HETATM    4  C12 UNL     1      12.688 -14.814  14.199  1.00  0.00     0.188 C
HETATM    5  C19 UNL     1      13.215 -16.161  14.514  1.00  0.00    -0.000 C
HETATM    6  C20 UNL     1      12.610 -16.608  15.861  1.00  0.00     0.019 C
HETATM    7  C21 UNL     1      12.723 -17.205  13.483  1.00  0.00     0.019 C
HETATM    8  C22 UNL     1      14.677 -16.272  14.622  1.00  0.00     0.164 C
HETATM    9  N7  UNL     1      15.372 -15.190  15.267  1.00  0.00    -0.252 N
HETATM   10  C23 UNL     1      16.658 -15.453  15.846  1.00  0.00     0.262 C
HETATM   11  O5  UNL     1      17.344 -14.637  16.478  1.00  0.00    -0.267 OA
ENDROOT
BRANCH   1  12
HETATM   12  C10 UNL     1      15.193 -12.901  16.207  1.00  0.00     0.255 C
BRANCH  12  13
HETATM   13  C9  UNL     1      14.474 -12.865  17.484  1.00  0.00     0.237 C
HETATM   14  N3  UNL     1      13.781 -11.722  17.927  1.00  0.00    -0.351 N
ATOM     15  H3  UNL     1      13.797 -10.883  17.348  1.00  0.00     0.163 HD
HETATM   16  O2  UNL     1      14.446 -13.892  18.254  1.00  0.00    -0.272 OA
BRANCH  14  17
HETATM   17  C8  UNL     1      13.054 -11.696  19.166  1.00  0.00     0.225 C
BRANCH  17  18
HETATM   18  C7  UNL     1      13.894 -11.089  20.250  1.00  0.00     0.235 C
HETATM   19  N2  UNL     1      14.060 -11.876  21.454  1.00  0.00    -0.360 N
ATOM     20  H2  UNL     1      13.606 -12.789  21.498  1.00  0.00     0.162 HD
HETATM   21  O1  UNL     1      14.405 -10.007  20.131  1.00  0.00    -0.272 OA
BRANCH  19  22
HETATM   22  C6  UNL     1      14.838 -11.441  22.605  1.00  0.00     0.122 C
BRANCH  22  23
HETATM   23  C5  UNL     1      14.991 -12.533  23.582  1.00  0.00     0.020 C
BRANCH  23  24
HETATM   24  C4  UNL     1      16.137 -12.568  24.497  1.00  0.00     0.003 C
BRANCH  24  25
HETATM   25  C3  UNL     1      17.368 -11.845  24.168  1.00  0.00     0.027 C
BRANCH  25  26
HETATM   26  C2  UNL     1      18.613 -12.568  23.796  1.00  0.00     0.231 C
BRANCH  26  27
HETATM   27  N1  UNL     1      19.655 -11.523  23.660  1.00  0.00    -0.079 N
HETATM   28  C1  UNL     1      20.221 -11.112  24.897  1.00  0.00     0.266 C
ATOM     29  H12 UNL     1      19.293 -10.719  23.146  1.00  0.00     0.276 HD
ATOM     30  H11 UNL     1      20.384 -11.825  23.015  1.00  0.00     0.276 HD
ENDBRANCH  26  27
ENDBRANCH  25  26
ENDBRANCH  24  25
ENDBRANCH  23  24
ENDBRANCH  22  23
ENDBRANCH  19  22
ENDBRANCH  17  18
ENDBRANCH  14  17
ENDBRANCH  12  13
ENDBRANCH   1  12
BRANCH   4  31
HETATM   31  N5  UNL     1      11.399 -14.511  14.807  1.00  0.00    -0.345 N
HETATM   32  C13 UNL     1      10.176 -14.258  14.199  1.00  0.00     0.244 C
HETATM   33  O4  UNL     1      10.031 -14.284  12.971  1.00  0.00    -0.272 OA
ATOM     34  H5  UNL     1      11.393 -14.482  15.826  1.00  0.00     0.163 HD
BRANCH  32  35
HETATM   35  C14 UNL     1       8.983 -13.948  15.017  1.00  0.00     0.334 C
BRANCH  35  36
HETATM   36  N6  UNL     1       8.945 -12.540  15.441  1.00  0.00    -0.067 N
ATOM     37  H62 UNL     1       9.813 -12.232  15.881  1.00  0.00     0.277 HD
ATOM     38  H61 UNL     1       8.956 -11.887  14.657  1.00  0.00     0.277 HD
BRANCH  36  39
HETATM   39  C15 UNL     1       7.768 -12.376  16.310  1.00  0.00     0.237 C
BRANCH  39  40
HETATM   40  C16 UNL     1       8.008 -13.033  17.622  1.00  0.00     0.011 A
HETATM   41  C17 UNL     1       7.879 -12.264  18.933  1.00  0.00     0.007 A
HETATM   42  C18 UNL     1       9.213 -12.544  18.390  1.00  0.00     0.007 A
ENDBRANCH  39  40
ENDBRANCH  36  39
ENDBRANCH  35  36
ENDBRANCH  32  35
ENDBRANCH   4  31
BRANCH  10  43
HETATM   43  C24 UNL     1      17.261 -16.784  15.703  1.00  0.00     0.088 C
HETATM   44  C25 UNL     1      17.496 -17.557  16.734  1.00  0.00     0.090 C
HETATM   45 CL1  UNL     1      18.207 -19.123  16.528  1.00  0.00    -0.097 Cl
ENDBRANCH  10  43
TORSDOF 16
ENDMDL