MODEL 4
REMARK VINA RESULT: -7.388401358      2.395      2.926
REMARK  15 active torsions:
REMARK  status: ('A' for Active; 'I' for Inactive)
REMARK    1  A    between atoms: C2_2  and  C3_3
REMARK    2  A    between atoms: C3_3  and  N1_4
REMARK    3  A    between atoms: C3_3  and  C16_30
REMARK    4  A    between atoms: N1_4  and  S1_6
REMARK    5  A    between atoms: S1_6  and  N2_9
REMARK    6  A    between atoms: N2_9  and  C4_11
REMARK    7  A    between atoms: C4_11  and  C5_12
REMARK    8  A    between atoms: C4_11  and  C7_14
REMARK       I    between atoms: C7_14  and  N3_16
REMARK    9  A    between atoms: C10_22  and  C11_23
REMARK       I    between atoms: C11_23  and  N5_25
REMARK   10  A    between atoms: N5_25  and  C12_26
REMARK   11  A    between atoms: C12_26  and  C13_27
REMARK       I    between atoms: C16_30  and  N6_32
REMARK   12  A    between atoms: N6_32  and  C17_34
REMARK   13  A    between atoms: C17_34  and  C18_35
REMARK   14  A    between atoms: C17_34  and  C20_38
REMARK   15  A    between atoms: C18_35  and  C19_36
ROOT
HETATM    1  N2  UNL     1      10.182 -12.564  15.764  1.00  0.00    -0.289 N
ATOM      2  H2  UNL     1       9.575 -11.745  15.733  1.00  0.00     0.174 HD
ENDROOT
BRANCH   1   3
HETATM    3  S1  UNL     1      11.890 -12.468  15.743  1.00  0.00     0.316 S
HETATM    4  O1  UNL     1      12.235 -12.296  14.240  1.00  0.00    -0.183 OA
HETATM    5  O2  UNL     1      12.414 -11.156  16.316  1.00  0.00    -0.183 OA
BRANCH   3   6
HETATM    6  N1  UNL     1      12.763 -13.823  16.222  1.00  0.00    -0.289 N
ATOM      7  H1  UNL     1      12.561 -14.297  17.103  1.00  0.00     0.174 HD
BRANCH   6   8
HETATM    8  C3  UNL     1      13.785 -14.282  15.364  1.00  0.00     0.186 C
BRANCH   8   9
HETATM    9  C2  UNL     1      14.330 -15.601  15.820  1.00  0.00     0.031 C
HETATM   10  C1  UNL     1      14.852 -16.397  14.643  1.00  0.00     0.007 C
ENDBRANCH   8   9
BRANCH   8  11
HETATM   11  C16 UNL     1      14.949 -13.293  15.280  1.00  0.00     0.241 C
HETATM   12  O6  UNL     1      15.552 -13.126  16.338  1.00  0.00    -0.271 OA
HETATM   13  N6  UNL     1      15.246 -12.670  14.088  1.00  0.00    -0.345 N
ATOM     14  H6  UNL     1      14.713 -12.832  13.234  1.00  0.00     0.163 HD
BRANCH  13  15
HETATM   15  C17 UNL     1      16.435 -11.717  14.149  1.00  0.00     0.186 C
BRANCH  15  16
HETATM   16  C18 UNL     1      17.104 -11.958  12.840  1.00  0.00     0.051 C
BRANCH  16  17
HETATM   17  C19 UNL     1      17.955 -10.918  12.231  1.00  0.00     0.117 C
HETATM   18 CL1  UNL     1      17.196  -9.676  11.279  1.00  0.00    -0.130 Cl
ENDBRANCH  16  17
ENDBRANCH  15  16
BRANCH  15  19
HETATM   19  C20 UNL     1      15.892 -10.365  14.349  1.00  0.00     0.196 C
HETATM   20  O7  UNL     1      16.582  -9.625  15.261  1.00  0.00    -0.646 OA
HETATM   21  O8  UNL     1      14.872  -9.708  13.833  1.00  0.00    -0.646 OA
ENDBRANCH  15  19
ENDBRANCH  13  15
ENDBRANCH   8  11
ENDBRANCH   6   8
ENDBRANCH   3   6
ENDBRANCH   1   3
BRANCH   1  22
HETATM   22  C4  UNL     1       9.676 -13.932  15.830  1.00  0.00     0.186 C
BRANCH  22  23
HETATM   23  C5  UNL     1       8.292 -13.926  16.465  1.00  0.00     0.031 C
HETATM   24  C6  UNL     1       7.976 -12.747  17.313  1.00  0.00     0.007 C
ENDBRANCH  22  23
BRANCH  22  25
HETATM   25  C7  UNL     1       9.709 -14.512  14.484  1.00  0.00     0.245 C
HETATM   26  O3  UNL     1       9.189 -13.844  13.516  1.00  0.00    -0.271 OA
HETATM   27  N3  UNL     1      10.253 -15.764  14.079  1.00  0.00    -0.311 N
HETATM   28  C8  UNL     1      10.964 -16.669  14.965  1.00  0.00     0.253 C
HETATM   29  C10 UNL     1      10.204 -16.381  12.792  1.00  0.00     0.288 C
HETATM   30  N4  UNL     1      11.379 -17.812  14.088  1.00  0.00    -0.343 N
HETATM   31  C9  UNL     1      11.489 -17.176  12.775  1.00  0.00     0.252 C
ATOM     32  H4  UNL     1      11.544 -18.786  14.343  1.00  0.00     0.164 HD
HETATM   33  O4  UNL     1      12.403 -17.308  11.984  1.00  0.00    -0.271 OA
BRANCH  29  34
HETATM   34  C11 UNL     1      10.080 -15.541  11.570  1.00  0.00     0.319 C
HETATM   35  O5  UNL     1      11.088 -14.813  11.368  1.00  0.00    -0.255 OA
HETATM   36  N5  UNL     1       8.963 -15.649  10.839  1.00  0.00    -0.413 NA
BRANCH  36  37
HETATM   37  C12 UNL     1       7.806 -15.728  10.040  1.00  0.00     0.225 C
BRANCH  37  38
HETATM   38  C13 UNL     1       6.975 -14.431   9.992  1.00  0.00     0.008 C
HETATM   39  C14 UNL     1       7.800 -13.239   9.603  1.00  0.00     0.012 C
HETATM   40  C15 UNL     1       6.336 -14.141  11.329  1.00  0.00     0.012 C
ENDBRANCH  37  38
ENDBRANCH  36  37
ENDBRANCH  29  34
ENDBRANCH  22  25
ENDBRANCH   1  22
TORSDOF 15
ENDMDL