MODEL 2
REMARK VINA RESULT: -6.843973063      2.750      6.908
REMARK  18 active torsions:
REMARK  status: ('A' for Active; 'I' for Inactive)
REMARK    1  A    between atoms: C2_2  and  N1_3
REMARK       I    between atoms: N1_3  and  C4_5
REMARK    2  A    between atoms: C4_5  and  C5_7
REMARK    3  A    between atoms: C5_7  and  C6_8
REMARK    4  A    between atoms: C6_8  and  C7_9
REMARK    5  A    between atoms: C7_9  and  C8_10
REMARK    6  A    between atoms: C7_9  and  N5_18
REMARK    7  A    between atoms: C8_10  and  C9_11
REMARK    8  A    between atoms: C9_11  and  C10_12
REMARK    9  A    between atoms: C10_12  and  N2_13
REMARK       I    between atoms: N5_18  and  C12_20
REMARK   10  A    between atoms: C12_20  and  C13_22
REMARK       I    between atoms: N6_26  and  C17_27
REMARK   11  A    between atoms: C17_27  and  C18_29
REMARK   12  A    between atoms: C18_29  and  C19_30
REMARK   13  A    between atoms: C18_29  and  C21_34
REMARK   14  A    between atoms: C19_30  and  C20_31
REMARK   15  A    between atoms: C21_34  and  N7_36
REMARK   16  A    between atoms: N7_36  and  C23_38
REMARK   17  A    between atoms: C23_38  and  C24_39
REMARK   18  A    between atoms: C24_39  and  O6_41
ROOT
HETATM    1  C13 UNL     1      12.512 -14.002  17.233  1.00  0.00     0.179 C
HETATM    2  C14 UNL     1      13.483 -13.181  18.111  1.00  0.00     0.037 C
HETATM    3  C15 UNL     1      14.080 -12.324  17.013  1.00  0.00     0.022 C
HETATM    4  C16 UNL     1      12.866 -11.977  16.196  1.00  0.00     0.127 C
HETATM    5  N6  UNL     1      11.810 -12.952  16.577  1.00  0.00    -0.338 N
HETATM    6  C17 UNL     1      10.463 -12.660  16.290  1.00  0.00     0.227 C
HETATM    7  O3  UNL     1      10.209 -11.635  15.614  1.00  0.00    -0.273 OA
ENDROOT
BRANCH   1   8
HETATM    8  C12 UNL     1      13.414 -14.828  16.396  1.00  0.00     0.244 C
HETATM    9  N5  UNL     1      14.627 -15.375  16.795  1.00  0.00    -0.329 N
ATOM     10  H5  UNL     1      14.951 -15.197  17.746  1.00  0.00     0.168 HD
HETATM   11  O2  UNL     1      12.979 -15.014  15.230  1.00  0.00    -0.271 OA
BRANCH   9  12
HETATM   12  C7  UNL     1      15.455 -16.187  15.924  1.00  0.00     0.009 C
BRANCH  12  13
HETATM   13  C6  UNL     1      15.366 -17.614  16.270  1.00  0.00     0.066 C
BRANCH  13  14
HETATM   14  C5  UNL     1      14.211 -18.355  15.643  1.00  0.00     0.109 C
BRANCH  14  15
HETATM   15  C4  UNL     1      14.301 -18.347  14.161  1.00  0.00     0.219 C
HETATM   16  N1  UNL     1      13.153 -18.218  13.364  1.00  0.00    -0.357 N
HETATM   17  C3  UNL     1      11.837 -18.053  13.980  1.00  0.00     0.152 C
HETATM   18  O1  UNL     1      15.422 -18.460  13.618  1.00  0.00    -0.273 OA
BRANCH  16  19
HETATM   19  C2  UNL     1      13.249 -18.241  11.900  1.00  0.00     0.120 C
HETATM   20  C1  UNL     1      11.927 -17.843  11.258  1.00  0.00     0.026 C
ENDBRANCH  16  19
ENDBRANCH  14  15
ENDBRANCH  13  14
ENDBRANCH  12  13
BRANCH  12  21
HETATM   21  C8  UNL     1      16.694 -15.509  15.607  1.00  0.00    -0.000 C
BRANCH  21  22
HETATM   22  C9  UNL     1      16.852 -14.096  15.316  1.00  0.00     0.048 C
BRANCH  22  23
HETATM   23  C10 UNL     1      16.239 -13.824  13.900  1.00  0.00     0.126 C
BRANCH  23  24
HETATM   24  N2  UNL     1      17.096 -12.922  13.198  1.00  0.00    -0.367 N
HETATM   25  C11 UNL     1      16.862 -11.676  13.037  1.00  0.00     0.196 C
HETATM   26  N3  UNL     1      15.696 -11.074  13.560  1.00  0.00    -0.067 NA
HETATM   27  N4  UNL     1      17.791 -10.870  12.312  1.00  0.00    -0.067 NA
ATOM     28  H2  UNL     1      17.956 -13.299  12.799  1.00  0.00     0.161 HD
ENDBRANCH  23  24
ENDBRANCH  22  23
ENDBRANCH  21  22
ENDBRANCH  12  21
ENDBRANCH   9  12
ENDBRANCH   1   8
BRANCH   6  29
HETATM   29  C18 UNL     1       9.279 -13.506  16.748  1.00  0.00     0.110 C
BRANCH  29  30
HETATM   30  C19 UNL     1       8.250 -12.634  17.360  1.00  0.00     0.129 C
BRANCH  30  31
HETATM   31  C20 UNL     1       8.380 -12.416  18.829  1.00  0.00     0.173 C
HETATM   32  O4  UNL     1       9.467 -11.986  19.298  1.00  0.00    -0.648 OA
HETATM   33  O5  UNL     1       7.386 -12.651  19.759  1.00  0.00    -0.648 OA
ENDBRANCH  30  31
ENDBRANCH  29  30
BRANCH  29  34
HETATM   34  C21 UNL     1       8.845 -14.376  15.632  1.00  0.00     0.086 C
HETATM   35  C22 UNL     1       7.677 -13.705  14.870  1.00  0.00     0.032 C
BRANCH  34  36
HETATM   36  N7  UNL     1       9.761 -14.750  14.666  1.00  0.00    -0.414 N
ATOM     37  H7  UNL     1      10.742 -14.733  14.946  1.00  0.00     0.153 HD
BRANCH  36  38
HETATM   38  C23 UNL     1       9.503 -15.143  13.364  1.00  0.00     0.145 C
BRANCH  38  39
HETATM   39  C24 UNL     1      10.375 -14.322  12.363  1.00  0.00     0.131 C
HETATM   40  C25 UNL     1       9.934 -14.586  10.951  1.00  0.00     0.041 C
BRANCH  39  41
HETATM   41  O6  UNL     1      11.703 -14.632  12.601  1.00  0.00    -0.394 OA
ATOM     42  H6  UNL     1      11.765 -15.004  13.473  1.00  0.00     0.210 HD
ENDBRANCH  39  41
ENDBRANCH  38  39
ENDBRANCH  36  38
ENDBRANCH  34  36
ENDBRANCH  29  34
ENDBRANCH   6  29
TORSDOF 18
ENDMDL