MODEL 2
REMARK VINA RESULT: -7.438499695      2.274      8.163
REMARK  16 active torsions:
REMARK  status: ('A' for Active; 'I' for Inactive)
REMARK    1  A    between atoms: C2_2  and  C3_3
REMARK    2  A    between atoms: C3_3  and  N1_4
REMARK       I    between atoms: N1_4  and  C4_6
REMARK    3  A    between atoms: C4_6  and  C5_8
REMARK       I    between atoms: N2_13  and  C9_14
REMARK    4  A    between atoms: C9_14  and  C10_16
REMARK    5  A    between atoms: C10_16  and  C11_17
REMARK    6  A    between atoms: C10_16  and  N3_19
REMARK    7  A    between atoms: N3_19  and  S1_21
REMARK    8  A    between atoms: S1_21  and  N4_24
REMARK    9  A    between atoms: N4_24  and  C13_25
REMARK   10  A    between atoms: N4_24  and  C17_29
REMARK   11  A    between atoms: C13_25  and  C14_26
REMARK   12  A    between atoms: C17_29  and  C18_30
REMARK   13  A    between atoms: C17_29  and  C22_40
REMARK   14  A    between atoms: C18_30  and  C19_31
REMARK   15  A    between atoms: C19_31  and  C20_32
REMARK   16  A    between atoms: C20_32  and  N5_33
REMARK       I    between atoms: N5_33  and  C21_35
ROOT
HETATM    1  S1  UNL     1      10.561 -15.358  13.495  1.00  0.00     0.322 S
HETATM    2  O3  UNL     1      10.971 -16.305  14.684  1.00  0.00    -0.182 OA
HETATM    3  O4  UNL     1      11.510 -15.840  12.401  1.00  0.00    -0.182 OA
ENDROOT
BRANCH   1   4
HETATM    4  N3  UNL     1      11.073 -13.786  13.914  1.00  0.00    -0.289 N
ATOM      5  H3  UNL     1      10.799 -12.942  13.411  1.00  0.00     0.174 HD
BRANCH   4   6
HETATM    6  C10 UNL     1      11.946 -13.795  15.076  1.00  0.00     0.186 C
BRANCH   6   7
HETATM    7  C9  UNL     1      13.338 -13.413  14.884  1.00  0.00     0.247 C
HETATM    8  N2  UNL     1      14.347 -13.420  15.829  1.00  0.00    -0.312 N
HETATM    9  C5  UNL     1      15.668 -12.929  15.943  1.00  0.00     0.085 C
HETATM   10  C8  UNL     1      14.357 -14.332  16.998  1.00  0.00     0.169 C
HETATM   11  C6  UNL     1      16.434 -14.227  15.702  1.00  0.00     0.102 C
HETATM   12  C7  UNL     1      15.576 -15.183  16.562  1.00  0.00     0.194 C
HETATM   13  F1  UNL     1      16.259 -15.682  17.624  1.00  0.00    -0.247 F
HETATM   14  O2  UNL     1      13.728 -13.016  13.727  1.00  0.00    -0.271 OA
BRANCH   9  15
HETATM   15  C4  UNL     1      16.193 -11.714  15.449  1.00  0.00     0.264 C
HETATM   16  N1  UNL     1      16.794 -11.611  14.186  1.00  0.00    -0.353 N
ATOM     17  H1  UNL     1      16.887 -12.466  13.636  1.00  0.00     0.163 HD
HETATM   18  O1  UNL     1      16.123 -10.635  16.133  1.00  0.00    -0.266 OA
BRANCH  16  19
HETATM   19  C3  UNL     1      17.289 -10.390  13.610  1.00  0.00     0.149 C
BRANCH  19  20
HETATM   20  C2  UNL     1      17.125 -10.373  12.141  1.00  0.00    -0.018 C
HETATM   21  C1  UNL     1      17.202  -9.267  11.378  1.00  0.00     0.008 C
ENDBRANCH  19  20
ENDBRANCH  16  19
ENDBRANCH   9  15
ENDBRANCH   6   7
BRANCH   6  22
HETATM   22  C11 UNL     1      11.303 -12.577  15.906  1.00  0.00     0.031 C
HETATM   23  C12 UNL     1      10.773 -11.577  14.931  1.00  0.00     0.007 C
ENDBRANCH   6  22
ENDBRANCH   4   6
ENDBRANCH   1   4
BRANCH   1  24
HETATM   24  N4  UNL     1       8.967 -15.670  13.125  1.00  0.00    -0.258 N
BRANCH  24  25
HETATM   25  C13 UNL     1       8.569 -15.464  11.797  1.00  0.00     0.082 C
BRANCH  25  26
HETATM   26  C14 UNL     1       7.821 -14.276  11.315  1.00  0.00     0.017 C
HETATM   27  C15 UNL     1       6.339 -14.401  11.100  1.00  0.00     0.015 C
HETATM   28  C16 UNL     1       8.406 -13.690  10.012  1.00  0.00     0.015 C
ENDBRANCH  25  26
ENDBRANCH  24  25
BRANCH  24  29
HETATM   29  C17 UNL     1       7.958 -15.785  14.073  1.00  0.00     0.203 C
BRANCH  29  30
HETATM   30  C18 UNL     1       8.117 -14.962  15.368  1.00  0.00     0.039 C
BRANCH  30  31
HETATM   31  C19 UNL     1       7.700 -13.546  15.121  1.00  0.00     0.022 C
BRANCH  31  32
HETATM   32  C20 UNL     1       7.650 -12.698  16.342  1.00  0.00     0.122 C
BRANCH  32  33
HETATM   33  N5  UNL     1       8.267 -13.300  17.494  1.00  0.00    -0.365 N
HETATM   34  C21 UNL     1       8.481 -12.433  18.632  1.00  0.00     0.181 C
HETATM   35  N6  UNL     1       7.449 -11.774  18.983  1.00  0.00    -0.374 N
HETATM   36  N7  UNL     1       9.741 -12.337  19.234  1.00  0.00    -0.064 NA
ATOM     37  H62 UNL     1       6.530 -11.843  18.545  1.00  0.00     0.158 HD
ATOM     38  H61 UNL     1       7.599 -11.162  19.786  1.00  0.00     0.158 HD
ATOM     39  H5  UNL     1       8.538 -14.283  17.507  1.00  0.00     0.162 HD
ENDBRANCH  32  33
ENDBRANCH  31  32
ENDBRANCH  30  31
ENDBRANCH  29  30
BRANCH  29  40
HETATM   40  C22 UNL     1       7.735 -17.230  14.480  1.00  0.00     0.198 C
HETATM   41  O5  UNL     1       8.438 -18.164  14.063  1.00  0.00    -0.646 OA
HETATM   42  O6  UNL     1       6.699 -17.500  15.347  1.00  0.00    -0.646 OA
ENDBRANCH  29  40
ENDBRANCH  24  29
ENDBRANCH   1  24
TORSDOF 16
ENDMDL