MODEL 5
REMARK VINA RESULT: -9.296711986      4.656      9.285
REMARK  10 active torsions:
REMARK  status: ('A' for Active; 'I' for Inactive)
REMARK    1  A    between atoms: N1_2  and  C2_3
REMARK    2  A    between atoms: N1_2  and  C17_36
REMARK    3  A    between atoms: C2_3  and  C3_4
REMARK    4  A    between atoms: C4_7  and  N3_8
REMARK    5  A    between atoms: N3_8  and  C5_10
REMARK    6  A    between atoms: C5_10  and  C6_11
REMARK    7  A    between atoms: C9_14  and  C10_15
REMARK    8  A    between atoms: C10_15  and  S1_16
REMARK    9  A    between atoms: S1_16  and  C11_17
REMARK   10  A    between atoms: C19_41  and  N13_42
ROOT
HETATM    1  C3  UNL     1       2.941  -7.825  13.566  1.00  0.00     0.264 A
HETATM    2  N2  UNL     1       2.200  -7.054  12.564  1.00  0.00    -0.199 N
ATOM      3  H2  UNL     1       1.911  -7.563  11.729  1.00  0.00     0.180 HD
HETATM    4  C4  UNL     1       1.877  -5.831  12.611  1.00  0.00     0.677 A
HETATM    5  N8  UNL     1       2.226  -5.138  13.810  1.00  0.00    -0.175 N
ATOM      6  H8  UNL     1       1.995  -4.149  13.906  1.00  0.00     0.186 HD
HETATM    7  C14 UNL     1       2.891  -5.808  14.871  1.00  0.00     0.141 A
HETATM    8  C15 UNL     1       3.271  -5.408  16.151  1.00  0.00     0.069 A
HETATM    9  C16 UNL     1       3.813  -6.490  16.804  1.00  0.00     0.111 A
HETATM   10  N9  UNL     1       3.758  -7.502  15.938  1.00  0.00    -0.306 N
ATOM     11  H9  UNL     1       4.086  -8.449  16.130  1.00  0.00     0.186 HD
HETATM   12  N10 UNL     1       3.203  -7.098  14.764  1.00  0.00    -0.247 N
ENDROOT
BRANCH   4  13
HETATM   13  N3  UNL     1       1.156  -5.238  11.534  1.00  0.00    -0.222 N
ATOM     14  H3  UNL     1       1.627  -4.898  10.696  1.00  0.00     0.178 HD
BRANCH  13  15
HETATM   15  C5  UNL     1      -0.267  -5.145  11.691  1.00  0.00     0.176 C
BRANCH  15  16
HETATM   16  C6  UNL     1      -0.881  -3.887  11.284  1.00  0.00    -0.040 A
HETATM   17  C7  UNL     1      -2.059  -3.896  10.576  1.00  0.00     0.009 A
HETATM   18  C8  UNL     1      -2.689  -2.737  10.154  1.00  0.00     0.008 A
HETATM   19  C9  UNL     1      -2.124  -1.507  10.448  1.00  0.00    -0.049 A
HETATM   20  C12 UNL     1      -0.946  -1.472  11.154  1.00  0.00     0.008 A
HETATM   21  C13 UNL     1      -0.333  -2.658  11.567  1.00  0.00     0.009 A
BRANCH  19  22
HETATM   22  C10 UNL     1      -2.854  -0.309   9.976  1.00  0.00     0.121 C
BRANCH  22  23
HETATM   23  S1  UNL     1      -3.012  -0.180   8.208  1.00  0.00    -0.087 SA
BRANCH  23  24
HETATM   24  C11 UNL     1      -3.085   1.468   7.583  1.00  0.00     0.176 A
HETATM   25  N4  UNL     1      -2.166   2.270   7.032  1.00  0.00    -0.263 N
HETATM   26  N5  UNL     1      -2.700   3.434   6.716  1.00  0.00    -0.226 N
ATOM     27  H4  UNL     1      -1.190   2.017   6.879  1.00  0.00     0.190 HD
HETATM   28  N6  UNL     1      -3.972   3.383   7.065  1.00  0.00    -0.226 N
ATOM     29  H5  UNL     1      -2.220   4.223   6.283  1.00  0.00     0.210 HD
HETATM   30  N7  UNL     1      -4.226   2.201   7.592  1.00  0.00    -0.263 N
ATOM     31  H6  UNL     1      -4.649   4.137   6.946  1.00  0.00     0.210 HD
ATOM     32  H7  UNL     1      -5.130   1.889   7.948  1.00  0.00     0.190 HD
ENDBRANCH  23  24
ENDBRANCH  22  23
ENDBRANCH  19  22
ENDBRANCH  15  16
ENDBRANCH  13  15
ENDBRANCH   4  13
BRANCH   1  33
HETATM   33  C2  UNL     1       4.095  -8.404  12.826  1.00  0.00     0.112 C
BRANCH  33  34
HETATM   34  N1  UNL     1       3.988  -8.850  11.492  1.00  0.00    -0.354 N
HETATM   35  C1  UNL     1       4.440  -7.972  10.400  1.00  0.00     0.156 C
BRANCH  34  36
HETATM   36  C17 UNL     1       3.650 -10.196  11.132  1.00  0.00     0.145 A
HETATM   37  C18 UNL     1       2.341 -10.397  10.643  1.00  0.00     0.164 A
HETATM   38  N11 UNL     1       1.504  -9.256  10.531  1.00  0.00    -0.080 NA
HETATM   39  N12 UNL     1       1.950 -11.620  10.311  1.00  0.00    -0.177 N
HETATM   40  C19 UNL     1       2.717 -12.709  10.405  1.00  0.00     0.680 A
ATOM     41  H12 UNL     1       0.999 -11.736   9.960  1.00  0.00     0.185 HD
HETATM   42  N14 UNL     1       3.961 -12.537  10.868  1.00  0.00    -0.154 N
HETATM   43  C20 UNL     1       4.415 -11.305  11.223  1.00  0.00     0.290 A
ATOM     44  H14 UNL     1       4.579 -13.343  10.955  1.00  0.00     0.187 HD
HETATM   45  O1  UNL     1       5.580 -11.270  11.639  1.00  0.00    -0.265 OA
BRANCH  40  46
HETATM   46  N13 UNL     1       2.303 -13.890  10.071  1.00  0.00    -0.234 N
ATOM     47 2H13 UNL     1       1.676 -14.008   9.275  1.00  0.00     0.174 HD
ATOM     48 1H13 UNL     1       2.576 -14.734  10.573  1.00  0.00     0.174 HD
ENDBRANCH  40  46
ENDBRANCH  34  36
ENDBRANCH  33  34
ENDBRANCH   1  33
TORSDOF 10
ENDMDL