MODEL 5
REMARK VINA RESULT: -8.885124965      3.273      5.077
REMARK  10 active torsions:
REMARK  status: ('A' for Active; 'I' for Inactive)
REMARK       I    between atoms: C1_2  and  N1_3
REMARK    1  A    between atoms: C1_2  and  C9_16
REMARK    2  A    between atoms: N1_3  and  N2_5
REMARK    3  A    between atoms: C2_7  and  C3_8
REMARK    4  A    between atoms: C6_11  and  O2_12
REMARK       I    between atoms: C9_16  and  N3_18
REMARK    5  A    between atoms: N3_18  and  C10_20
REMARK    6  A    between atoms: C12_29  and  C13_30
REMARK    7  A    between atoms: C13_30  and  O5_31
REMARK    8  A    between atoms: C13_30  and  C14_33
REMARK    9  A    between atoms: C16_35  and  N7_36
REMARK   10  A    between atoms: C18_40  and  N8_41
ROOT
HETATM    1  C10 UNL     1       1.889  -7.317  11.767  1.00  0.00     0.206 C
HETATM    2  C11 UNL     1       2.196  -6.896  13.161  1.00  0.00     0.262 C
HETATM    3  O4  UNL     1       1.408  -7.169  14.100  1.00  0.00    -0.269 OA
HETATM    4  N4  UNL     1       3.409  -6.182  13.364  1.00  0.00    -0.254 N
ATOM      5  H4  UNL     1       3.521  -5.651  14.227  1.00  0.00     0.191 HD
HETATM    6  N5  UNL     1       4.450  -6.174  12.440  1.00  0.00    -0.244 N
ATOM      7  H5  UNL     1       5.386  -5.844  12.672  1.00  0.00     0.208 HD
HETATM    8  N6  UNL     1       4.122  -6.641  11.199  1.00  0.00    -0.312 N
ATOM      9  H6  UNL     1       4.514  -6.231  10.351  1.00  0.00     0.182 HD
HETATM   10  C12 UNL     1       3.207  -7.728  11.148  1.00  0.00     0.166 C
ENDROOT
BRANCH   1  11
HETATM   11  N3  UNL     1       1.384  -6.190  10.985  1.00  0.00    -0.337 N
HETATM   12  C9  UNL     1       0.412  -6.405   9.966  1.00  0.00     0.311 C
HETATM   13  O3  UNL     1      -0.016  -7.558   9.732  1.00  0.00    -0.262 OA
ATOM     14  H3  UNL     1       1.729  -5.248  11.169  1.00  0.00     0.163 HD
BRANCH  12  15
HETATM   15  C1  UNL     1      -0.095  -5.298   9.185  1.00  0.00     0.327 C
HETATM   16  O1  UNL     1      -1.284  -4.911   9.366  1.00  0.00    -0.261 OA
HETATM   17  N1  UNL     1       0.685  -4.619   8.214  1.00  0.00    -0.262 N
ATOM     18  H1  UNL     1       1.643  -4.946   8.082  1.00  0.00     0.190 HD
BRANCH  17  19
HETATM   19  N2  UNL     1       0.277  -3.566   7.437  1.00  0.00    -0.308 N
HETATM   20  C2  UNL     1       0.991  -2.768   6.753  1.00  0.00     0.118 C
ATOM     21  H2  UNL     1      -0.730  -3.404   7.403  1.00  0.00     0.186 HD
BRANCH  20  22
HETATM   22  C3  UNL     1       0.439  -1.675   5.958  1.00  0.00    -0.019 A
HETATM   23  C4  UNL     1      -0.659  -1.900   5.168  1.00  0.00     0.015 A
HETATM   24  C5  UNL     1      -1.222  -0.884   4.390  1.00  0.00     0.037 A
HETATM   25  C6  UNL     1      -0.647   0.377   4.426  1.00  0.00     0.065 A
HETATM   26  C7  UNL     1       0.466   0.624   5.220  1.00  0.00     0.037 A
HETATM   27  C8  UNL     1       0.997  -0.416   5.982  1.00  0.00     0.015 A
BRANCH  25  28
HETATM   28  O2  UNL     1      -1.200   1.402   3.652  1.00  0.00    -0.361 OA
ATOM     29  H2  UNL     1      -0.912   2.296   3.793  1.00  0.00     0.217 HD
ENDBRANCH  25  28
ENDBRANCH  20  22
ENDBRANCH  17  19
ENDBRANCH  12  15
ENDBRANCH   1  11
BRANCH  10  30
HETATM   30  C13 UNL     1       3.743  -8.990  11.782  1.00  0.00     0.178 C
BRANCH  30  31
HETATM   31  O5  UNL     1       2.790  -9.432  12.728  1.00  0.00    -0.389 OA
ATOM     32  H5  UNL     1       2.730  -8.768  13.406  1.00  0.00     0.210 HD
ENDBRANCH  30  31
BRANCH  30  33
HETATM   33  C14 UNL     1       3.877 -10.088  10.794  1.00  0.00    -0.023 A
HETATM   34  C15 UNL     1       4.629  -9.984   9.660  1.00  0.00     0.046 A
HETATM   35  C16 UNL     1       4.710 -11.032   8.788  1.00  0.00     0.105 A
HETATM   36  C17 UNL     1       4.041 -12.210   9.034  1.00  0.00     0.072 A
HETATM   37  C18 UNL     1       3.273 -12.346  10.173  1.00  0.00     0.105 A
HETATM   38  C19 UNL     1       3.203 -11.266  11.047  1.00  0.00     0.046 A
BRANCH  35  39
HETATM   39  N7  UNL     1       5.501 -10.895   7.614  1.00  0.00    -0.116 N
HETATM   40  O6  UNL     1       6.692 -11.256   7.561  1.00  0.00    -0.532 OA
HETATM   41  O7  UNL     1       4.946 -10.347   6.485  1.00  0.00    -0.532 OA
ENDBRANCH  35  39
BRANCH  37  42
HETATM   42  N8  UNL     1       2.576 -13.555  10.442  1.00  0.00    -0.116 N
HETATM   43  O8  UNL     1       1.866 -13.664  11.445  1.00  0.00    -0.532 OA
HETATM   44  O9  UNL     1       2.689 -14.605   9.586  1.00  0.00    -0.532 OA
ENDBRANCH  37  42
ENDBRANCH  30  33
ENDBRANCH  10  30
TORSDOF 10
ENDMDL