MODEL 5
REMARK VINA RESULT: -7.926045742      2.389      4.831
REMARK  13 active torsions:
REMARK  status: ('A' for Active; 'I' for Inactive)
REMARK    1  A    between atoms: O1_2  and  C2_3
REMARK    2  A    between atoms: C3_4  and  O2_5
REMARK    3  A    between atoms: C4_7  and  C5_8
REMARK    4  A    between atoms: C5_8  and  N1_9
REMARK    5  A    between atoms: C8_14  and  N2_15
REMARK    6  A    between atoms: N2_15  and  C9_17
REMARK    7  A    between atoms: C9_17  and  C10_18
REMARK    8  A    between atoms: C10_18  and  N3_19
REMARK    9  A    between atoms: N4_25  and  C12_26
REMARK   10  A    between atoms: C13_29  and  N6_30
REMARK   11  A    between atoms: C18_39  and  N9_40
REMARK   12  A    between atoms: N9_40  and  C19_42
REMARK   13  A    between atoms: C23_48  and  O4_49
ROOT
HETATM    1  C2  UNL     1       1.933  -6.602  13.627  1.00  0.00     0.138 A
HETATM    2  C3  UNL     1       2.325  -7.756  14.229  1.00  0.00     0.114 A
HETATM    3  C4  UNL     1       2.586  -8.925  13.453  1.00  0.00     0.028 A
HETATM    4  C6  UNL     1       2.421  -8.821  12.097  1.00  0.00     0.011 A
HETATM    5  C7  UNL     1       2.649  -9.898  11.267  1.00  0.00     0.050 A
HETATM    6  C8  UNL     1       2.475  -9.756   9.908  1.00  0.00     0.099 A
HETATM    7  C11 UNL     1       2.083  -8.583   9.374  1.00  0.00     0.293 A
HETATM    8  O3  UNL     1       1.929  -8.480   8.112  1.00  0.00    -0.265 OA
HETATM    9  N4  UNL     1       1.847  -7.494  10.157  1.00  0.00    -0.104 N
HETATM   10  C22 UNL     1       2.011  -7.609  11.482  1.00  0.00     0.107 A
HETATM   11  C23 UNL     1       1.771  -6.506  12.261  1.00  0.00     0.131 A
ENDROOT
BRANCH   9  12
HETATM   12  C12 UNL     1       1.444  -6.339   9.452  1.00  0.00     0.721 A
HETATM   13  N5  UNL     1       0.131  -6.118   9.262  1.00  0.00    -0.021 N
HETATM   14  C13 UNL     1      -0.331  -5.020   8.634  1.00  0.00     0.709 A
ATOM     15  H5  UNL     1      -0.538  -6.807   9.607  1.00  0.00     0.203 HD
HETATM   16  N8  UNL     1       0.554  -4.109   8.176  1.00  0.00    -0.021 N
HETATM   17  C18 UNL     1       1.872  -4.301   8.349  1.00  0.00     0.707 A
ATOM     18  H8  UNL     1       0.221  -3.273   7.697  1.00  0.00     0.203 HD
HETATM   19  N10 UNL     1       2.312  -5.421   8.990  1.00  0.00    -0.021 N
ATOM     20  H10 UNL     1       3.314  -5.565   9.121  1.00  0.00     0.203 HD
BRANCH  14  21
HETATM   21  N6  UNL     1      -1.715  -4.834   8.460  1.00  0.00    -0.214 N
HETATM   22  C14 UNL     1      -2.245  -4.425   7.173  1.00  0.00     0.160 C
HETATM   23  C15 UNL     1      -3.031  -3.134   7.439  1.00  0.00     0.134 C
HETATM   24  N7  UNL     1      -4.096  -3.387   8.365  1.00  0.00    -0.418 N
HETATM   25  C16 UNL     1      -3.684  -3.923   9.621  1.00  0.00     0.134 C
ATOM     26  H7  UNL     1      -5.073  -3.198   8.143  1.00  0.00     0.153 HD
HETATM   27  C17 UNL     1      -2.679  -5.034   9.524  1.00  0.00     0.160 C
ENDBRANCH  14  21
BRANCH  17  28
HETATM   28  N9  UNL     1       2.676  -3.411   7.900  1.00  0.00    -0.221 N
ATOM     29  H9  UNL     1       2.734  -2.534   8.417  1.00  0.00     0.178 HD
BRANCH  28  30
HETATM   30  C19 UNL     1       3.500  -3.536   6.736  1.00  0.00     0.091 C
HETATM   31  C20 UNL     1       2.710  -4.012   5.527  1.00  0.00     0.032 C
HETATM   32  C21 UNL     1       4.667  -4.449   6.995  1.00  0.00     0.032 C
ENDBRANCH  28  30
ENDBRANCH  17  28
ENDBRANCH   9  12
BRANCH   6  33
HETATM   33  N2  UNL     1       2.725 -10.902   9.098  1.00  0.00    -0.384 N
ATOM     34  H2  UNL     1       1.944 -11.313   8.585  1.00  0.00     0.159 HD
BRANCH  33  35
HETATM   35  C9  UNL     1       4.019 -11.504   8.967  1.00  0.00     0.147 C
BRANCH  35  36
HETATM   36  C10 UNL     1       4.617 -11.084   7.646  1.00  0.00     0.249 C
BRANCH  36  37
HETATM   37  N3  UNL     1       5.953 -10.549   7.787  1.00  0.00    -0.078 N
ATOM     38  H33 UNL     1       6.067  -9.698   7.236  1.00  0.00     0.274 HD
ATOM     39  H32 UNL     1       6.097 -10.162   8.719  1.00  0.00     0.274 HD
ATOM     40  H31 UNL     1       6.674 -11.233   7.559  1.00  0.00     0.274 HD
ENDBRANCH  36  37
ENDBRANCH  35  36
ENDBRANCH  33  35
ENDBRANCH   6  33
BRANCH  11  41
HETATM   41  O4  UNL     1       1.370  -5.302  11.722  1.00  0.00    -0.356 OA
ATOM     42  H4  UNL     1       1.825  -4.510  11.981  1.00  0.00     0.218 HD
ENDBRANCH  11  41
BRANCH   3  43
HETATM   43  C5  UNL     1       3.006 -10.088  14.208  1.00  0.00     0.095 C
BRANCH  43  44
HETATM   44  N1  UNL     1       4.102 -10.081  15.043  1.00  0.00    -0.407 N
ATOM     45  H12 UNL     1       4.068 -10.673  15.872  1.00  0.00     0.155 HD
ATOM     46  H11 UNL     1       4.932  -9.515  14.861  1.00  0.00     0.155 HD
ENDBRANCH  43  44
ENDBRANCH   3  43
BRANCH   1  47
HETATM   47  O1  UNL     1       1.684  -5.474  14.397  1.00  0.00    -0.351 OA
HETATM   48  C1  UNL     1       2.629  -4.446  14.603  1.00  0.00     0.210 C
ENDBRANCH   1  47
BRANCH   2  49
HETATM   49  O2  UNL     1       2.462  -7.766  15.601  1.00  0.00    -0.357 OA
ATOM     50  H2  UNL     1       1.978  -8.415  16.098  1.00  0.00     0.217 HD
ENDBRANCH   2  49
TORSDOF 13
ENDMDL