MODEL 2
REMARK VINA RESULT: -7.687209853      2.531      4.914
REMARK  10 active torsions:
REMARK  status: ('A' for Active; 'I' for Inactive)
REMARK       I    between atoms: C2_2  and  N1_4
REMARK    1  A    between atoms: N1_4  and  C3_6
REMARK    2  A    between atoms: C5_11  and  S1_12
REMARK    3  A    between atoms: S1_12  and  C6_13
REMARK    4  A    between atoms: C6_13  and  C7_14
REMARK       I    between atoms: C7_14  and  N4_16
REMARK    5  A    between atoms: N4_16  and  S2_18
REMARK    6  A    between atoms: S2_18  and  C8_21
REMARK    7  A    between atoms: C10_31  and  O4_32
REMARK    8  A    between atoms: C11_34  and  N8_35
REMARK    9  A    between atoms: N8_35  and  C12_36
REMARK   10  A    between atoms: C12_36  and  C14_38
ROOT
HETATM    1  C3  UNL     1       2.700  -7.451  13.332  1.00  0.00     0.120 A
HETATM    2  C4  UNL     1       2.443  -6.325  14.099  1.00  0.00     0.147 A
HETATM    3  N2  UNL     1       3.303  -6.060  15.211  1.00  0.00    -0.080 NA
HETATM    4  N3  UNL     1       1.417  -5.501  13.818  1.00  0.00    -0.335 N
ATOM      5  H3  UNL     1       1.271  -4.685  14.414  1.00  0.00     0.168 HD
HETATM    6  C5  UNL     1       0.581  -5.700  12.798  1.00  0.00     0.108 A
HETATM    7  C10 UNL     1       0.807  -6.807  12.021  1.00  0.00     0.142 A
HETATM    8  C11 UNL     1       1.876  -7.720  12.265  1.00  0.00     0.167 A
ENDROOT
BRANCH   6   9
HETATM    9  S1  UNL     1      -0.789  -4.616  12.457  1.00  0.00    -0.100 SA
BRANCH   9  10
HETATM   10  C6  UNL     1      -0.400  -3.220  11.415  1.00  0.00     0.184 C
BRANCH  10  11
HETATM   11  C7  UNL     1      -0.271  -3.585  10.012  1.00  0.00     0.239 C
HETATM   12  O2  UNL     1       0.242  -2.730   9.204  1.00  0.00    -0.272 OA
HETATM   13  N4  UNL     1      -0.665  -4.805   9.432  1.00  0.00    -0.272 N
ATOM     14  H4  UNL     1      -1.092  -5.495  10.050  1.00  0.00     0.179 HD
BRANCH  13  15
HETATM   15  S2  UNL     1      -0.493  -5.237   7.793  1.00  0.00     0.149 S
HETATM   16  O3  UNL     1      -0.712  -6.751   7.718  1.00  0.00    -0.230 OA
HETATM   17  S3  UNL     1      -1.682  -4.565   6.784  1.00  0.00     0.037 SA
BRANCH  15  18
HETATM   18  C8  UNL     1       1.126  -4.973   7.163  1.00  0.00     0.179 A
HETATM   19  N5  UNL     1       1.492  -4.624   5.931  1.00  0.00    -0.283 N
HETATM   20  N6  UNL     1       2.717  -4.489   5.650  1.00  0.00    -0.279 N
ATOM     21  H5  UNL     1       0.783  -4.467   5.215  1.00  0.00     0.188 HD
HETATM   22  C9  UNL     1       3.633  -4.696   6.587  1.00  0.00     0.159 A
ATOM     23  H6  UNL     1       2.999  -4.223   4.706  1.00  0.00     0.189 HD
HETATM   24  N7  UNL     1       4.936  -4.609   6.508  1.00  0.00    -0.379 N
HETATM   25  S4  UNL     1       2.644  -5.106   7.938  1.00  0.00    -0.023 SA
ATOM     26  H72 UNL     1       5.522  -4.366   5.709  1.00  0.00     0.158 HD
ATOM     27  H71 UNL     1       5.640  -4.767   7.228  1.00  0.00     0.158 HD
ENDBRANCH  15  18
ENDBRANCH  13  15
ENDBRANCH  10  11
ENDBRANCH   9  10
ENDBRANCH   6   9
BRANCH   7  28
HETATM   28  O4  UNL     1      -0.022  -7.067  10.953  1.00  0.00    -0.355 OA
ATOM     29  H4  UNL     1       0.321  -7.527  10.195  1.00  0.00     0.218 HD
ENDBRANCH   7  28
BRANCH   8  30
HETATM   30  N8  UNL     1       2.013  -8.678  11.543  1.00  0.00    -0.431 NA
BRANCH  30  31
HETATM   31  C12 UNL     1       2.443  -9.637  10.726  1.00  0.00     0.220 C
HETATM   32  C13 UNL     1       2.243 -11.061  11.256  1.00  0.00     0.055 C
BRANCH  31  33
HETATM   33  C14 UNL     1       1.818  -9.609   9.349  1.00  0.00     0.269 C
HETATM   34  O5  UNL     1       0.591  -9.432   9.293  1.00  0.00    -0.303 OA
ENDBRANCH  31  33
ENDBRANCH  30  31
ENDBRANCH   8  30
BRANCH   1  35
HETATM   35  N1  UNL     1       3.826  -8.237  13.709  1.00  0.00    -0.322 N
HETATM   36  C2  UNL     1       3.884  -9.468  14.298  1.00  0.00     0.218 C
HETATM   37  C1  UNL     1       5.171 -10.173  14.632  1.00  0.00     0.117 C
HETATM   38  O1  UNL     1       2.846 -10.139  14.621  1.00  0.00    -0.274 OA
ATOM     39  H1  UNL     1       4.733  -7.814  13.507  1.00  0.00     0.169 HD
ENDBRANCH   1  35
TORSDOF 10
ENDMDL