MODEL 3
REMARK VINA RESULT: -8.006878585      1.366      2.881
REMARK  12 active torsions:
REMARK  status: ('A' for Active; 'I' for Inactive)
REMARK    1  A    between atoms: C2_2  and  C3_3
REMARK    2  A    between atoms: C3_3  and  O1_4
REMARK    3  A    between atoms: O1_4  and  C4_5
REMARK    4  A    between atoms: C4_5  and  C5_6
REMARK    5  A    between atoms: C5_6  and  N1_7
REMARK    6  A    between atoms: C8_10  and  C9_11
REMARK    7  A    between atoms: C10_12  and  O2_13
REMARK    8  A    between atoms: C14_23  and  N4_24
REMARK    9  A    between atoms: N6_30  and  C16_31
REMARK   10  A    between atoms: C16_31  and  C17_32
REMARK   11  A    between atoms: C17_32  and  N7_33
REMARK   12  A    between atoms: C19_38  and  O4_39
ROOT
HETATM    1  C9  UNL     1       4.109 -10.562  10.209  1.00  0.00     0.081 A
HETATM    2  C10 UNL     1       3.459  -9.349  10.216  1.00  0.00     0.111 A
HETATM    3  C11 UNL     1       3.452  -8.518  11.311  1.00  0.00     0.098 A
HETATM    4  N2  UNL     1       2.781  -7.367  11.209  1.00  0.00    -0.344 N
ATOM      5  H2  UNL     1       2.294  -7.104  10.352  1.00  0.00     0.166 HD
HETATM    6  C12 UNL     1       2.782  -6.575  12.291  1.00  0.00     0.147 A
HETATM    7  C13 UNL     1       2.080  -5.393  12.196  1.00  0.00     0.290 A
HETATM    8  O3  UNL     1       1.489  -5.100  11.124  1.00  0.00    -0.265 OA
HETATM    9  N3  UNL     1       1.999  -4.520  13.228  1.00  0.00    -0.154 N
ATOM     10  H3  UNL     1       1.476  -3.647  13.147  1.00  0.00     0.187 HD
HETATM   11  C14 UNL     1       2.638  -4.853  14.365  1.00  0.00     0.680 A
HETATM   12  N5  UNL     1       3.331  -6.009  14.471  1.00  0.00    -0.174 N
ATOM     13  H5  UNL     1       3.796  -6.213  15.354  1.00  0.00     0.186 HD
HETATM   14  C15 UNL     1       3.439  -6.904  13.471  1.00  0.00     0.160 A
HETATM   15  N6  UNL     1       4.142  -8.070  13.629  1.00  0.00    -0.303 N
HETATM   16  C18 UNL     1       4.151  -8.876  12.557  1.00  0.00     0.107 A
HETATM   17  C19 UNL     1       4.791 -10.093  12.516  1.00  0.00     0.147 A
HETATM   18  C20 UNL     1       4.774 -10.919  11.380  1.00  0.00     0.222 A
HETATM   19  O5  UNL     1       5.390 -11.982  11.502  1.00  0.00    -0.284 OA
ENDROOT
BRANCH   1  20
HETATM   20  C8  UNL     1       3.994 -11.522   9.099  1.00  0.00     0.078 A
HETATM   21  C6  UNL     1       2.960 -12.411   8.847  1.00  0.00     0.040 A
HETATM   22  N1  UNL     1       3.119 -13.027   7.655  1.00  0.00    -0.299 N
HETATM   23  C7  UNL     1       1.825 -12.755   9.783  1.00  0.00     0.071 C
HETATM   24  C22 UNL     1       4.247 -12.545   7.136  1.00  0.00     0.329 A
HETATM   25  N8  UNL     1       4.783 -11.631   8.007  1.00  0.00    -0.301 N
HETATM   26  O6  UNL     1       4.731 -12.888   6.018  1.00  0.00    -0.246 OA
HETATM   27  C21 UNL     1       5.988 -10.875   7.728  1.00  0.00     0.161 C
BRANCH  22  28
HETATM   28  C5  UNL     1       2.218 -14.022   7.054  1.00  0.00     0.160 C
BRANCH  28  29
HETATM   29  C4  UNL     1       2.826 -15.380   7.066  1.00  0.00     0.188 C
BRANCH  29  30
HETATM   30  O1  UNL     1       3.128 -15.870   8.259  1.00  0.00    -0.390 OA
BRANCH  30  31
HETATM   31  C3  UNL     1       4.274 -15.975   8.881  1.00  0.00     0.167 C
BRANCH  31  32
HETATM   32  C2  UNL     1       4.469 -15.472  10.270  1.00  0.00     0.022 C
HETATM   33  C1  UNL     1       3.344 -16.125  11.126  1.00  0.00     0.007 C
ENDBRANCH  31  32
ENDBRANCH  30  31
ENDBRANCH  29  30
ENDBRANCH  28  29
ENDBRANCH  22  28
ENDBRANCH   1  20
BRANCH   2  34
HETATM   34  O2  UNL     1       2.791  -8.954   9.055  1.00  0.00    -0.357 OA
ATOM     35  H2  UNL     1       3.307  -8.597   8.341  1.00  0.00     0.217 HD
ENDBRANCH   2  34
BRANCH  17  36
HETATM   36  O4  UNL     1       5.468 -10.501  13.648  1.00  0.00    -0.355 OA
ATOM     37  H4  UNL     1       5.747 -11.408  13.693  1.00  0.00     0.218 HD
ENDBRANCH  17  36
BRANCH  15  38
HETATM   38  C16 UNL     1       4.839  -8.378  14.803  1.00  0.00     0.099 C
BRANCH  38  39
HETATM   39  C17 UNL     1       5.969  -7.510  15.252  1.00  0.00     0.274 C
BRANCH  39  40
HETATM   40  N7  UNL     1       5.641  -7.007  16.582  1.00  0.00    -0.075 N
ATOM     41  H73 UNL     1       6.343  -6.364  16.946  1.00  0.00     0.274 HD
ATOM     42  H72 UNL     1       4.853  -6.358  16.577  1.00  0.00     0.274 HD
ATOM     43  H71 UNL     1       5.488  -7.812  17.188  1.00  0.00     0.274 HD
ENDBRANCH  39  40
ENDBRANCH  38  39
ENDBRANCH  15  38
BRANCH  11  44
HETATM   44  N4  UNL     1       2.594  -4.060  15.380  1.00  0.00    -0.234 N
ATOM     45  H42 UNL     1       1.915  -3.299  15.380  1.00  0.00     0.174 HD
ATOM     46  H41 UNL     1       3.233  -4.203  16.162  1.00  0.00     0.174 HD
ENDBRANCH  11  44
TORSDOF 12
ENDMDL