MODEL 5
REMARK VINA RESULT: -9.368402370      2.771      8.053
REMARK  10 active torsions:
REMARK  status: ('A' for Active; 'I' for Inactive)
REMARK    1  A    between atoms: C4_10  and  O2_11
REMARK    2  A    between atoms: C5_13  and  C6_14
REMARK    3  A    between atoms: C6_14  and  C7_15
REMARK    4  A    between atoms: C7_15  and  N4_16
REMARK    5  A    between atoms: C7_15  and  C10_21
REMARK       I    between atoms: N4_16  and  C8_18
REMARK    6  A    between atoms: N7_26  and  C11_27
REMARK    7  A    between atoms: C14_30  and  O4_31
REMARK    8  A    between atoms: C17_34  and  C18_35
REMARK    9  A    between atoms: C19_36  and  C20_37
REMARK   10  A    between atoms: C21_46  and  O5_47
ROOT
HETATM    1  C1  UNL     1       2.512  -4.819  14.036  1.00  0.00     0.231 C
HETATM    2  N1  UNL     1       2.887  -6.088  14.088  1.00  0.00    -0.410 NA
HETATM    3  C2  UNL     1       3.191  -7.258  14.082  1.00  0.00     0.191 A
HETATM    4  N2  UNL     1       4.067  -7.649  15.100  1.00  0.00    -0.283 N
ATOM      5  H2  UNL     1       4.401  -6.960  15.774  1.00  0.00     0.173 HD
HETATM    6  C3  UNL     1       4.464  -8.909  15.191  1.00  0.00     0.328 A
HETATM    7  O1  UNL     1       5.267  -9.295  16.109  1.00  0.00    -0.247 OA
HETATM    8  N3  UNL     1       4.037  -9.833  14.310  1.00  0.00    -0.288 N
ATOM      9  H3  UNL     1       4.357 -10.798  14.398  1.00  0.00     0.172 HD
HETATM   10  C4  UNL     1       3.202  -9.505  13.327  1.00  0.00     0.155 A
HETATM   11  C5  UNL     1       2.748  -8.192  13.183  1.00  0.00     0.053 A
ENDROOT
BRANCH  11  12
HETATM   12  C6  UNL     1       1.818  -7.891  12.043  1.00  0.00     0.080 C
BRANCH  12  13
HETATM   13  C7  UNL     1       2.491  -7.251  10.857  1.00  0.00     0.145 C
BRANCH  13  14
HETATM   14  N4  UNL     1       1.654  -6.074  10.509  1.00  0.00    -0.351 N
HETATM   15  C8  UNL     1       2.059  -4.786  10.278  1.00  0.00     0.214 C
HETATM   16  C9  UNL     1       1.022  -3.735   9.926  1.00  0.00     0.117 C
HETATM   17  O3  UNL     1       3.227  -4.375  10.327  1.00  0.00    -0.274 OA
ATOM     18  H4  UNL     1       0.651  -6.246  10.432  1.00  0.00     0.163 HD
ENDBRANCH  13  14
BRANCH  13  19
HETATM   19  C10 UNL     1       2.143  -8.189   9.699  1.00  0.00     0.102 A
HETATM   20  N5  UNL     1       1.042  -8.075   8.929  1.00  0.00    -0.284 N
HETATM   21  N6  UNL     1       1.185  -8.915   7.927  1.00  0.00    -0.233 N
ATOM     22  H5  UNL     1       0.249  -7.455   9.092  1.00  0.00     0.188 HD
HETATM   23  N7  UNL     1       2.364  -9.584   8.031  1.00  0.00    -0.217 N
ATOM     24  H6  UNL     1       0.506  -9.047   7.177  1.00  0.00     0.209 HD
HETATM   25  C21 UNL     1       2.946  -9.140   9.120  1.00  0.00     0.190 A
BRANCH  23  26
HETATM   26  C11 UNL     1       2.744 -10.530   7.072  1.00  0.00     0.070 A
HETATM   27  C12 UNL     1       3.250 -10.041   5.847  1.00  0.00     0.035 A
HETATM   28  C13 UNL     1       3.674 -10.869   4.844  1.00  0.00     0.039 A
HETATM   29  C14 UNL     1       3.610 -12.220   5.023  1.00  0.00     0.069 A
HETATM   30  C16 UNL     1       3.123 -12.737   6.198  1.00  0.00     0.050 A
HETATM   31  C17 UNL     1       2.696 -11.892   7.207  1.00  0.00    -0.004 A
BRANCH  29  32
HETATM   32  O4  UNL     1       4.026 -13.085   4.048  1.00  0.00    -0.356 OA
HETATM   33  C15 UNL     1       4.314 -12.790   2.712  1.00  0.00     0.210 C
ENDBRANCH  29  32
BRANCH  31  34
HETATM   34  C18 UNL     1       2.209 -12.497   8.416  1.00  0.00     0.017 C
HETATM   35  C19 UNL     1       2.950 -12.854   9.439  1.00  0.00     0.052 C
BRANCH  35  36
HETATM   36  C20 UNL     1       2.327 -13.482  10.629  1.00  0.00     0.136 A
HETATM   37  N8  UNL     1       2.532 -14.714  11.102  1.00  0.00    -0.269 N
HETATM   38  N9  UNL     1       1.811 -14.916  12.179  1.00  0.00    -0.227 N
ATOM     39  H8  UNL     1       3.160 -15.401  10.685  1.00  0.00     0.190 HD
HETATM   40  N10 UNL     1       1.133 -13.814  12.411  1.00  0.00    -0.227 N
ATOM     41  H9  UNL     1       1.782 -15.771  12.735  1.00  0.00     0.210 HD
HETATM   42  N11 UNL     1       1.420 -12.914  11.482  1.00  0.00    -0.269 N
ATOM     43  H10 UNL     1       0.484 -13.673  13.186  1.00  0.00     0.210 HD
ATOM     44  H11 UNL     1       1.035 -11.971  11.415  1.00  0.00     0.190 HD
ENDBRANCH  35  36
ENDBRANCH  31  34
ENDBRANCH  23  26
BRANCH  25  45
HETATM   45  O5  UNL     1       4.177  -9.513   9.693  1.00  0.00    -0.343 OA
ATOM     46  H5  UNL     1       4.659 -10.272   9.386  1.00  0.00     0.219 HD
ENDBRANCH  25  45
ENDBRANCH  13  19
ENDBRANCH  12  13
ENDBRANCH  11  12
BRANCH  10  47
HETATM   47  O2  UNL     1       2.765 -10.481  12.409  1.00  0.00    -0.345 OA
ATOM     48  H2  UNL     1       1.961 -10.353  11.919  1.00  0.00     0.219 HD
ENDBRANCH  10  47
TORSDOF 10
ENDMDL