MODEL 4
REMARK VINA RESULT: -8.501217432      1.718      2.007
REMARK  12 active torsions:
REMARK  status: ('A' for Active; 'I' for Inactive)
REMARK       I    between atoms: N1_2  and  C2_4
REMARK    1  A    between atoms: C2_4  and  C3_6
REMARK    2  A    between atoms: C3_6  and  N2_7
REMARK    3  A    between atoms: C4_8  and  O2_9
REMARK    4  A    between atoms: C5_11  and  O3_12
REMARK    5  A    between atoms: C6_14  and  C7_15
REMARK       I    between atoms: C7_15  and  N3_17
REMARK    6  A    between atoms: N3_17  and  C8_19
REMARK    7  A    between atoms: C8_19  and  C9_20
REMARK    8  A    between atoms: C9_20  and  S1_21
REMARK    9  A    between atoms: S1_21  and  C10_22
REMARK   10  A    between atoms: C15_36  and  N7_37
REMARK   11  A    between atoms: C16_40  and  O9_41
REMARK   12  A    between atoms: C17_43  and  N8_44
ROOT
HETATM    1  C7  UNL     1       2.773  -8.755  12.174  1.00  0.00     0.258 C
HETATM    2  O4  UNL     1       1.541  -8.462  11.960  1.00  0.00    -0.267 OA
HETATM    3  N3  UNL     1       3.286  -8.225  13.369  1.00  0.00    -0.356 N
ATOM      4  H3  UNL     1       4.258  -8.428  13.602  1.00  0.00     0.162 HD
ENDROOT
BRANCH   3   5
HETATM    5  C8  UNL     1       2.532  -7.417  14.284  1.00  0.00     0.133 C
BRANCH   5   6
HETATM    6  C9  UNL     1       3.163  -6.204  14.823  1.00  0.00     0.100 C
BRANCH   6   7
HETATM    7  S1  UNL     1       2.421  -4.643  14.209  1.00  0.00    -0.108 SA
BRANCH   7   8
HETATM    8  C10 UNL     1       2.129  -4.916  12.451  1.00  0.00     0.107 A
HETATM    9  N4  UNL     1       3.127  -4.770  11.599  1.00  0.00    -0.334 N
HETATM   10  C11 UNL     1       2.895  -4.956  10.297  1.00  0.00     0.128 A
ATOM     11  H4  UNL     1       4.058  -4.518  11.930  1.00  0.00     0.168 HD
HETATM   12  N5  UNL     1       3.955  -4.793   9.451  1.00  0.00    -0.307 N
HETATM   13  C14 UNL     1       1.642  -5.295   9.844  1.00  0.00     0.119 A
HETATM   14  C12 UNL     1       3.719  -4.977   8.152  1.00  0.00     0.226 A
ATOM     15  H5  UNL     1       4.882  -4.544   9.797  1.00  0.00     0.171 HD
HETATM   16  N6  UNL     1       4.708  -4.828   7.306  1.00  0.00    -0.365 N
HETATM   17  O5  UNL     1       2.532  -5.299   7.715  1.00  0.00    -0.242 OA
ATOM     18  H62 UNL     1       5.636  -4.576   7.647  1.00  0.00     0.159 HD
ATOM     19  H61 UNL     1       4.527  -4.969   6.312  1.00  0.00     0.159 HD
HETATM   20  C13 UNL     1       1.480  -5.470   8.480  1.00  0.00     0.307 A
HETATM   21  O6  UNL     1       0.362  -5.779   8.028  1.00  0.00    -0.259 OA
HETATM   22  C15 UNL     1       0.619  -5.446  10.725  1.00  0.00     0.158 A
HETATM   23  C16 UNL     1       0.858  -5.254  12.066  1.00  0.00     0.134 A
BRANCH  22  24
HETATM   24  N7  UNL     1      -0.687  -5.794  10.311  1.00  0.00    -0.111 N
HETATM   25  O7  UNL     1      -1.583  -4.905  10.183  1.00  0.00    -0.532 OA
HETATM   26  O8  UNL     1      -1.086  -7.106  10.063  1.00  0.00    -0.532 OA
ENDBRANCH  22  24
BRANCH  23  27
HETATM   27  O9  UNL     1      -0.135  -5.393  12.997  1.00  0.00    -0.356 OA
ATOM     28  H9  UNL     1      -0.235  -4.755  13.693  1.00  0.00     0.218 HD
ENDBRANCH  23  27
ENDBRANCH   7   8
ENDBRANCH   6   7
ENDBRANCH   5   6
ENDBRANCH   3   5
BRANCH   1  29
HETATM   29  C6  UNL     1       3.450  -9.562  11.188  1.00  0.00     0.115 A
HETATM   30  C5  UNL     1       4.771 -10.035  11.267  1.00  0.00     0.136 A
HETATM   31  C4  UNL     1       5.027 -10.793  10.133  1.00  0.00     0.179 A
HETATM   32  N2  UNL     1       3.930 -10.807   9.367  1.00  0.00    -0.301 N
HETATM   33  C17 UNL     1       2.963 -10.064   9.990  1.00  0.00     0.143 A
BRANCH  30  34
HETATM   34  O3  UNL     1       5.663  -9.792  12.287  1.00  0.00    -0.356 OA
ATOM     35  H3  UNL     1       5.506  -9.956  13.210  1.00  0.00     0.218 HD
ENDBRANCH  30  34
BRANCH  31  36
HETATM   36  O2  UNL     1       6.231 -11.420   9.865  1.00  0.00    -0.344 OA
ATOM     37  H2  UNL     1       6.940 -11.084   9.330  1.00  0.00     0.219 HD
ENDBRANCH  31  36
BRANCH  32  38
HETATM   38  C3  UNL     1       3.768 -11.561   8.121  1.00  0.00     0.235 C
BRANCH  38  39
HETATM   39  C2  UNL     1       4.294 -10.904   6.925  1.00  0.00     0.235 C
HETATM   40  N1  UNL     1       3.430 -10.696   5.829  1.00  0.00    -0.364 N
HETATM   41  C1  UNL     1       3.913 -10.053   4.637  1.00  0.00     0.149 C
ATOM     42  H1  UNL     1       2.460 -11.004   5.883  1.00  0.00     0.161 HD
HETATM   43  O1  UNL     1       5.466 -10.519   6.838  1.00  0.00    -0.272 OA
ENDBRANCH  38  39
ENDBRANCH  32  38
BRANCH  33  44
HETATM   44  N8  UNL     1       1.657  -9.867   9.466  1.00  0.00    -0.291 N
HETATM   45  N9  UNL     1       1.249  -8.818   8.884  1.00  0.00    -0.344 N
ATOM     46  H92 UNL     1       1.928  -8.062   8.792  1.00  0.00     0.176 HD
ATOM     47  H91 UNL     1       0.312  -8.677   8.508  1.00  0.00     0.176 HD
ATOM     48  H8  UNL     1       0.992 -10.634   9.567  1.00  0.00     0.188 HD
ENDBRANCH  33  44
ENDBRANCH   1  29
TORSDOF 12
ENDMDL