MODEL 5
REMARK VINA RESULT: -8.746811987      1.296      1.520
REMARK  13 active torsions:
REMARK  status: ('A' for Active; 'I' for Inactive)
REMARK    1  A    between atoms: O1_2  and  C2_3
REMARK    2  A    between atoms: C5_6  and  C6_7
REMARK    3  A    between atoms: C7_12  and  C8_13
REMARK    4  A    between atoms: C8_13  and  C9_14
REMARK    5  A    between atoms: N3_16  and  C11_17
REMARK    6  A    between atoms: C11_17  and  C12_18
REMARK    7  A    between atoms: C12_18  and  C13_19
REMARK       I    between atoms: C13_19  and  N4_21
REMARK    8  A    between atoms: N4_21  and  C14_23
REMARK    9  A    between atoms: C14_23  and  C15_24
REMARK   10  A    between atoms: C16_27  and  N6_28
REMARK   11  A    between atoms: N9_37  and  O4_38
REMARK   12  A    between atoms: C18_42  and  O5_43
REMARK   13  A    between atoms: C19_45  and  O6_46
ROOT
HETATM    1  C9  UNL     1       2.618  -7.397  13.622  1.00  0.00     0.068 A
HETATM    2  C10 UNL     1       1.274  -7.184  13.482  1.00  0.00     0.129 A
HETATM    3  N3  UNL     1       1.091  -5.938  12.949  1.00  0.00    -0.281 N
HETATM    4  C17 UNL     1       2.287  -5.409  12.770  1.00  0.00     0.356 A
HETATM    5  O3  UNL     1       2.656  -4.290  12.311  1.00  0.00    -0.244 OA
HETATM    6  N9  UNL     1       3.236  -6.298  13.180  1.00  0.00    -0.175 N
ENDROOT
BRANCH   1   7
HETATM    7  C8  UNL     1       3.292  -8.584  14.153  1.00  0.00     0.139 C
BRANCH   7   8
HETATM    8  C7  UNL     1       4.156  -9.292  13.177  1.00  0.00     0.103 A
HETATM    9  N2  UNL     1       5.498  -9.355  13.103  1.00  0.00    -0.287 N
HETATM   10  N1  UNL     1       5.836 -10.118  12.055  1.00  0.00    -0.283 N
ATOM     11  H2  UNL     1       6.151  -8.898  13.740  1.00  0.00     0.188 HD
HETATM   12  C6  UNL     1       4.718 -10.549  11.450  1.00  0.00     0.134 A
ATOM     13  H1  UNL     1       6.789 -10.336  11.763  1.00  0.00     0.188 HD
HETATM   14  N10 UNL     1       3.705 -10.035  12.147  1.00  0.00    -0.329 N
ATOM     15  H10 UNL     1       2.720 -10.184  11.930  1.00  0.00     0.168 HD
BRANCH  12  16
HETATM   16  C5  UNL     1       4.718 -11.410  10.267  1.00  0.00     0.045 A
HETATM   17  C4  UNL     1       4.461 -12.756  10.383  1.00  0.00     0.021 A
HETATM   18  C3  UNL     1       4.458 -13.575   9.259  1.00  0.00     0.041 A
HETATM   19  C2  UNL     1       4.705 -13.083   8.001  1.00  0.00     0.104 A
HETATM   20  C19 UNL     1       4.965 -11.717   7.891  1.00  0.00     0.135 A
HETATM   21  C18 UNL     1       4.968 -10.907   9.004  1.00  0.00     0.116 A
BRANCH  19  22
HETATM   22  O1  UNL     1       4.714 -13.836   6.867  1.00  0.00    -0.353 OA
HETATM   23  C1  UNL     1       3.590 -14.434   6.297  1.00  0.00     0.210 C
ENDBRANCH  19  22
BRANCH  20  24
HETATM   24  O6  UNL     1       5.214 -11.222   6.623  1.00  0.00    -0.351 OA
HETATM   25  C20 UNL     1       4.129 -10.665   5.906  1.00  0.00     0.210 C
ENDBRANCH  20  24
BRANCH  21  26
HETATM   26  O5  UNL     1       5.230  -9.528   8.889  1.00  0.00    -0.357 OA
ATOM     27  H5  UNL     1       6.119  -9.263   8.684  1.00  0.00     0.217 HD
ENDBRANCH  21  26
ENDBRANCH  12  16
ENDBRANCH   7   8
ENDBRANCH   1   7
BRANCH   6  28
HETATM   28  O4  UNL     1       4.607  -6.117  13.155  1.00  0.00    -0.279 OA
ATOM     29  H4  UNL     1       5.127  -6.014  12.367  1.00  0.00     0.245 HD
ENDBRANCH   6  28
BRANCH   3  30
HETATM   30  C11 UNL     1      -0.154  -5.335  12.648  1.00  0.00     0.106 C
BRANCH  30  31
HETATM   31  C12 UNL     1      -0.629  -5.108  11.451  1.00  0.00     0.092 C
BRANCH  31  32
HETATM   32  C13 UNL     1      -1.079  -6.213  10.580  1.00  0.00     0.246 C
HETATM   33  O2  UNL     1      -2.117  -6.830  10.899  1.00  0.00    -0.268 OA
HETATM   34  N4  UNL     1      -0.390  -6.599   9.407  1.00  0.00    -0.330 N
ATOM     35  H4  UNL     1      -0.751  -6.268   8.512  1.00  0.00     0.168 HD
BRANCH  34  36
HETATM   36  C14 UNL     1       0.663  -7.340   9.395  1.00  0.00     0.141 C
BRANCH  36  37
HETATM   37  C15 UNL     1       1.984  -6.734   9.495  1.00  0.00     0.151 A
HETATM   38  N5  UNL     1       3.134  -7.353   9.872  1.00  0.00    -0.173 N
HETATM   39  C16 UNL     1       4.096  -6.414   9.818  1.00  0.00     0.692 A
ATOM     40  H5  UNL     1       3.245  -8.331  10.140  1.00  0.00     0.186 HD
HETATM   41  N7  UNL     1       3.548  -5.231   9.416  1.00  0.00    -0.131 N
HETATM   42  N8  UNL     1       2.263  -5.458   9.227  1.00  0.00    -0.270 N
ATOM     43  H7  UNL     1       4.037  -4.345   9.287  1.00  0.00     0.205 HD
ATOM     44  H8  UNL     1       1.584  -4.761   8.921  1.00  0.00     0.189 HD
BRANCH  39  45
HETATM   45  N6  UNL     1       5.337  -6.574  10.096  1.00  0.00    -0.233 N
ATOM     46  H62 UNL     1       5.796  -6.179  10.916  1.00  0.00     0.174 HD
ATOM     47  H61 UNL     1       6.018  -7.105   9.552  1.00  0.00     0.174 HD
ENDBRANCH  39  45
ENDBRANCH  36  37
ENDBRANCH  34  36
ENDBRANCH  31  32
ENDBRANCH  30  31
ENDBRANCH   3  30
TORSDOF 13
ENDMDL