MODEL 3
REMARK VINA RESULT: -9.887049531      3.308      5.911
REMARK  8 active torsions:
REMARK  status: ('A' for Active; 'I' for Inactive)
REMARK       I    between atoms: C1_4  and  N3_6
REMARK       I    between atoms: N3_6  and  C2_8
REMARK    1  A    between atoms: C2_8  and  C3_10
REMARK    2  A    between atoms: C3_10  and  N4_11
REMARK       I    between atoms: N4_11  and  C4_13
REMARK    3  A    between atoms: C4_13  and  C5_15
REMARK    4  A    between atoms: C6_21  and  N7_22
REMARK    5  A    between atoms: C8_24  and  C9_25
REMARK    6  A    between atoms: C12_28  and  N8_29
REMARK       I    between atoms: N8_29  and  C13_31
REMARK    7  A    between atoms: C13_31  and  C14_33
REMARK    8  A    between atoms: C15_36  and  C16_37
ROOT
HETATM    1  N7  UNL     1       3.009  -8.118  12.628  1.00  0.00    -0.231 N
HETATM    2  C7  UNL     1       2.959  -7.382  11.492  1.00  0.00     0.151 A
HETATM    3  C8  UNL     1       1.881  -6.544  11.508  1.00  0.00     0.079 A
HETATM    4  N12 UNL     1       1.282  -6.814  12.713  1.00  0.00    -0.284 N
ATOM      5  H12 UNL     1       0.436  -6.366  13.066  1.00  0.00     0.188 HD
HETATM    6  N13 UNL     1       1.962  -7.730  13.336  1.00  0.00    -0.234 N
ATOM      7  H13 UNL     1       1.720  -8.102  14.254  1.00  0.00     0.209 HD
ENDROOT
BRANCH   1   8
HETATM    8  C6  UNL     1       3.964  -9.098  13.006  1.00  0.00     0.184 A
HETATM    9  C5  UNL     1       4.838  -9.040  14.095  1.00  0.00     0.171 A
HETATM   10  N5  UNL     1       5.576 -10.185  14.084  1.00  0.00    -0.232 N
HETATM   11  O3  UNL     1       5.184 -10.876  13.079  1.00  0.00    -0.154 OA
ATOM     12  H5  UNL     1       6.303 -10.445  14.751  1.00  0.00     0.197 HD
HETATM   13  N6  UNL     1       4.242 -10.276  12.421  1.00  0.00    -0.221 N
ATOM     14  H6  UNL     1       3.782 -10.643  11.587  1.00  0.00     0.198 HD
BRANCH   9  15
HETATM   15  C4  UNL     1       4.899  -7.943  15.022  1.00  0.00     0.274 C
HETATM   16  N4  UNL     1       3.780  -7.708  15.888  1.00  0.00    -0.347 N
ATOM     17  H4  UNL     1       2.960  -8.312  15.843  1.00  0.00     0.163 HD
HETATM   18  O2  UNL     1       5.883  -7.205  15.087  1.00  0.00    -0.266 OA
BRANCH  16  19
HETATM   19  C3  UNL     1       3.827  -6.617  16.817  1.00  0.00     0.226 C
BRANCH  19  20
HETATM   20  C2  UNL     1       3.357  -5.314  16.337  1.00  0.00     0.241 C
HETATM   21  N3  UNL     1       3.450  -4.146  17.117  1.00  0.00    -0.300 N
HETATM   22  C1  UNL     1       2.960  -2.920  16.557  1.00  0.00     0.188 C
ATOM     23  H3  UNL     1       3.853  -4.172  18.054  1.00  0.00     0.171 HD
HETATM   24  N1  UNL     1       3.047  -1.863  17.270  1.00  0.00    -0.373 N
HETATM   25  N2  UNL     1       2.397  -2.818  15.279  1.00  0.00    -0.064 NA
ATOM     26  H12 UNL     1       2.699  -0.990  16.872  1.00  0.00     0.158 HD
ATOM     27  H11 UNL     1       3.458  -1.937  18.201  1.00  0.00     0.158 HD
HETATM   28  O1  UNL     1       2.839  -5.234  15.153  1.00  0.00    -0.271 OA
ENDBRANCH  19  20
ENDBRANCH  16  19
ENDBRANCH   9  15
ENDBRANCH   1   8
BRANCH   3  29
HETATM   29  C9  UNL     1       1.406  -5.574  10.533  1.00  0.00     0.018 A
HETATM   30  C10 UNL     1       2.223  -4.473  10.233  1.00  0.00     0.018 A
HETATM   31  C11 UNL     1       1.852  -3.522   9.333  1.00  0.00     0.030 A
HETATM   32  C12 UNL     1       0.626  -3.569   8.637  1.00  0.00     0.036 A
HETATM   33  C18 UNL     1      -0.163  -4.647   8.935  1.00  0.00     0.057 A
HETATM   34  C19 UNL     1       0.225  -5.626   9.865  1.00  0.00     0.061 A
HETATM   35  N11 UNL     1      -0.676  -6.697  10.094  1.00  0.00    -0.101 NA
BRANCH  32  36
HETATM   36  N8  UNL     1       0.342  -2.552   7.713  1.00  0.00    -0.320 N
HETATM   37  C13 UNL     1       0.706  -2.564   6.371  1.00  0.00     0.290 C
HETATM   38  O4  UNL     1       1.339  -3.532   5.863  1.00  0.00    -0.264 OA
ATOM     39  H8  UNL     1      -0.173  -1.740   8.053  1.00  0.00     0.169 HD
BRANCH  37  40
HETATM   40  C14 UNL     1       0.355  -1.419   5.487  1.00  0.00     0.175 A
HETATM   41  N9  UNL     1       0.669  -0.135   5.624  1.00  0.00    -0.334 N
HETATM   42  C15 UNL     1       0.164   0.582   4.613  1.00  0.00     0.087 A
ATOM     43  H9  UNL     1       1.219   0.250   6.392  1.00  0.00     0.168 HD
HETATM   44  C17 UNL     1      -0.499  -0.329   3.815  1.00  0.00     0.122 A
HETATM   45  N10 UNL     1      -0.370  -1.560   4.371  1.00  0.00    -0.345 N
ATOM     46  H10 UNL     1      -0.754  -2.432   4.006  1.00  0.00     0.167 HD
BRANCH  42  47
HETATM   47  C16 UNL     1       0.257   2.013   4.355  1.00  0.00     0.289 C
HETATM   48  O5  UNL     1      -0.529   2.629   3.612  1.00  0.00    -0.300 OA
ENDBRANCH  42  47
ENDBRANCH  37  40
ENDBRANCH  32  36
ENDBRANCH   3  29
TORSDOF 8
ENDMDL