MODEL 2
REMARK VINA RESULT: -8.735706284      0.817      1.173
REMARK  13 active torsions:
REMARK  status: ('A' for Active; 'I' for Inactive)
REMARK    1  A    between atoms: C2_3  and  S1_4
REMARK    2  A    between atoms: S1_4  and  C3_5
REMARK    3  A    between atoms: C3_5  and  C4_6
REMARK    4  A    between atoms: C5_12  and  N4_13
REMARK    5  A    between atoms: C7_21  and  N7_22
REMARK    6  A    between atoms: C8_27  and  N9_28
REMARK    7  A    between atoms: N9_28  and  C9_30
REMARK    8  A    between atoms: C9_30  and  C10_31
REMARK    9  A    between atoms: C10_31  and  N10_32
REMARK       I    between atoms: N10_32  and  C11_34
REMARK   10  A    between atoms: C11_34  and  C12_36
REMARK   11  A    between atoms: C14_38  and  C15_39
REMARK   12  A    between atoms: C15_39  and  O3_40
REMARK   13  A    between atoms: C16_43  and  O5_44
ROOT
HETATM    1  C1  UNL     1       1.211  -7.075   9.871  1.00  0.00     0.161 C
HETATM    2  N1  UNL     1       1.653  -6.555  11.138  1.00  0.00    -0.298 N
HETATM    3  C2  UNL     1       1.749  -5.220  11.269  1.00  0.00     0.150 A
HETATM    4  N5  UNL     1       2.165  -4.747  12.458  1.00  0.00    -0.321 N
ATOM      5  H5  UNL     1       2.246  -3.737  12.579  1.00  0.00     0.169 HD
HETATM    6  C6  UNL     1       2.478  -5.547  13.499  1.00  0.00     0.142 A
HETATM    7  N6  UNL     1       2.892  -5.076  14.688  1.00  0.00    -0.176 N
ATOM      8  H6  UNL     1       2.973  -4.066  14.808  1.00  0.00     0.186 HD
HETATM    9  C7  UNL     1       3.207  -5.871  15.729  1.00  0.00     0.679 A
HETATM   10  N8  UNL     1       3.110  -7.207  15.597  1.00  0.00    -0.176 N
ATOM     11  H8  UNL     1       3.348  -7.812  16.383  1.00  0.00     0.186 HD
HETATM   12  C8  UNL     1       2.697  -7.756  14.422  1.00  0.00     0.136 A
HETATM   13  C17 UNL     1       2.381  -6.921  13.371  1.00  0.00     0.121 A
HETATM   14  C18 UNL     1       1.955  -7.402  12.148  1.00  0.00     0.267 A
HETATM   15  O6  UNL     1       1.865  -8.659  12.027  1.00  0.00    -0.267 OA
ENDROOT
BRANCH  12  16
HETATM   16  N9  UNL     1       2.584  -9.011  14.232  1.00  0.00    -0.373 N
ATOM     17  H9  UNL     1       1.718  -9.350  13.813  1.00  0.00     0.161 HD
BRANCH  16  18
HETATM   18  C9  UNL     1       3.597  -9.992  14.568  1.00  0.00     0.141 C
BRANCH  18  19
HETATM   19  C10 UNL     1       4.794  -9.695  13.693  1.00  0.00     0.142 C
BRANCH  19  20
HETATM   20  N10 UNL     1       4.442  -9.732  12.309  1.00  0.00    -0.355 N
HETATM   21  C11 UNL     1       4.885 -10.692  11.372  1.00  0.00     0.256 C
HETATM   22  O2  UNL     1       5.654 -11.607  11.750  1.00  0.00    -0.267 OA
ATOM     23  H10 UNL     1       3.817  -9.002  11.968  1.00  0.00     0.162 HD
BRANCH  21  24
HETATM   24  C12 UNL     1       4.463 -10.633   9.978  1.00  0.00     0.092 A
HETATM   25  C13 UNL     1       3.194 -10.320   9.509  1.00  0.00     0.057 A
HETATM   26  C14 UNL     1       3.239 -10.383   8.128  1.00  0.00     0.080 A
HETATM   27  O4  UNL     1       4.453 -10.713   7.783  1.00  0.00    -0.289 OA
HETATM   28  C16 UNL     1       5.208 -10.870   8.842  1.00  0.00     0.199 A
BRANCH  26  29
HETATM   29  C15 UNL     1       2.110 -10.123   7.204  1.00  0.00     0.229 C
BRANCH  29  30
HETATM   30  O3  UNL     1       2.259  -8.967   6.469  1.00  0.00    -0.394 OA
ATOM     31  H3  UNL     1       1.531  -8.364   6.563  1.00  0.00     0.209 HD
ENDBRANCH  29  30
ENDBRANCH  26  29
BRANCH  28  32
HETATM   32  O5  UNL     1       6.548 -11.222   8.814  1.00  0.00    -0.340 OA
ATOM     33  H5  UNL     1       6.894 -12.060   8.531  1.00  0.00     0.220 HD
ENDBRANCH  28  32
ENDBRANCH  21  24
ENDBRANCH  19  20
ENDBRANCH  18  19
ENDBRANCH  16  18
ENDBRANCH  12  16
BRANCH   9  34
HETATM   34  N7  UNL     1       3.603  -5.383  16.862  1.00  0.00    -0.234 N
ATOM     35  H72 UNL     1       3.048  -4.650  17.303  1.00  0.00     0.174 HD
ATOM     36  H71 UNL     1       4.453  -5.714  17.319  1.00  0.00     0.174 HD
ENDBRANCH   9  34
BRANCH   3  37
HETATM   37  S1  UNL     1       1.342  -4.113   9.910  1.00  0.00    -0.087 SA
BRANCH  37  38
HETATM   38  C3  UNL     1       2.829  -3.290   9.282  1.00  0.00     0.145 C
BRANCH  38  39
HETATM   39  C4  UNL     1       3.178  -3.941   7.992  1.00  0.00     0.089 A
HETATM   40  N2  UNL     1       2.801  -3.662   6.748  1.00  0.00    -0.241 N
HETATM   41  O1  UNL     1       3.366  -4.505   5.955  1.00  0.00    -0.155 OA
ATOM     42  H2  UNL     1       2.172  -2.909   6.469  1.00  0.00     0.196 HD
HETATM   43  N3  UNL     1       4.115  -5.348   6.604  1.00  0.00    -0.224 N
HETATM   44  C5  UNL     1       4.025  -5.025   7.901  1.00  0.00     0.146 A
ATOM     45  H3  UNL     1       4.664  -6.109   6.203  1.00  0.00     0.198 HD
BRANCH  44  46
HETATM   46  N4  UNL     1       4.624  -5.627   8.878  1.00  0.00    -0.382 N
ATOM     47  H42 UNL     1       4.816  -6.627   8.939  1.00  0.00     0.157 HD
ATOM     48  H41 UNL     1       4.991  -5.199   9.728  1.00  0.00     0.157 HD
ENDBRANCH  44  46
ENDBRANCH  38  39
ENDBRANCH  37  38
ENDBRANCH   3  37
TORSDOF 13
ENDMDL