MODEL 3
REMARK VINA RESULT: -9.238339193      3.170      5.788
REMARK  12 active torsions:
REMARK  status: ('A' for Active; 'I' for Inactive)
REMARK    1  A    between atoms: C2_2  and  C4_4
REMARK    2  A    between atoms: C4_4  and  N1_5
REMARK    3  A    between atoms: C4_4  and  C22_33
REMARK       I    between atoms: N1_5  and  C5_7
REMARK       I    between atoms: C5_7  and  N2_9
REMARK    4  A    between atoms: N2_9  and  C6_11
REMARK    5  A    between atoms: C6_11  and  C7_12
REMARK    6  A    between atoms: C6_11  and  C18_29
REMARK       I    between atoms: C7_12  and  N3_14
REMARK    7  A    between atoms: C9_16  and  O3_17
REMARK    8  A    between atoms: C9_16  and  N4_19
REMARK    9  A    between atoms: C22_33  and  C23_35
REMARK       I    between atoms: C23_35  and  N5_37
REMARK   10  A    between atoms: N5_37  and  C24_39
REMARK   11  A    between atoms: C25_40  and  O6_41
REMARK   12  A    between atoms: O6_41  and  C26_42
REMARK       I    between atoms: C26_42  and  N6_44
ROOT
HETATM    1  N1  UNL     1       4.459   0.407 -12.900  1.00  0.00    -0.331 N
ATOM      2  H1  UNL     1       4.079   1.320 -12.652  1.00  0.00     0.165 HD
HETATM    3  C5  UNL     1       5.772   0.141 -12.448  1.00  0.00     0.317 C
HETATM    4  O1  UNL     1       6.200  -1.026 -12.753  1.00  0.00    -0.247 OA
HETATM    5  N2  UNL     1       6.563   1.006 -11.743  1.00  0.00    -0.329 N
ATOM      6  H2  UNL     1       6.112   1.912 -11.610  1.00  0.00     0.165 HD
ENDROOT
BRANCH   1   7
HETATM    7  C4  UNL     1       3.603  -0.438 -13.655  1.00  0.00     0.169 C
BRANCH   7   8
HETATM    8  C2  UNL     1       2.436  -0.968 -12.874  1.00  0.00     0.008 C
HETATM    9  C1  UNL     1       2.914  -1.775 -11.652  1.00  0.00     0.012 C
HETATM   10  C3  UNL     1       1.417   0.015 -12.444  1.00  0.00     0.012 C
ENDBRANCH   7   8
BRANCH   7  11
HETATM   11  C22 UNL     1       3.177   0.276 -14.873  1.00  0.00     0.239 C
HETATM   12  O4  UNL     1       2.539  -0.400 -15.778  1.00  0.00    -0.285 OA
BRANCH  11  13
HETATM   13  C23 UNL     1       3.379   1.657 -15.212  1.00  0.00     0.291 C
HETATM   14  O5  UNL     1       2.850   2.568 -14.549  1.00  0.00    -0.264 OA
HETATM   15  N5  UNL     1       4.194   2.031 -16.312  1.00  0.00    -0.322 N
ATOM     16  H5  UNL     1       4.621   1.305 -16.889  1.00  0.00     0.165 HD
BRANCH  15  17
HETATM   17  C24 UNL     1       4.426   3.399 -16.626  1.00  0.00     0.355 C
HETATM   18  C25 UNL     1       4.666   3.818 -18.035  1.00  0.00     0.215 C
HETATM   19  C31 UNL     1       6.043   3.301 -17.802  1.00  0.00     0.311 C
HETATM   20  N7  UNL     1       5.875   3.654 -16.397  1.00  0.00     0.112 N
HETATM   21  C32 UNL     1       6.052   5.032 -16.068  1.00  0.00     0.312 C
BRANCH  18  22
HETATM   22  O6  UNL     1       3.899   3.209 -19.047  1.00  0.00    -0.293 OA
BRANCH  22  23
HETATM   23  C26 UNL     1       4.572   2.679 -20.147  1.00  0.00     0.363 C
HETATM   24  O7  UNL     1       5.098   3.440 -20.995  1.00  0.00    -0.238 OA
HETATM   25  N6  UNL     1       4.677   1.284 -20.333  1.00  0.00    -0.324 N
HETATM   26  C27 UNL     1       4.111   0.334 -19.365  1.00  0.00     0.154 C
HETATM   27  C30 UNL     1       5.335   0.689 -21.492  1.00  0.00     0.154 C
HETATM   28  C28 UNL     1       4.613  -1.039 -19.765  1.00  0.00     0.187 C
HETATM   29  O8  UNL     1       4.269  -1.407 -21.046  1.00  0.00    -0.388 OA
HETATM   30  C29 UNL     1       4.362  -0.392 -21.968  1.00  0.00     0.187 C
ENDBRANCH  22  23
ENDBRANCH  18  22
ENDBRANCH  15  17
ENDBRANCH  11  13
ENDBRANCH   7  11
ENDBRANCH   1   7
BRANCH   5  31
HETATM   31  C6  UNL     1       7.870   0.965 -11.139  1.00  0.00     0.186 C
BRANCH  31  32
HETATM   32  C7  UNL     1       8.668   2.086 -11.671  1.00  0.00     0.249 C
HETATM   33  O2  UNL     1       8.263   3.289 -11.514  1.00  0.00    -0.271 OA
HETATM   34  N3  UNL     1       9.919   1.940 -12.402  1.00  0.00    -0.296 N
HETATM   35  C8  UNL     1      10.594   3.122 -12.784  1.00  0.00     0.076 C
HETATM   36  C15 UNL     1      10.451   0.730 -12.895  1.00  0.00     0.082 C
HETATM   37  C9  UNL     1      11.556   3.852 -12.006  1.00  0.00     0.162 C
HETATM   38  C14 UNL     1      11.146   2.956 -14.211  1.00  0.00     0.138 C
HETATM   39  S1  UNL     1      11.879   1.317 -13.974  1.00  0.00    -0.132 SA
HETATM   40  C16 UNL     1       9.558   0.042 -13.960  1.00  0.00     0.051 C
HETATM   41  C17 UNL     1      10.945  -0.361 -12.039  1.00  0.00     0.051 C
BRANCH  37  42
HETATM   42  O3  UNL     1      11.625   5.161 -12.346  1.00  0.00    -0.345 OA
ATOM     43  H3  UNL     1      12.452   5.562 -12.106  1.00  0.00     0.219 HD
ENDBRANCH  37  42
BRANCH  37  44
HETATM   44  N4  UNL     1      12.460   3.588 -10.985  1.00  0.00    -0.360 N
HETATM   45  C10 UNL     1      13.904   3.924 -11.064  1.00  0.00     0.125 C
HETATM   46  C11 UNL     1      14.524   2.755 -10.312  1.00  0.00     0.021 C
HETATM   47  C12 UNL     1      13.642   2.762  -9.075  1.00  0.00     0.021 C
HETATM   48  C13 UNL     1      12.279   2.953  -9.731  1.00  0.00     0.125 C
ENDBRANCH  37  44
ENDBRANCH  31  32
BRANCH  31  49
HETATM   49  C18 UNL     1       7.671   0.989  -9.641  1.00  0.00    -0.022 C
HETATM   50  C19 UNL     1       6.557   1.999  -9.288  1.00  0.00     0.017 C
HETATM   51  C20 UNL     1       7.257  -0.350  -9.147  1.00  0.00     0.017 C
HETATM   52  C21 UNL     1       8.876   1.444  -8.897  1.00  0.00     0.017 C
ENDBRANCH  31  49
ENDBRANCH   5  31
TORSDOF 12
ENDMDL