MODEL 5
REMARK VINA RESULT: -9.598427409      2.537      3.870
REMARK  14 active torsions:
REMARK  status: ('A' for Active; 'I' for Inactive)
REMARK    1  A    between atoms: C2_2  and  N1_3
REMARK    2  A    between atoms: C2_2  and  C28_43
REMARK    3  A    between atoms: N1_3  and  C3_4
REMARK    4  A    between atoms: C3_4  and  C4_5
REMARK    5  A    between atoms: C3_4  and  C24_39
REMARK       I    between atoms: C4_5  and  N2_7
REMARK       I    between atoms: N2_7  and  C5_9
REMARK    6  A    between atoms: C5_9  and  C6_11
REMARK       I    between atoms: N3_15  and  C10_16
REMARK    7  A    between atoms: C10_16  and  C11_18
REMARK    8  A    between atoms: C11_18  and  N4_20
REMARK       I    between atoms: N4_20  and  C13_22
REMARK    9  A    between atoms: C13_22  and  C14_24
REMARK   10  A    between atoms: N5_28  and  C18_29
REMARK   11  A    between atoms: C18_29  and  O5_30
REMARK   12  A    between atoms: C18_29  and  N6_32
REMARK   13  A    between atoms: C28_43  and  O7_46
REMARK   14  A    between atoms: O7_46  and  S1_47
ROOT
HETATM    1  C6  UNL     1       5.759   2.186 -14.629  1.00  0.00     0.179 C
HETATM    2  C7  UNL     1       5.854   2.949 -15.937  1.00  0.00     0.037 C
HETATM    3  C8  UNL     1       4.759   3.956 -15.839  1.00  0.00     0.022 C
HETATM    4  C9  UNL     1       3.967   3.666 -14.603  1.00  0.00     0.127 C
HETATM    5  N3  UNL     1       4.386   2.351 -14.197  1.00  0.00    -0.337 N
HETATM    6  C10 UNL     1       3.613   1.408 -13.510  1.00  0.00     0.243 C
HETATM    7  O3  UNL     1       2.419   1.726 -13.197  1.00  0.00    -0.271 OA
ENDROOT
BRANCH   1   8
HETATM    8  C5  UNL     1       6.697   2.848 -13.699  1.00  0.00     0.247 C
HETATM    9  N2  UNL     1       7.422   2.083 -12.748  1.00  0.00    -0.293 N
HETATM   10  C4  UNL     1       8.300   2.739 -11.825  1.00  0.00     0.260 C
ATOM     11  H2  UNL     1       7.319   1.069 -12.723  1.00  0.00     0.172 HD
HETATM   12  O1  UNL     1       8.406   3.979 -11.919  1.00  0.00    -0.270 OA
HETATM   13  O2  UNL     1       6.829   4.088 -13.774  1.00  0.00    -0.271 OA
BRANCH  10  14
HETATM   14  C3  UNL     1       9.078   2.001 -10.762  1.00  0.00     0.262 C
BRANCH  14  15
HETATM   15  N1  UNL     1       9.902   1.082 -11.257  1.00  0.00    -0.438 NA
BRANCH  15  16
HETATM   16  C2  UNL     1      10.693   0.339 -11.721  1.00  0.00     0.088 C
HETATM   17  C1  UNL     1      10.469  -0.337 -13.052  1.00  0.00     0.083 C
BRANCH  16  18
HETATM   18  C28 UNL     1      12.007   0.006 -11.100  1.00  0.00     0.126 C
HETATM   19  C29 UNL     1      11.876  -1.471 -10.690  1.00  0.00     0.055 C
HETATM   20  C30 UNL     1      12.292   0.817  -9.891  1.00  0.00     0.055 C
BRANCH  18  21
HETATM   21  O7  UNL     1      12.951   0.173 -12.114  1.00  0.00    -0.239 OA
BRANCH  21  22
HETATM   22  S1  UNL     1      14.524   0.010 -11.630  1.00  0.00     0.252 S
HETATM   23  O8  UNL     1      15.412   0.668 -12.654  1.00  0.00    -0.572 OA
HETATM   24  O9  UNL     1      14.792   0.442 -10.236  1.00  0.00    -0.572 OA
HETATM   25  O10 UNL     1      14.916  -1.646 -11.705  1.00  0.00    -0.572 OA
ENDBRANCH  21  22
ENDBRANCH  18  21
ENDBRANCH  16  18
ENDBRANCH  15  16
ENDBRANCH  14  15
BRANCH  14  26
HETATM   26  C24 UNL     1       8.101   1.405  -9.741  1.00  0.00    -0.010 C
HETATM   27  C25 UNL     1       7.842  -0.056  -9.935  1.00  0.00     0.018 C
HETATM   28  C26 UNL     1       8.833   1.501  -8.375  1.00  0.00     0.018 C
HETATM   29  C27 UNL     1       6.859   2.212  -9.561  1.00  0.00     0.018 C
ENDBRANCH  14  26
ENDBRANCH  10  14
ENDBRANCH   1   8
BRANCH   6  30
HETATM   30  C11 UNL     1       4.063   0.074 -13.115  1.00  0.00     0.172 C
HETATM   31  C12 UNL     1       4.953   0.104 -11.891  1.00  0.00     0.042 C
BRANCH  30  32
HETATM   32  N4  UNL     1       2.950  -0.834 -12.877  1.00  0.00    -0.346 N
HETATM   33  C13 UNL     1       3.002  -2.226 -12.825  1.00  0.00     0.241 C
HETATM   34  O4  UNL     1       4.070  -2.877 -13.003  1.00  0.00    -0.271 OA
ATOM     35  H4  UNL     1       2.035  -0.406 -12.734  1.00  0.00     0.163 HD
BRANCH  33  36
HETATM   36  C14 UNL     1       1.771  -3.030 -12.550  1.00  0.00     0.179 C
HETATM   37  C15 UNL     1       1.733  -4.238 -13.489  1.00  0.00     0.037 C
HETATM   38  C16 UNL     1       1.341  -3.627 -14.826  1.00  0.00     0.022 C
HETATM   39  C17 UNL     1       0.443  -2.469 -14.412  1.00  0.00     0.127 C
HETATM   40  N5  UNL     1       0.552  -2.336 -12.982  1.00  0.00    -0.334 N
BRANCH  40  41
HETATM   41  C18 UNL     1      -0.354  -1.687 -12.104  1.00  0.00     0.218 C
BRANCH  41  42
HETATM   42  O5  UNL     1       0.059  -0.515 -11.718  1.00  0.00    -0.332 OA
ATOM     43  H5  UNL     1       0.296  -0.487 -10.799  1.00  0.00     0.220 HD
ENDBRANCH  41  42
BRANCH  41  44
HETATM   44  N6  UNL     1      -1.580  -2.101 -11.607  1.00  0.00    -0.347 N
HETATM   45  C19 UNL     1      -2.558  -1.351 -10.862  1.00  0.00     0.134 C
HETATM   46  C20 UNL     1      -3.761  -1.003 -11.725  1.00  0.00     0.098 C
HETATM   47  C21 UNL     1      -3.840  -2.092 -12.759  1.00  0.00     0.130 C
HETATM   48  O6  UNL     1      -4.189  -1.812 -13.881  1.00  0.00    -0.298 OA
HETATM   49  C22 UNL     1      -3.480  -3.469 -12.330  1.00  0.00     0.098 C
HETATM   50  C23 UNL     1      -2.018  -3.510 -11.876  1.00  0.00     0.134 C
ENDBRANCH  41  44
ENDBRANCH  40  41
ENDBRANCH  33  36
ENDBRANCH  30  32
ENDBRANCH   6  30
TORSDOF 14
ENDMDL