MODEL 4
REMARK VINA RESULT: -7.849803965      2.803      5.626
REMARK  13 active torsions:
REMARK  status: ('A' for Active; 'I' for Inactive)
REMARK    1  A    between atoms: C2_2  and  C4_4
REMARK    2  A    between atoms: C4_4  and  N1_5
REMARK    3  A    between atoms: C4_4  and  C11_15
REMARK       I    between atoms: N1_5  and  C5_7
REMARK    4  A    between atoms: C5_7  and  C6_9
REMARK       I    between atoms: C11_15  and  N2_17
REMARK       I    between atoms: N3_20  and  C14_21
REMARK       I    between atoms: C14_21  and  N4_23
REMARK    5  A    between atoms: N4_23  and  S1_25
REMARK    6  A    between atoms: S1_25  and  C15_28
REMARK    7  A    between atoms: C16_29  and  O7_30
REMARK    8  A    between atoms: C16_29  and  N5_32
REMARK    9  A    between atoms: C19_35  and  O8_36
REMARK   10  A    between atoms: O8_36  and  C20_37
REMARK   11  A    between atoms: C20_37  and  O9_38
REMARK   12  A    between atoms: C20_37  and  N6_40
REMARK   13  A    between atoms: N6_40  and  C21_41
ROOT
HETATM    1  C21 UNL     1       7.914  -3.530 -11.769  1.00  0.00     0.185 A
HETATM    2  C22 UNL     1       7.412  -2.840 -10.537  1.00  0.00     0.105 C
HETATM    3  N7  UNL     1       7.021  -2.286  -9.603  1.00  0.00    -0.193 NA
HETATM    4  C23 UNL     1       9.379  -3.783 -11.741  1.00  0.00     0.066 A
HETATM    5  C24 UNL     1       8.880  -2.669 -12.606  1.00  0.00     0.066 A
ENDROOT
BRANCH   1   6
HETATM    6  N6  UNL     1       7.008  -4.297 -12.479  1.00  0.00    -0.377 NA
BRANCH   6   7
HETATM    7  C20 UNL     1       6.117  -5.048 -13.175  1.00  0.00     0.337 C
BRANCH   7   8
HETATM    8  O8  UNL     1       4.916  -4.732 -13.633  1.00  0.00    -0.300 OA
BRANCH   8   9
HETATM    9  C19 UNL     1       3.771  -4.426 -14.119  1.00  0.00     0.137 C
HETATM   10  C18 UNL     1       3.646  -4.455 -15.648  1.00  0.00     0.052 C
HETATM   11  C17 UNL     1       2.193  -4.180 -15.936  1.00  0.00     0.128 C
HETATM   12  N5  UNL     1       1.792  -2.825 -15.431  1.00  0.00    -0.353 N
HETATM   13  C26 UNL     1       2.026  -2.678 -14.036  1.00  0.00     0.029 C
HETATM   14  C25 UNL     1       3.503  -2.933 -13.788  1.00  0.00     0.063 C
HETATM   15  C27 UNL     1       1.760  -1.345 -13.402  1.00  0.00     0.038 C
HETATM   16  C28 UNL     1       1.262  -3.723 -13.197  1.00  0.00     0.038 C
BRANCH  12  17
HETATM   17  C16 UNL     1       1.251  -1.918 -16.336  1.00  0.00     0.151 C
HETATM   18  C15 UNL     1       1.526  -1.255 -17.564  1.00  0.00     0.187 C
BRANCH  18  19
HETATM   19  S1  UNL     1       2.402   0.236 -17.670  1.00  0.00     0.260 S
HETATM   20  O5  UNL     1       1.417   1.241 -18.373  1.00  0.00    -0.201 OA
HETATM   21  O6  UNL     1       3.591   0.279 -18.566  1.00  0.00    -0.201 OA
BRANCH  19  22
HETATM   22  N4  UNL     1       2.758   0.973 -16.160  1.00  0.00    -0.232 N
HETATM   23  C14 UNL     1       3.740   1.970 -15.953  1.00  0.00     0.332 C
HETATM   24  N3  UNL     1       3.955   2.491 -14.653  1.00  0.00    -0.327 N
HETATM   25  O4  UNL     1       4.399   2.366 -16.959  1.00  0.00    -0.246 OA
HETATM   26  C13 UNL     1       3.215   2.084 -13.495  1.00  0.00     0.148 C
HETATM   27  C29 UNL     1       4.976   3.474 -14.440  1.00  0.00     0.172 C
HETATM   28  C12 UNL     1       4.145   1.299 -12.568  1.00  0.00     0.151 C
HETATM   29  N2  UNL     1       5.433   2.002 -12.525  1.00  0.00    -0.327 N
HETATM   30  C11 UNL     1       6.493   1.290 -11.861  1.00  0.00     0.246 C
HETATM   31  C30 UNL     1       5.667   3.255 -13.124  1.00  0.00     0.086 C
HETATM   32  O3  UNL     1       6.191   0.056 -11.591  1.00  0.00    -0.271 OA
ATOM     33  H4  UNL     1       2.219   0.669 -15.350  1.00  0.00     0.183 HD
BRANCH  30  34
HETATM   34  C4  UNL     1       7.773   1.830 -11.498  1.00  0.00     0.180 C
BRANCH  34  35
HETATM   35  C2  UNL     1       7.802   2.202  -9.974  1.00  0.00     0.009 C
HETATM   36  C1  UNL     1       8.443   1.138  -9.153  1.00  0.00     0.012 C
HETATM   37  C3  UNL     1       6.356   2.330  -9.545  1.00  0.00     0.012 C
ENDBRANCH  34  35
BRANCH  34  38
HETATM   38  N1  UNL     1       8.924   0.903 -11.675  1.00  0.00    -0.347 N
HETATM   39  C5  UNL     1      10.144   1.332 -12.179  1.00  0.00     0.224 C
HETATM   40  O1  UNL     1      10.269   2.574 -12.503  1.00  0.00    -0.273 OA
ATOM     41  H1  UNL     1       8.813  -0.078 -11.418  1.00  0.00     0.163 HD
BRANCH  39  42
HETATM   42  C6  UNL     1      11.323   0.487 -12.381  1.00  0.00     0.102 C
HETATM   43  C7  UNL     1      11.526  -0.535 -11.289  1.00  0.00     0.018 C
HETATM   44  C8  UNL     1      12.558  -0.007 -10.307  1.00  0.00     0.027 C
HETATM   45  C9  UNL     1      13.896   0.087 -11.038  1.00  0.00     0.167 C
HETATM   46  O2  UNL     1      13.672   0.349 -12.391  1.00  0.00    -0.390 OA
HETATM   47  C10 UNL     1      12.602   1.211 -12.618  1.00  0.00     0.181 C
ENDBRANCH  39  42
ENDBRANCH  34  38
ENDBRANCH  30  34
ENDBRANCH  19  22
ENDBRANCH  18  19
BRANCH  17  48
HETATM   48  O7  UNL     1       0.000  -1.547 -15.891  1.00  0.00    -0.346 OA
ATOM     49  H7  UNL     1      -0.162  -1.948 -15.046  1.00  0.00     0.219 HD
ENDBRANCH  17  48
ENDBRANCH  12  17
ENDBRANCH   8   9
ENDBRANCH   7   8
BRANCH   7  50
HETATM   50  O9  UNL     1       6.308  -6.301 -13.534  1.00  0.00    -0.316 OA
ATOM     51  H9  UNL     1       5.944  -6.822 -12.828  1.00  0.00     0.222 HD
ENDBRANCH   7  50
ENDBRANCH   6   7
ENDBRANCH   1   6
TORSDOF 13
ENDMDL