MODEL 1
REMARK VINA RESULT: -8.320952726      0.000      0.000
REMARK  13 active torsions:
REMARK  status: ('A' for Active; 'I' for Inactive)
REMARK    1  A    between atoms: C2_2  and  N1_4
REMARK    2  A    between atoms: N2_5  and  C4_6
REMARK    3  A    between atoms: C4_6  and  C5_7
REMARK       I    between atoms: C5_7  and  N3_9
REMARK    4  A    between atoms: N3_9  and  C6_11
REMARK    5  A    between atoms: C6_11  and  C7_12
REMARK    6  A    between atoms: C6_11  and  C12_19
REMARK    7  A    between atoms: C7_12  and  O3_14
REMARK    8  A    between atoms: O3_14  and  C8_15
REMARK    9  A    between atoms: C16_23  and  C17_24
REMARK       I    between atoms: C17_24  and  N4_26
REMARK   10  A    between atoms: N4_26  and  C18_28
REMARK   11  A    between atoms: C18_28  and  C19_29
REMARK       I    between atoms: C19_29  and  N5_31
REMARK   12  A    between atoms: N5_31  and  S1_33
REMARK   13  A    between atoms: S1_33  and  C20_36
ROOT
HETATM    1  N1  UNL     1       8.098  -0.516 -11.189  1.00  0.00    -0.131 NA
HETATM    2  N2  UNL     1       9.236  -0.058 -11.815  1.00  0.00    -0.190 NA
HETATM    3  C16 UNL     1      10.255  -1.065 -11.771  1.00  0.00     0.087 C
HETATM    4  C27 UNL     1       9.797  -2.429 -11.553  1.00  0.00     0.217 C
HETATM    5  S3  UNL     1       8.033  -2.228 -11.357  1.00  0.00     0.230 S
HETATM    6  O8  UNL     1       7.335  -2.676 -12.595  1.00  0.00    -0.210 OA
HETATM    7  O9  UNL     1       7.534  -2.931 -10.136  1.00  0.00    -0.210 OA
ENDROOT
BRANCH   3   8
HETATM    8  C17 UNL     1      11.445  -0.619 -10.982  1.00  0.00     0.262 C
HETATM    9  O4  UNL     1      12.026  -1.568 -10.349  1.00  0.00    -0.267 OA
HETATM   10  N4  UNL     1      11.835   0.709 -10.972  1.00  0.00    -0.336 N
ATOM     11  H4  UNL     1      11.271   1.343 -11.539  1.00  0.00     0.164 HD
BRANCH  10  12
HETATM   12  C18 UNL     1      12.943   1.315 -10.256  1.00  0.00     0.139 A
HETATM   13  C23 UNL     1      12.820   1.147  -8.795  1.00  0.00     0.117 A
HETATM   14  S2  UNL     1      12.824   2.893  -8.405  1.00  0.00    -0.154 SA
HETATM   15  C24 UNL     1      12.949   2.781 -10.167  1.00  0.00     0.036 A
HETATM   16  C25 UNL     1      14.299   3.372 -10.612  1.00  0.00     0.030 C
HETATM   17  C26 UNL     1      11.878   3.538 -10.949  1.00  0.00     0.030 C
BRANCH  12  18
HETATM   18  C19 UNL     1      14.276   0.820 -10.780  1.00  0.00     0.261 C
HETATM   19  O5  UNL     1      15.067   0.254  -9.987  1.00  0.00    -0.270 OA
HETATM   20  N5  UNL     1      14.655   0.981 -12.123  1.00  0.00    -0.252 N
ATOM     21  H5  UNL     1      13.995   1.453 -12.742  1.00  0.00     0.181 HD
BRANCH  20  22
HETATM   22  S1  UNL     1      16.132   0.451 -12.806  1.00  0.00     0.237 S
HETATM   23  O6  UNL     1      16.130   0.870 -14.256  1.00  0.00    -0.205 OA
HETATM   24  O7  UNL     1      16.148  -1.062 -12.759  1.00  0.00    -0.205 OA
BRANCH  22  25
HETATM   25  C20 UNL     1      17.563   1.104 -11.972  1.00  0.00     0.130 A
HETATM   26  C21 UNL     1      18.510   1.897 -12.864  1.00  0.00     0.023 A
HETATM   27  C22 UNL     1      17.619   2.613 -11.905  1.00  0.00     0.023 A
ENDBRANCH  22  25
ENDBRANCH  20  22
ENDBRANCH  12  18
ENDBRANCH  10  12
ENDBRANCH   3   8
BRANCH   2  28
HETATM   28  C4  UNL     1       8.858   0.152 -13.216  1.00  0.00     0.218 C
BRANCH  28  29
HETATM   29  C5  UNL     1       9.031   1.552 -13.681  1.00  0.00     0.236 C
HETATM   30  O1  UNL     1      10.212   2.050 -13.604  1.00  0.00    -0.272 OA
HETATM   31  N3  UNL     1       7.993   2.343 -14.180  1.00  0.00    -0.324 N
ATOM     32  H3  UNL     1       7.068   1.914 -14.214  1.00  0.00     0.169 HD
BRANCH  31  33
HETATM   33  C6  UNL     1       8.090   3.686 -14.646  1.00  0.00     0.095 C
BRANCH  33  34
HETATM   34  C7  UNL     1       8.146   4.761 -13.659  1.00  0.00     0.307 C
HETATM   35  O2  UNL     1       9.203   5.290 -13.272  1.00  0.00    -0.258 OA
BRANCH  34  36
HETATM   36  O3  UNL     1       6.974   5.227 -13.115  1.00  0.00    -0.306 OA
BRANCH  36  37
HETATM   37  C8  UNL     1       6.336   4.755 -11.976  1.00  0.00     0.060 C
HETATM   38  C9  UNL     1       4.985   4.172 -12.419  1.00  0.00     0.046 C
HETATM   39  C10 UNL     1       7.063   3.705 -11.207  1.00  0.00     0.046 C
HETATM   40  C11 UNL     1       5.967   5.876 -11.011  1.00  0.00     0.046 C
ENDBRANCH  36  37
ENDBRANCH  34  36
ENDBRANCH  33  34
BRANCH  33  41
HETATM   41  C12 UNL     1       7.175   3.887 -15.817  1.00  0.00    -0.003 C
HETATM   42  C13 UNL     1       5.934   3.044 -15.768  1.00  0.00     0.021 C
HETATM   43  C14 UNL     1       6.873   5.343 -16.019  1.00  0.00     0.021 C
HETATM   44  C15 UNL     1       7.948   3.406 -17.052  1.00  0.00     0.021 C
ENDBRANCH  33  41
ENDBRANCH  31  33
ENDBRANCH  28  29
ENDBRANCH   2  28
BRANCH   1  45
HETATM   45  C2  UNL     1       7.790  -0.083  -9.871  1.00  0.00     0.084 C
HETATM   46  C1  UNL     1       6.404   0.387  -9.617  1.00  0.00     0.028 C
HETATM   47  C3  UNL     1       8.728   1.099  -9.574  1.00  0.00     0.028 C
ENDBRANCH   1  45
TORSDOF 13
ENDMDL