MODEL 2
REMARK VINA RESULT: -9.707206711      1.525      2.170
REMARK  14 active torsions:
REMARK  status: ('A' for Active; 'I' for Inactive)
REMARK    1  A    between atoms: C2_2  and  O1_3
REMARK    2  A    between atoms: O1_3  and  C3_4
REMARK       I    between atoms: C3_4  and  N1_6
REMARK    3  A    between atoms: N2_9  and  C6_10
REMARK    4  A    between atoms: C6_10  and  O3_11
REMARK    5  A    between atoms: C6_10  and  N3_13
REMARK    6  A    between atoms: N4_16  and  C9_17
REMARK    7  A    between atoms: C9_17  and  O4_18
REMARK    8  A    between atoms: C10_20  and  C11_21
REMARK    9  A    between atoms: C10_20  and  N7_29
REMARK   10  A    between atoms: C11_21  and  C12_22
REMARK       I    between atoms: N7_29  and  C15_31
REMARK   11  A    between atoms: C15_31  and  C16_33
REMARK   12  A    between atoms: C16_33  and  N9_36
REMARK   13  A    between atoms: C21_40  and  N10_41
REMARK   14  A    between atoms: C30_50  and  C31_51
ROOT
HETATM    1  C16 UNL     1       1.087  -1.839 -14.357  1.00  0.00     0.419 C
HETATM    2  C17 UNL     1       1.070  -1.651 -15.821  1.00  0.00     0.105 C
HETATM    3  N8  UNL     1       1.080  -1.503 -16.958  1.00  0.00    -0.194 NA
ENDROOT
BRANCH   1   4
HETATM    4  C15 UNL     1       2.503  -1.919 -13.952  1.00  0.00     0.270 C
HETATM    5  N7  UNL     1       2.949  -1.111 -12.888  1.00  0.00    -0.324 N
ATOM      6  H7  UNL     1       2.266  -0.498 -12.443  1.00  0.00     0.169 HD
HETATM    7  O5  UNL     1       3.280  -2.681 -14.540  1.00  0.00    -0.270 OA
BRANCH   5   8
HETATM    8  C10 UNL     1       4.328  -1.085 -12.371  1.00  0.00     0.068 C
HETATM    9  C9  UNL     1       4.980   0.179 -12.632  1.00  0.00     0.161 C
BRANCH   9  10
HETATM   10  N4  UNL     1       6.053   0.855 -12.046  1.00  0.00    -0.357 N
HETATM   11  C8  UNL     1       7.407   0.422 -12.474  1.00  0.00     0.145 C
HETATM   12  C7  UNL     1       8.493   1.360 -11.952  1.00  0.00     0.146 C
HETATM   13  N3  UNL     1       8.399   1.427 -10.546  1.00  0.00    -0.344 N
HETATM   14  C29 UNL     1       7.052   1.632  -9.975  1.00  0.00     0.146 C
HETATM   15  C28 UNL     1       6.042   1.930 -11.105  1.00  0.00     0.145 C
BRANCH  13  16
HETATM   16  C6  UNL     1       9.446   1.347  -9.636  1.00  0.00     0.218 C
BRANCH  16  17
HETATM   17  N2  UNL     1      10.778   1.774  -9.668  1.00  0.00    -0.330 N
HETATM   18  C5  UNL     1      11.417   2.568 -10.689  1.00  0.00     0.147 C
HETATM   19  C4  UNL     1      12.810   3.019 -10.225  1.00  0.00     0.148 C
HETATM   20  N1  UNL     1      13.533   1.814  -9.909  1.00  0.00    -0.324 N
HETATM   21  C3  UNL     1      14.728   1.510 -10.580  1.00  0.00     0.362 C
HETATM   22  C32 UNL     1      12.993   0.960  -8.907  1.00  0.00     0.164 C
HETATM   23  O2  UNL     1      15.336   0.423 -10.277  1.00  0.00    -0.238 OA
HETATM   24  C30 UNL     1      11.599   1.318  -8.508  1.00  0.00     0.206 C
BRANCH  21  25
HETATM   25  O1  UNL     1      15.294   2.319 -11.558  1.00  0.00    -0.304 OA
BRANCH  25  26
HETATM   26  C2  UNL     1      16.473   3.018 -11.266  1.00  0.00     0.176 C
HETATM   27  C1  UNL     1      16.230   4.352 -10.591  1.00  0.00     0.034 C
ENDBRANCH  25  26
ENDBRANCH  21  25
BRANCH  24  28
HETATM   28  C31 UNL     1      11.485   2.277  -7.398  1.00  0.00     0.198 C
HETATM   29  O6  UNL     1      12.292   3.220  -7.245  1.00  0.00    -0.646 OA
HETATM   30  O7  UNL     1      10.451   2.142  -6.487  1.00  0.00    -0.646 OA
ENDBRANCH  24  28
ENDBRANCH  16  17
BRANCH  16  31
HETATM   31  O3  UNL     1       9.112   0.742  -8.505  1.00  0.00    -0.332 OA
ATOM     32  H3  UNL     1       9.802   0.750  -7.853  1.00  0.00     0.220 HD
ENDBRANCH  16  31
ENDBRANCH  13  16
ENDBRANCH   9  10
BRANCH   9  33
HETATM   33  O4  UNL     1       4.412   0.810 -13.660  1.00  0.00    -0.345 OA
ATOM     34  H4  UNL     1       3.464   0.762 -13.685  1.00  0.00     0.219 HD
ENDBRANCH   9  33
BRANCH   8  35
HETATM   35  C11 UNL     1       4.433  -1.736 -11.044  1.00  0.00     0.120 C
BRANCH  35  36
HETATM   36  C12 UNL     1       5.856  -2.268 -10.904  1.00  0.00     0.031 A
HETATM   37  C13 UNL     1       6.721  -2.071  -9.849  1.00  0.00     0.114 A
HETATM   38  N5  UNL     1       7.884  -2.696 -10.066  1.00  0.00    -0.360 N
HETATM   39  C14 UNL     1       7.765  -3.300 -11.271  1.00  0.00     0.180 A
ATOM     40  H5  UNL     1       8.696  -2.713  -9.449  1.00  0.00     0.166 HD
HETATM   41  N6  UNL     1       6.532  -3.040 -11.782  1.00  0.00    -0.354 N
ATOM     42  H6  UNL     1       6.177  -3.372 -12.678  1.00  0.00     0.166 HD
ENDBRANCH  35  36
ENDBRANCH   8  35
ENDBRANCH   5   8
ENDBRANCH   1   4
BRANCH   1  43
HETATM   43  N9  UNL     1       0.429  -3.082 -14.026  1.00  0.00     0.117 N
HETATM   44  C18 UNL     1       0.945  -3.721 -12.858  1.00  0.00     0.275 C
HETATM   45  C19 UNL     1      -0.133  -3.700 -11.787  1.00  0.00     0.032 C
HETATM   46  C20 UNL     1      -1.355  -4.506 -12.173  1.00  0.00     0.028 C
HETATM   47  C21 UNL     1      -1.633  -4.257 -13.624  1.00  0.00     0.107 C
HETATM   48  C27 UNL     1      -1.019  -2.925 -13.992  1.00  0.00     0.299 C
BRANCH  47  49
HETATM   49  N10 UNL     1      -2.971  -4.283 -14.022  1.00  0.00    -0.406 N
HETATM   50  C22 UNL     1      -3.732  -5.458 -13.776  1.00  0.00     0.117 C
HETATM   51  C23 UNL     1      -5.131  -5.208 -13.268  1.00  0.00     0.019 C
HETATM   52  C24 UNL     1      -5.205  -4.057 -12.294  1.00  0.00     0.003 C
HETATM   53  C25 UNL     1      -4.487  -2.826 -12.760  1.00  0.00     0.019 C
HETATM   54  C26 UNL     1      -3.728  -3.093 -14.070  1.00  0.00     0.117 C
ENDBRANCH  47  49
ENDBRANCH   1  43
TORSDOF 14
ENDMDL