MODEL 2
REMARK VINA RESULT: -8.894530377      3.248     10.255
REMARK  16 active torsions:
REMARK  status: ('A' for Active; 'I' for Inactive)
REMARK    1  A    between atoms: C2_2  and  C3_3
REMARK    2  A    between atoms: C2_2  and  C11_19
REMARK    3  A    between atoms: C3_3  and  N1_4
REMARK       I    between atoms: N1_4  and  C4_6
REMARK    4  A    between atoms: C4_6  and  C5_8
REMARK    5  A    between atoms: C5_8  and  N2_10
REMARK    6  A    between atoms: C5_8  and  C8_16
REMARK    7  A    between atoms: N2_10  and  S1_12
REMARK    8  A    between atoms: C11_19  and  N4_24
REMARK    9  A    between atoms: N3_20  and  O4_22
REMARK   10  A    between atoms: C15_28  and  C16_29
REMARK   11  A    between atoms: C16_29  and  O5_30
REMARK   12  A    between atoms: C16_29  and  N5_32
REMARK   13  A    between atoms: C20_36  and  C21_37
REMARK       I    between atoms: C21_37  and  N6_39
REMARK   14  A    between atoms: C26_45  and  C27_46
REMARK   15  A    between atoms: C27_46  and  O8_48
REMARK   16  A    between atoms: O8_48  and  C28_49
ROOT
HETATM    1  N4  UNL     1       9.706   1.083 -10.969  1.00  0.00    -0.357 N
HETATM    2  C12 UNL     1      10.695   0.801  -9.914  1.00  0.00     0.125 C
HETATM    3  C13 UNL     1      10.149   1.498  -8.701  1.00  0.00     0.022 C
HETATM    4  C14 UNL     1       8.707   1.718  -8.959  1.00  0.00     0.035 C
HETATM    5  C15 UNL     1       8.452   1.023 -10.304  1.00  0.00     0.160 C
ENDROOT
BRANCH   5   6
HETATM    6  C16 UNL     1       7.816  -0.231 -10.015  1.00  0.00     0.138 C
BRANCH   6   7
HETATM    7  O5  UNL     1       7.343  -0.334  -8.807  1.00  0.00    -0.348 OA
ATOM      8  H5  UNL     1       7.122  -1.220  -8.543  1.00  0.00     0.219 HD
ENDBRANCH   6   7
BRANCH   6   9
HETATM    9  N5  UNL     1       7.594  -1.401 -10.790  1.00  0.00    -0.350 N
HETATM   10  C17 UNL     1       8.581  -2.377 -11.110  1.00  0.00     0.126 C
HETATM   11  C18 UNL     1       8.000  -3.317 -12.107  1.00  0.00     0.022 C
HETATM   12  C19 UNL     1       6.520  -3.182 -11.910  1.00  0.00     0.037 C
HETATM   13  C20 UNL     1       6.310  -1.802 -11.361  1.00  0.00     0.178 C
BRANCH  13  14
HETATM   14  C21 UNL     1       5.857  -0.905 -12.415  1.00  0.00     0.243 C
HETATM   15  O6  UNL     1       6.698  -0.250 -13.086  1.00  0.00    -0.271 OA
HETATM   16  N6  UNL     1       4.486  -0.750 -12.700  1.00  0.00    -0.333 N
HETATM   17  C22 UNL     1       3.435  -1.447 -12.000  1.00  0.00     0.146 C
HETATM   18  C26 UNL     1       4.037   0.164 -13.755  1.00  0.00     0.204 C
HETATM   19  C23 UNL     1       2.501  -2.178 -12.932  1.00  0.00     0.136 C
HETATM   20  N7  UNL     1       2.497  -1.700 -14.270  1.00  0.00    -0.413 N
HETATM   21  C24 UNL     1       2.910  -2.614 -15.280  1.00  0.00     0.143 C
HETATM   22  C25 UNL     1       2.836  -0.339 -14.475  1.00  0.00     0.152 C
BRANCH  18  23
HETATM   23  C27 UNL     1       3.647   1.460 -13.090  1.00  0.00     0.284 C
HETATM   24  O7  UNL     1       2.466   1.840 -12.988  1.00  0.00    -0.263 OA
BRANCH  23  25
HETATM   25  O8  UNL     1       4.621   2.287 -12.559  1.00  0.00    -0.310 OA
BRANCH  25  26
HETATM   26  C28 UNL     1       5.142   3.409 -13.274  1.00  0.00     0.060 C
HETATM   27  C29 UNL     1       5.538   4.458 -12.247  1.00  0.00     0.045 C
HETATM   28  C30 UNL     1       4.167   3.972 -14.256  1.00  0.00     0.045 C
HETATM   29  C31 UNL     1       6.433   3.020 -13.992  1.00  0.00     0.045 C
ENDBRANCH  25  26
ENDBRANCH  23  25
ENDBRANCH  18  23
ENDBRANCH  13  14
ENDBRANCH   6   9
ENDBRANCH   5   6
BRANCH   1  30
HETATM   30  C11 UNL     1      10.084   1.371 -12.307  1.00  0.00     0.105 C
HETATM   31  N3  UNL     1       9.898   2.528 -12.805  1.00  0.00    -0.257 N
ATOM     32  H3  UNL     1      10.205   2.648 -13.771  1.00  0.00     0.195 HD
BRANCH  30  33
HETATM   33  C2  UNL     1      10.720   0.341 -13.177  1.00  0.00     0.069 C
HETATM   34  C1  UNL     1       9.806  -0.282 -14.172  1.00  0.00     0.020 C
BRANCH  33  35
HETATM   35  C3  UNL     1      11.999   0.817 -13.770  1.00  0.00     0.134 C
BRANCH  35  36
HETATM   36  N1  UNL     1      13.095   0.876 -12.828  1.00  0.00    -0.358 N
HETATM   37  C4  UNL     1      13.580   2.086 -12.288  1.00  0.00     0.246 C
HETATM   38  O1  UNL     1      13.027   3.143 -12.662  1.00  0.00    -0.271 OA
ATOM     39  H1  UNL     1      13.537   0.003 -12.541  1.00  0.00     0.162 HD
BRANCH  37  40
HETATM   40  C5  UNL     1      14.699   2.052 -11.319  1.00  0.00     0.120 C
HETATM   41  C6  UNL     1      14.462   0.996 -10.252  1.00  0.00     0.050 C
BRANCH  40  42
HETATM   42  N2  UNL     1      15.998   2.060 -11.875  1.00  0.00    -0.301 N
ATOM     43  H2  UNL     1      16.627   2.839 -11.681  1.00  0.00     0.173 HD
BRANCH  42  44
HETATM   44  S1  UNL     1      16.509   0.800 -12.851  1.00  0.00     0.223 S
HETATM   45  C7  UNL     1      18.287   0.762 -13.008  1.00  0.00     0.186 C
HETATM   46  O2  UNL     1      16.004   1.088 -14.269  1.00  0.00    -0.206 OA
HETATM   47  O3  UNL     1      15.974  -0.561 -12.525  1.00  0.00    -0.206 OA
ENDBRANCH  42  44
ENDBRANCH  40  42
BRANCH  40  48
HETATM   48  C8  UNL     1      14.587   3.390 -10.542  1.00  0.00     0.015 C
HETATM   49  C9  UNL     1      15.992   3.877 -10.312  1.00  0.00     0.012 C
HETATM   50  C10 UNL     1      13.967   3.120  -9.177  1.00  0.00     0.012 C
ENDBRANCH  40  48
ENDBRANCH  37  40
ENDBRANCH  35  36
ENDBRANCH  33  35
ENDBRANCH  30  33
BRANCH  31  51
HETATM   51  O4  UNL     1       9.349   3.617 -12.227  1.00  0.00    -0.288 OA
ATOM     52  H4  UNL     1       9.639   4.521 -12.269  1.00  0.00     0.244 HD
ENDBRANCH  31  51
ENDBRANCH   1  30
TORSDOF 16
ENDMDL