MODEL 2
REMARK VINA RESULT: -10.834152492      1.319      1.513
REMARK  11 active torsions:
REMARK  status: ('A' for Active; 'I' for Inactive)
REMARK    1  A    between atoms: C1_2  and  C2_3
REMARK       I    between atoms: C1_2  and  N10_49
REMARK    2  A    between atoms: C5_6  and  S1_7
REMARK    3  A    between atoms: S1_7  and  N1_10
REMARK    4  A    between atoms: N1_10  and  C6_12
REMARK    5  A    between atoms: C8_14  and  C9_15
REMARK    6  A    between atoms: C9_15  and  N2_16
REMARK    7  A    between atoms: C12_19  and  C13_20
REMARK    8  A    between atoms: C13_20  and  N3_21
REMARK    9  A    between atoms: C20_33  and  N5_34
REMARK   10  A    between atoms: N5_34  and  C21_36
REMARK   11  A    between atoms: C21_36  and  C22_37
ROOT
HETATM    1  C6  UNL     1       4.955  -1.334 -10.531  1.00  0.00     0.132 A
HETATM    2  C7  UNL     1       5.631  -0.179 -10.215  1.00  0.00     0.077 A
HETATM    3  C8  UNL     1       7.007  -0.137 -10.077  1.00  0.00     0.058 A
HETATM    4  N4  UNL     1       7.689  -1.274 -10.262  1.00  0.00    -0.194 N
ATOM      5  H4  UNL     1       8.704  -1.263 -10.165  1.00  0.00     0.184 HD
HETATM    6  C20 UNL     1       7.070  -2.439 -10.575  1.00  0.00     0.680 A
HETATM    7  N8  UNL     1       5.746  -2.441 -10.699  1.00  0.00    -0.176 N
ATOM      8  H8  UNL     1       5.290  -3.322 -10.933  1.00  0.00     0.186 HD
ENDROOT
BRANCH   1   9
HETATM    9  N1  UNL     1       3.689  -1.442 -10.680  1.00  0.00    -0.265 N
ATOM     10  H1  UNL     1       3.081  -1.431  -9.862  1.00  0.00     0.180 HD
BRANCH   9  11
HETATM   11  S1  UNL     1       3.011  -1.605 -12.231  1.00  0.00     0.265 S
HETATM   12  O2  UNL     1       4.003  -2.283 -13.132  1.00  0.00    -0.200 OA
HETATM   13  O3  UNL     1       2.722  -0.234 -12.781  1.00  0.00    -0.200 OA
BRANCH  11  14
HETATM   14  C5  UNL     1       1.568  -2.593 -12.223  1.00  0.00     0.095 A
HETATM   15  C4  UNL     1       1.457  -3.798 -12.842  1.00  0.00     0.029 A
HETATM   16  C3  UNL     1       0.272  -4.471 -12.766  1.00  0.00     0.037 A
HETATM   17  C2  UNL     1      -0.852  -3.994 -12.085  1.00  0.00     0.100 A
HETATM   18  N9  UNL     1      -0.688  -2.800 -11.491  1.00  0.00    -0.360 N
HETATM   19  C25 UNL     1       0.470  -2.125 -11.553  1.00  0.00     0.113 A
ATOM     20  H9  UNL     1      -1.470  -2.395 -10.975  1.00  0.00     0.165 HD
BRANCH  17  21
HETATM   21  C1  UNL     1      -2.075  -4.774 -12.058  1.00  0.00     0.270 C
HETATM   22  O1  UNL     1      -1.948  -5.991 -11.736  1.00  0.00    -0.266 OA
HETATM   23  N10 UNL     1      -3.359  -4.293 -12.354  1.00  0.00    -0.347 N
HETATM   24  C26 UNL     1      -4.549  -5.153 -12.298  1.00  0.00     0.126 C
HETATM   25  C29 UNL     1      -3.872  -3.017 -12.749  1.00  0.00     0.126 C
HETATM   26  C27 UNL     1      -5.288  -4.739 -13.548  1.00  0.00     0.021 C
HETATM   27  C28 UNL     1      -4.814  -3.365 -13.894  1.00  0.00     0.021 C
ENDBRANCH  17  21
ENDBRANCH  11  14
ENDBRANCH   9  11
ENDBRANCH   1   9
BRANCH   3  28
HETATM   28  C9  UNL     1       7.704   1.115  -9.750  1.00  0.00     0.330 C
BRANCH  28  29
HETATM   29  N2  UNL     1       8.933   1.196 -10.506  1.00  0.00     0.094 N
HETATM   30  C10 UNL     1      10.073   1.433  -9.613  1.00  0.00     0.273 C
HETATM   31  C11 UNL     1      11.314   1.153 -10.420  1.00  0.00     0.036 C
HETATM   32  C12 UNL     1      11.440   2.058 -11.615  1.00  0.00     0.003 C
HETATM   33  C18 UNL     1      10.149   2.390 -12.267  1.00  0.00     0.036 C
HETATM   34  C19 UNL     1       8.920   2.265 -11.450  1.00  0.00     0.273 C
BRANCH  32  35
HETATM   35  C13 UNL     1      12.218   3.329 -11.246  1.00  0.00     0.112 C
BRANCH  35  36
HETATM   36  N3  UNL     1      13.581   3.254 -11.677  1.00  0.00    -0.210 NA
HETATM   37  C14 UNL     1      13.784   2.276 -12.725  1.00  0.00     0.107 C
HETATM   38  C15 UNL     1      15.289   2.286 -13.022  1.00  0.00     0.016 C
HETATM   39  C16 UNL     1      16.005   1.355 -12.073  1.00  0.00     0.017 C
HETATM   40  C17 UNL     1      15.609   1.542 -10.643  1.00  0.00     0.158 C
HETATM   41  S2  UNL     1      14.711   3.078 -10.399  1.00  0.00     0.211 S
HETATM   42  O4  UNL     1      14.028   2.945  -9.055  1.00  0.00    -0.211 OA
HETATM   43  O5  UNL     1      15.669   4.221 -10.294  1.00  0.00    -0.211 OA
ENDBRANCH  35  36
ENDBRANCH  32  35
ENDBRANCH  28  29
ENDBRANCH   3  28
BRANCH   6  44
HETATM   44  N5  UNL     1       7.791  -3.504 -10.742  1.00  0.00    -0.220 N
ATOM     45  H5  UNL     1       7.888  -4.144  -9.955  1.00  0.00     0.178 HD
BRANCH  44  46
HETATM   46  C21 UNL     1       8.456  -3.834 -11.961  1.00  0.00     0.196 C
BRANCH  46  47
HETATM   47  C22 UNL     1       7.568  -4.744 -12.733  1.00  0.00     0.044 A
HETATM   48  C23 UNL     1       7.871  -6.043 -13.082  1.00  0.00     0.115 A
HETATM   49  N6  UNL     1       6.853  -6.584 -13.777  1.00  0.00    -0.360 N
HETATM   50  C24 UNL     1       5.900  -5.633 -13.872  1.00  0.00     0.180 A
ATOM     51  H6  UNL     1       6.810  -7.529 -14.158  1.00  0.00     0.166 HD
HETATM   52  N7  UNL     1       6.341  -4.518 -13.237  1.00  0.00    -0.353 N
ATOM     53  H7  UNL     1       5.823  -3.643 -13.155  1.00  0.00     0.166 HD
ENDBRANCH  46  47
ENDBRANCH  44  46
ENDBRANCH   6  44
TORSDOF 11
ENDMDL