MODEL 1
REMARK VINA RESULT: -9.027791735      0.000      0.000
REMARK  13 active torsions:
REMARK  status: ('A' for Active; 'I' for Inactive)
REMARK    1  A    between atoms: C5_5  and  N1_6
REMARK       I    between atoms: N1_6  and  C6_8
REMARK    2  A    between atoms: C6_8  and  C7_10
REMARK    3  A    between atoms: N2_13  and  S1_14
REMARK    4  A    between atoms: N3_18  and  C11_19
REMARK    5  A    between atoms: C11_19  and  O4_20
REMARK    6  A    between atoms: C11_19  and  C12_22
REMARK    7  A    between atoms: C12_22  and  C13_23
REMARK    8  A    between atoms: C12_22  and  N5_38
REMARK    9  A    between atoms: C13_23  and  C14_24
REMARK   10  A    between atoms: C14_24  and  C15_26
REMARK   11  A    between atoms: C22_33  and  O6_34
REMARK   12  A    between atoms: N5_38  and  S2_40
REMARK   13  A    between atoms: S2_40  and  C24_43
ROOT
HETATM    1  C24 UNL     1       6.646   3.640 -14.178  1.00  0.00     0.079 A
HETATM    2  C25 UNL     1       7.373   3.052 -15.190  1.00  0.00     0.027 A
HETATM    3  C26 UNL     1       8.750   3.115 -15.246  1.00  0.00     0.024 A
HETATM    4  C27 UNL     1       9.459   3.781 -14.273  1.00  0.00     0.044 A
HETATM    5  C28 UNL     1      10.904   3.865 -14.303  1.00  0.00     0.099 C
HETATM    6  N6  UNL     1      12.053   3.951 -14.338  1.00  0.00    -0.191 NA
HETATM    7  C29 UNL     1       8.735   4.378 -13.252  1.00  0.00     0.024 A
HETATM    8  C30 UNL     1       7.359   4.313 -13.199  1.00  0.00     0.027 A
ENDROOT
BRANCH   1   9
HETATM    9  S2  UNL     1       4.908   3.569 -14.076  1.00  0.00     0.259 S
HETATM   10  O7  UNL     1       4.409   3.363 -15.488  1.00  0.00    -0.201 OA
HETATM   11  O8  UNL     1       4.408   4.911 -13.641  1.00  0.00    -0.201 OA
BRANCH   9  12
HETATM   12  N5  UNL     1       4.360   2.313 -13.050  1.00  0.00    -0.302 N
ATOM     13  H5  UNL     1       4.017   2.450 -12.099  1.00  0.00     0.173 HD
BRANCH  12  14
HETATM   14  C12 UNL     1       4.450   0.993 -13.735  1.00  0.00     0.176 C
BRANCH  14  15
HETATM   15  C11 UNL     1       3.180   0.312 -13.696  1.00  0.00     0.154 C
BRANCH  15  16
HETATM   16  N3  UNL     1       2.624  -0.906 -14.093  1.00  0.00    -0.265 N
HETATM   17  C7  UNL     1       3.152  -2.176 -13.497  1.00  0.00     0.199 C
HETATM   18  C8  UNL     1       1.946  -3.104 -13.641  1.00  0.00     0.054 C
HETATM   19  C9  UNL     1       0.867  -2.262 -14.223  1.00  0.00     0.135 C
HETATM   20  N2  UNL     1       1.667  -1.295 -14.985  1.00  0.00    -0.116 NA
BRANCH  17  21
HETATM   21  C6  UNL     1       3.365  -1.989 -12.013  1.00  0.00     0.247 C
HETATM   22  N1  UNL     1       4.335  -2.548 -11.242  1.00  0.00    -0.311 N
ATOM     23  H1  UNL     1       3.933  -3.047 -10.448  1.00  0.00     0.170 HD
HETATM   24  O1  UNL     1       2.518  -1.214 -11.441  1.00  0.00    -0.271 OA
BRANCH  22  25
HETATM   25  C5  UNL     1       5.589  -2.621 -11.235  1.00  0.00     0.107 A
HETATM   26  C4  UNL     1       6.266  -2.192 -10.074  1.00  0.00     0.049 A
HETATM   27  C3  UNL     1       7.628  -2.234  -9.976  1.00  0.00     0.012 A
HETATM   28  C2  UNL     1       8.413  -2.701 -11.011  1.00  0.00    -0.046 A
HETATM   29  C1  UNL     1       9.894  -2.761 -10.938  1.00  0.00     0.049 C
HETATM   30  C31 UNL     1       7.723  -3.114 -12.132  1.00  0.00     0.096 A
HETATM   31  N7  UNL     1       6.382  -3.070 -12.224  1.00  0.00    -0.352 N
ATOM     32  H7  UNL     1       5.944  -3.392 -13.088  1.00  0.00     0.166 HD
ENDBRANCH  22  25
ENDBRANCH  17  21
BRANCH  20  33
HETATM   33  S1  UNL     1       2.071  -1.881 -16.505  1.00  0.00     0.225 S
HETATM   34  C10 UNL     1       1.157  -3.256 -17.127  1.00  0.00     0.181 C
HETATM   35  O2  UNL     1       1.865  -0.778 -17.560  1.00  0.00    -0.210 OA
HETATM   36  O3  UNL     1       3.528  -2.309 -16.635  1.00  0.00    -0.210 OA
ENDBRANCH  20  33
ENDBRANCH  15  16
BRANCH  15  37
HETATM   37  O4  UNL     1       2.276   1.142 -13.111  1.00  0.00    -0.347 OA
ATOM     38  H4  UNL     1       2.307   1.112 -12.162  1.00  0.00     0.219 HD
ENDBRANCH  15  37
ENDBRANCH  14  15
BRANCH  14  39
HETATM   39  C13 UNL     1       5.705   0.362 -13.283  1.00  0.00     0.118 C
BRANCH  39  40
HETATM   40  C14 UNL     1       6.243   0.751 -11.994  1.00  0.00     0.162 C
HETATM   41  O5  UNL     1       5.500   0.944 -10.969  1.00  0.00    -0.292 OA
BRANCH  40  42
HETATM   42  C15 UNL     1       7.677   0.945 -11.784  1.00  0.00     0.011 A
HETATM   43  C16 UNL     1       8.119   1.597 -10.669  1.00  0.00     0.017 A
HETATM   44  C17 UNL     1       9.455   1.804 -10.426  1.00  0.00     0.031 A
HETATM   45  C18 UNL     1      10.358   1.328 -11.354  1.00  0.00     0.046 A
HETATM   46  C19 UNL     1       9.951   0.665 -12.492  1.00  0.00    -0.004 A
HETATM   47  N4  UNL     1      11.686   1.403 -11.348  1.00  0.00    -0.332 N
HETATM   48  C20 UNL     1       8.592   0.481 -12.691  1.00  0.00     0.029 A
HETATM   49  C21 UNL     1      11.081   0.339 -13.177  1.00  0.00     0.069 A
HETATM   50  C22 UNL     1      12.158   0.804 -12.455  1.00  0.00     0.143 A
HETATM   51  C23 UNL     1      12.510   2.029 -10.314  1.00  0.00     0.158 C
BRANCH  50  52
HETATM   52  O6  UNL     1      13.474   0.655 -12.843  1.00  0.00    -0.346 OA
ATOM     53  H6  UNL     1      13.993   1.341 -13.246  1.00  0.00     0.219 HD
ENDBRANCH  50  52
ENDBRANCH  40  42
ENDBRANCH  39  40
ENDBRANCH  14  39
ENDBRANCH  12  14
ENDBRANCH   9  12
ENDBRANCH   1   9
TORSDOF 13
ENDMDL