MODEL 1
REMARK VINA RESULT: -9.146858096      0.000      0.000
REMARK  16 active torsions:
REMARK  status: ('A' for Active; 'I' for Inactive)
REMARK    1  A    between atoms: C2_2  and  C3_3
REMARK    2  A    between atoms: C2_2  and  C17_28
REMARK    3  A    between atoms: C3_3  and  C16_25
REMARK       I    between atoms: N1_4  and  C4_6
REMARK    4  A    between atoms: C4_6  and  C5_8
REMARK    5  A    between atoms: C5_8  and  C6_9
REMARK    6  A    between atoms: C5_8  and  N4_17
REMARK    7  A    between atoms: C6_9  and  C7_10
REMARK       I    between atoms: N4_17  and  C11_18
REMARK    8  A    between atoms: C11_18  and  O3_20
REMARK    9  A    between atoms: O3_20  and  C12_21
REMARK   10  A    between atoms: C17_28  and  O5_29
REMARK   11  A    between atoms: C17_28  and  C18_31
REMARK       I    between atoms: C18_31  and  N6_33
REMARK   12  A    between atoms: N7_36  and  C21_37
REMARK   13  A    between atoms: C21_37  and  O7_38
REMARK   14  A    between atoms: C21_37  and  N8_40
REMARK   15  A    between atoms: C26_46  and  C27_47
REMARK   16  A    between atoms: C28_48  and  C29_49
ROOT
HETATM    1  C1  UNL     1       6.981  -1.516  -9.453  1.00  0.00     0.020 C
HETATM    2  C2  UNL     1       6.313  -0.276 -10.039  1.00  0.00     0.075 C
ENDROOT
BRANCH   2   3
HETATM    3  C3  UNL     1       7.117   0.899  -9.546  1.00  0.00     0.084 C
HETATM    4  N1  UNL     1       8.279   0.654  -9.171  1.00  0.00    -0.323 N
HETATM    5  C4  UNL     1       9.371   1.284  -8.670  1.00  0.00     0.258 C
ATOM      6  H1  UNL     1       8.471  -0.343  -9.273  1.00  0.00     0.169 HD
HETATM    7  O1  UNL     1       9.433   1.753  -7.480  1.00  0.00    -0.270 OA
BRANCH   5   8
HETATM    8  C5  UNL     1      10.607   1.443  -9.558  1.00  0.00     0.266 C
BRANCH   8   9
HETATM    9  C6  UNL     1      11.786   1.320  -8.604  1.00  0.00     0.108 C
BRANCH   9  10
HETATM   10  C7  UNL     1      13.093   1.436  -9.272  1.00  0.00     0.029 A
HETATM   11  C8  UNL     1      13.719   2.625  -9.492  1.00  0.00     0.116 A
HETATM   12  N2  UNL     1      14.892   2.447 -10.127  1.00  0.00    -0.355 N
HETATM   13  C9  UNL     1      15.852   3.462 -10.536  1.00  0.00     0.156 C
HETATM   14  C10 UNL     1      14.969   1.092 -10.292  1.00  0.00     0.182 A
HETATM   15  N3  UNL     1      13.892   0.483  -9.780  1.00  0.00    -0.354 N
ATOM     16  H3  UNL     1      13.711  -0.521  -9.777  1.00  0.00     0.166 HD
ENDBRANCH   9  10
ENDBRANCH   8   9
BRANCH   8  17
HETATM   17  N4  UNL     1      10.609   0.446 -10.549  1.00  0.00    -0.375 NA
HETATM   18  C11 UNL     1      10.614  -0.492 -11.475  1.00  0.00     0.436 C
HETATM   19  O2  UNL     1      10.915  -1.747 -11.374  1.00  0.00    -0.221 OA
BRANCH  18  20
HETATM   20  O3  UNL     1      10.260  -0.214 -12.845  1.00  0.00    -0.283 OA
BRANCH  20  21
HETATM   21  C12 UNL     1      10.860   0.783 -13.589  1.00  0.00     0.062 C
HETATM   22  C13 UNL     1      12.281   1.115 -13.280  1.00  0.00     0.046 C
HETATM   23  C14 UNL     1      10.777   0.354 -15.064  1.00  0.00     0.046 C
HETATM   24  C15 UNL     1      10.029   2.058 -13.440  1.00  0.00     0.046 C
ENDBRANCH  20  21
ENDBRANCH  18  20
ENDBRANCH   8  17
ENDBRANCH   5   8
BRANCH   3  25
HETATM   25  C16 UNL     1       6.495   2.211  -9.565  1.00  0.00     0.277 C
HETATM   26  N5  UNL     1       6.711   3.089 -10.656  1.00  0.00    -0.056 NA
HETATM   27  O4  UNL     1       5.743   2.654  -8.654  1.00  0.00    -0.270 OA
ENDBRANCH   3  25
ENDBRANCH   2   3
BRANCH   2  28
HETATM   28  C17 UNL     1       6.494  -0.406 -11.558  1.00  0.00     0.219 C
BRANCH  28  29
HETATM   29  O5  UNL     1       7.507   0.372 -12.038  1.00  0.00    -0.385 OA
ATOM     30  H5  UNL     1       7.960  -0.025 -12.773  1.00  0.00     0.210 HD
ENDBRANCH  28  29
BRANCH  28  31
HETATM   31  C18 UNL     1       5.219  -0.018 -12.197  1.00  0.00     0.251 C
HETATM   32  O6  UNL     1       5.018   1.180 -12.615  1.00  0.00    -0.270 OA
HETATM   33  N6  UNL     1       4.174  -0.972 -12.368  1.00  0.00    -0.323 N
HETATM   34  C19 UNL     1       4.151  -2.330 -11.962  1.00  0.00     0.148 C
HETATM   35  C26 UNL     1       2.934  -0.641 -13.053  1.00  0.00     0.216 C
HETATM   36  C20 UNL     1       2.754  -2.841 -12.401  1.00  0.00     0.149 C
HETATM   37  N7  UNL     1       2.007  -1.659 -12.532  1.00  0.00    -0.321 N
BRANCH  37  38
HETATM   38  C21 UNL     1       0.663  -1.338 -12.296  1.00  0.00     0.219 C
BRANCH  38  39
HETATM   39  O7  UNL     1       0.451  -0.062 -11.936  1.00  0.00    -0.332 OA
ATOM     40  H7  UNL     1      -0.129   0.046 -11.191  1.00  0.00     0.220 HD
ENDBRANCH  38  39
BRANCH  38  41
HETATM   41  N8  UNL     1      -0.525  -2.047 -12.355  1.00  0.00    -0.344 N
HETATM   42  C22 UNL     1      -1.143  -2.822 -11.316  1.00  0.00     0.152 C
HETATM   43  C23 UNL     1      -1.318  -4.272 -11.779  1.00  0.00     0.187 C
HETATM   44  O8  UNL     1      -1.068  -4.338 -13.156  1.00  0.00    -0.388 OA
HETATM   45  C24 UNL     1      -1.787  -3.409 -13.885  1.00  0.00     0.187 C
HETATM   46  C25 UNL     1      -1.227  -2.038 -13.687  1.00  0.00     0.152 C
ENDBRANCH  38  41
ENDBRANCH  37  38
BRANCH  35  47
HETATM   47  C27 UNL     1       3.208  -0.813 -14.499  1.00  0.00     0.016 C
HETATM   48  C28 UNL     1       2.234  -0.749 -15.402  1.00  0.00    -0.022 C
BRANCH  48  49
HETATM   49  C29 UNL     1       2.484  -0.917 -16.853  1.00  0.00     0.008 C
HETATM   50  C30 UNL     1       3.346  -2.137 -17.053  1.00  0.00     0.008 C
HETATM   51  C31 UNL     1       3.814  -2.246 -18.491  1.00  0.00     0.001 C
HETATM   52  C32 UNL     1       3.152  -1.238 -19.385  1.00  0.00     0.000 C
HETATM   53  C33 UNL     1       3.473   0.151 -18.883  1.00  0.00     0.001 C
HETATM   54  C34 UNL     1       3.148   0.321 -17.414  1.00  0.00     0.008 C
ENDBRANCH  48  49
ENDBRANCH  35  47
ENDBRANCH  28  31
ENDBRANCH   2  28
TORSDOF 16
ENDMDL