MODEL 3
REMARK VINA RESULT: -8.910070557      4.243      9.525
REMARK  10 active torsions:
REMARK  status: ('A' for Active; 'I' for Inactive)
REMARK    1  A    between atoms: C2_2  and  C4_4
REMARK    2  A    between atoms: C4_4  and  C5_5
REMARK    3  A    between atoms: C4_4  and  N3_21
REMARK    4  A    between atoms: C10_11  and  C11_12
REMARK       I    between atoms: C11_12  and  N2_14
REMARK       I    between atoms: N3_21  and  C18_23
REMARK    5  A    between atoms: C18_23  and  C19_25
REMARK    6  A    between atoms: C19_25  and  C20_26
REMARK    7  A    between atoms: C19_25  and  N6_44
REMARK       I    between atoms: C20_26  and  N4_28
REMARK    8  A    between atoms: C23_31  and  C24_32
REMARK       I    between atoms: C24_32  and  N5_34
REMARK    9  A    between atoms: N5_34  and  C25_36
REMARK   10  A    between atoms: C28_41  and  O5_42
ROOT
HETATM    1  C19 UNL     1      15.165   2.972 -11.728  1.00  0.00     0.269 C
ENDROOT
BRANCH   1   2
HETATM    2  C18 UNL     1      14.643   1.878 -10.890  1.00  0.00     0.250 C
HETATM    3  N3  UNL     1      13.350   1.973 -10.253  1.00  0.00    -0.349 N
ATOM      4  H3  UNL     1      12.789   2.812 -10.403  1.00  0.00     0.163 HD
HETATM    5  O2  UNL     1      15.295   0.845 -10.697  1.00  0.00    -0.271 OA
BRANCH   3   6
HETATM    6  C4  UNL     1      12.829   0.940  -9.425  1.00  0.00     0.126 C
BRANCH   6   7
HETATM    7  C2  UNL     1      12.301   1.458  -8.074  1.00  0.00     0.005 C
HETATM    8  C1  UNL     1      12.804   2.875  -7.929  1.00  0.00     0.012 C
HETATM    9  C3  UNL     1      10.799   1.504  -8.125  1.00  0.00     0.012 C
ENDBRANCH   6   7
BRANCH   6  10
HETATM   10  C5  UNL     1      11.756   0.069 -10.067  1.00  0.00     0.084 C
HETATM   11  N1  UNL     1      11.263   0.522 -11.258  1.00  0.00    -0.377 N
HETATM   12  C6  UNL     1      11.853   0.615 -12.505  1.00  0.00     0.134 C
HETATM   13  C10 UNL     1       9.961   0.410 -11.766  1.00  0.00     0.185 C
HETATM   14  C7  UNL     1      10.468   0.837 -13.142  1.00  0.00    -0.002 C
HETATM   15  C8  UNL     1      10.261  -0.107 -14.266  1.00  0.00     0.019 C
HETATM   16  C9  UNL     1      10.198   2.255 -13.509  1.00  0.00     0.019 C
BRANCH  13  17
HETATM   17  C11 UNL     1       9.324  -0.930 -11.744  1.00  0.00     0.243 C
HETATM   18  O1  UNL     1      10.043  -1.973 -11.547  1.00  0.00    -0.271 OA
HETATM   19  N2  UNL     1       7.960  -1.145 -11.927  1.00  0.00    -0.350 N
HETATM   20  C12 UNL     1       7.127   0.008 -12.113  1.00  0.00     0.126 C
HETATM   21  C17 UNL     1       7.510  -2.515 -11.919  1.00  0.00     0.126 C
HETATM   22  C13 UNL     1       6.614   0.555 -10.768  1.00  0.00     0.020 C
HETATM   23  C14 UNL     1       5.507  -0.394 -10.337  1.00  0.00     0.002 C
HETATM   24  C15 UNL     1       6.168  -1.705  -9.970  1.00  0.00     0.002 C
HETATM   25  C16 UNL     1       6.231  -2.676 -11.120  1.00  0.00     0.020 C
ENDBRANCH  13  17
ENDBRANCH   6  10
ENDBRANCH   3   6
ENDBRANCH   1   2
BRANCH   1  26
HETATM   26  C20 UNL     1      14.227   4.022 -12.099  1.00  0.00     0.252 C
HETATM   27  O3  UNL     1      13.293   4.377 -11.283  1.00  0.00    -0.270 OA
HETATM   28  N4  UNL     1      14.225   4.746 -13.313  1.00  0.00    -0.336 N
HETATM   29  C21 UNL     1      15.027   4.704 -14.532  1.00  0.00     0.129 C
HETATM   30  C23 UNL     1      13.518   5.845 -13.899  1.00  0.00     0.180 C
HETATM   31  C22 UNL     1      14.775   6.199 -14.674  1.00  0.00     0.055 C
BRANCH  30  32
HETATM   32  C24 UNL     1      12.364   5.533 -14.729  1.00  0.00     0.241 C
HETATM   33  O4  UNL     1      12.194   4.341 -15.118  1.00  0.00    -0.271 OA
HETATM   34  N5  UNL     1      11.442   6.562 -15.094  1.00  0.00    -0.351 N
ATOM     35  H5  UNL     1      11.601   7.513 -14.764  1.00  0.00     0.163 HD
BRANCH  34  36
HETATM   36  C25 UNL     1      10.288   6.284 -15.923  1.00  0.00     0.124 C
HETATM   37  C26 UNL     1      10.123   7.469 -16.857  1.00  0.00     0.113 C
HETATM   38  S1  UNL     1       9.063   6.876 -18.218  1.00  0.00    -0.095 SA
HETATM   39  S2  UNL     1       8.386   4.954 -17.508  1.00  0.00    -0.095 SA
HETATM   40  C27 UNL     1       8.036   5.200 -15.743  1.00  0.00     0.120 C
HETATM   41  C28 UNL     1       9.107   6.023 -15.069  1.00  0.00     0.151 C
BRANCH  41  42
HETATM   42  O5  UNL     1       8.579   7.239 -14.594  1.00  0.00    -0.393 OA
ATOM     43  H5  UNL     1       8.641   7.906 -15.268  1.00  0.00     0.210 HD
ENDBRANCH  41  42
ENDBRANCH  34  36
ENDBRANCH  30  32
ENDBRANCH   1  26
BRANCH   1  44
HETATM   44  N6  UNL     1      16.454   3.410 -11.268  1.00  0.00    -0.369 N
HETATM   45  C29 UNL     1      16.519   4.447 -10.333  1.00  0.00     0.085 C
HETATM   46  C30 UNL     1      17.568   5.505 -10.633  1.00  0.00     0.212 C
HETATM   47  O6  UNL     1      18.726   4.977 -11.197  1.00  0.00    -0.385 OA
HETATM   48  C31 UNL     1      18.337   4.473 -12.460  1.00  0.00     0.187 C
HETATM   49  C32 UNL     1      17.530   3.239 -12.165  1.00  0.00     0.149 C
ENDBRANCH   1  44
TORSDOF 10
ENDMDL