MODEL 3
REMARK VINA RESULT: -9.657748149      4.398      6.222
REMARK  7 active torsions:
REMARK  status: ('A' for Active; 'I' for Inactive)
REMARK    1  A    between atoms: C3_5  and  C4_6
REMARK    2  A    between atoms: C4_6  and  C5_7
REMARK    3  A    between atoms: C11_15  and  C12_16
REMARK    4  A    between atoms: C12_16  and  C13_17
REMARK    5  A    between atoms: C13_17  and  C14_18
REMARK    6  A    between atoms: C16_20  and  O1_21
REMARK    7  A    between atoms: C19_24  and  O2_25
ROOT
HETATM    1  C1  UNL     1      -7.129  24.487   5.180  1.00  0.00     0.043 C
HETATM    2  C2  UNL     1      -7.895  24.508   4.110  1.00  0.00     0.030 A
HETATM    3  N1  UNL     1      -7.582  25.165   2.991  1.00  0.00    -0.356 N
ATOM      4  H1  UNL     1      -6.736  25.712   2.829  1.00  0.00     0.166 HD
HETATM    5  C3  UNL     1      -8.583  24.973   2.118  1.00  0.00     0.040 A
HETATM    6  C9  UNL     1      -9.560  24.180   2.683  1.00  0.00    -0.027 A
HETATM    7  C10 UNL     1     -10.817  23.724   2.087  1.00  0.00     0.051 C
HETATM    8  C11 UNL     1      -9.130  23.882   3.945  1.00  0.00    -0.024 A
ENDROOT
BRANCH   8   9
HETATM    9  C12 UNL     1      -9.764  23.071   4.974  1.00  0.00     0.046 C
BRANCH   9  10
HETATM   10  C13 UNL     1     -10.011  23.712   6.285  1.00  0.00     0.043 C
BRANCH  10  11
HETATM   11  C14 UNL     1     -11.483  23.953   6.419  1.00  0.00    -0.052 A
HETATM   12  C15 UNL     1     -12.226  24.525   5.414  1.00  0.00     0.044 A
HETATM   13  C16 UNL     1     -13.578  24.696   5.630  1.00  0.00     0.071 A
HETATM   14  C18 UNL     1     -14.149  24.298   6.824  1.00  0.00     0.073 A
HETATM   15  C19 UNL     1     -13.392  23.719   7.840  1.00  0.00     0.071 A
HETATM   16  C21 UNL     1     -12.060  23.559   7.609  1.00  0.00     0.044 A
BRANCH  13  17
HETATM   17  O1  UNL     1     -14.360  25.277   4.618  1.00  0.00    -0.356 OA
HETATM   18  C17 UNL     1     -15.685  24.838   4.475  1.00  0.00     0.210 C
ENDBRANCH  13  17
BRANCH  15  19
HETATM   19  O2  UNL     1     -13.963  23.319   9.037  1.00  0.00    -0.356 OA
HETATM   20  C20 UNL     1     -15.103  23.981   9.543  1.00  0.00     0.210 C
ENDBRANCH  15  19
ENDBRANCH  10  11
ENDBRANCH   9  10
ENDBRANCH   8   9
BRANCH   5  21
HETATM   21  C4  UNL     1      -8.662  25.455   0.885  1.00  0.00     0.043 C
BRANCH  21  22
HETATM   22  C5  UNL     1      -8.149  24.763  -0.291  1.00  0.00    -0.017 A
HETATM   23  C6  UNL     1      -8.140  25.272  -1.595  1.00  0.00     0.030 A
HETATM   24  C7  UNL     1      -7.587  24.349  -2.439  1.00  0.00     0.088 A
HETATM   25  N2  UNL     1      -7.248  23.269  -1.683  1.00  0.00    -0.374 N
HETATM   26  C8  UNL     1      -7.580  23.509  -0.399  1.00  0.00     0.099 A
ATOM     27  H2  UNL     1      -6.812  22.415  -2.032  1.00  0.00     0.164 HD
ENDBRANCH  21  22
ENDBRANCH   5  21
TORSDOF 7
ENDMDL