MODEL 2
REMARK VINA RESULT: -9.370221927      1.222      2.259
REMARK  6 active torsions:
REMARK  status: ('A' for Active; 'I' for Inactive)
REMARK    1  A    between atoms: O1_2  and  C2_3
REMARK    2  A    between atoms: C6_9  and  C7_10
REMARK    3  A    between atoms: C7_10  and  N2_11
REMARK    4  A    between atoms: N2_11  and  S1_13
REMARK    5  A    between atoms: S1_13  and  C8_16
REMARK    6  A    between atoms: C8_16  and  C9_17
ROOT
HETATM    1  S1  UNL     1      -8.090  23.311   4.914  1.00  0.00     0.230 S
HETATM    2  O2  UNL     1      -8.373  21.947   5.246  1.00  0.00    -0.206 OA
HETATM    3  O3  UNL     1      -7.179  23.198   3.603  1.00  0.00    -0.206 OA
ENDROOT
BRANCH   1   4
HETATM    4  N2  UNL     1      -7.176  24.191   6.001  1.00  0.00    -0.315 N
ATOM      5  H2  UNL     1      -7.618  24.727   6.748  1.00  0.00     0.172 HD
BRANCH   4   6
HETATM    6  C7  UNL     1      -5.767  24.167   5.852  1.00  0.00     0.175 C
BRANCH   6   7
HETATM    7  C6  UNL     1      -5.179  23.577   7.105  1.00  0.00     0.017 A
HETATM    8  C2  UNL     1      -4.778  22.355   7.470  1.00  0.00     0.093 A
HETATM    9  C3  UNL     1      -4.048  22.465   8.633  1.00  0.00     0.125 A
HETATM   10  N1  UNL     1      -3.998  23.773   9.002  1.00  0.00    -0.366 N
HETATM   11  C4  UNL     1      -4.670  24.457   8.101  1.00  0.00     0.015 A
ATOM     12  H1  UNL     1      -3.528  24.153   9.824  1.00  0.00     0.165 HD
HETATM   13  C5  UNL     1      -4.869  25.932   8.044  1.00  0.00     0.069 C
BRANCH   8  14
HETATM   14  O1  UNL     1      -5.084  21.162   6.765  1.00  0.00    -0.354 OA
HETATM   15  C1  UNL     1      -4.226  20.087   6.809  1.00  0.00     0.210 C
ENDBRANCH   8  14
ENDBRANCH   6   7
ENDBRANCH   4   6
ENDBRANCH   1   4
BRANCH   1  16
HETATM   16  C8  UNL     1      -9.487  24.317   4.332  1.00  0.00     0.202 C
BRANCH  16  17
HETATM   17  C9  UNL     1      -9.451  24.317   2.842  1.00  0.00    -0.031 A
HETATM   18  C10 UNL     1      -8.748  25.486   2.411  1.00  0.00    -0.054 A
HETATM   19  C11 UNL     1      -8.483  26.580   3.385  1.00  0.00     0.049 C
HETATM   20  C12 UNL     1      -8.344  25.516   1.117  1.00  0.00     0.014 A
HETATM   21  C13 UNL     1      -8.584  24.492   0.246  1.00  0.00    -0.061 A
HETATM   22  C14 UNL     1      -7.895  24.463  -1.111  1.00  0.00     0.048 C
HETATM   23  C15 UNL     1      -9.287  23.381   0.690  1.00  0.00     0.014 A
HETATM   24  C16 UNL     1      -9.722  23.315   2.023  1.00  0.00    -0.054 A
HETATM   25  C17 UNL     1     -10.606  22.207   2.371  1.00  0.00     0.049 C
ENDBRANCH  16  17
ENDBRANCH   1  16
TORSDOF 6
ENDMDL