MODEL 3
REMARK VINA RESULT: -7.980386123      2.971      5.364
REMARK  9 active torsions:
REMARK  status: ('A' for Active; 'I' for Inactive)
REMARK    1  A    between atoms: C1_2  and  C2_4
REMARK    2  A    between atoms: C2_4  and  C3_5
REMARK    3  A    between atoms: C3_5  and  N1_6
REMARK    4  A    between atoms: N1_6  and  C4_8
REMARK    5  A    between atoms: C4_8  and  C5_9
REMARK    6  A    between atoms: C5_9  and  C6_10
REMARK    7  A    between atoms: C6_10  and  C7_11
REMARK    8  A    between atoms: N2_17  and  C13_19
REMARK    9  A    between atoms: C13_19  and  N3_21
ROOT
HETATM    1  C4  UNL     1      -7.758  24.596   4.482  1.00  0.00     0.079 C
HETATM    2  N2  UNL     1      -8.386  23.893   5.347  1.00  0.00    -0.323 N
ATOM      3  H2  UNL     1      -7.948  23.799   6.263  1.00  0.00     0.169 HD
ENDROOT
BRANCH   1   4
HETATM    4  N1  UNL     1      -6.521  25.173   4.878  1.00  0.00    -0.379 N
ATOM      5  H1  UNL     1      -5.915  25.608   4.182  1.00  0.00     0.160 HD
BRANCH   4   6
HETATM    6  C3  UNL     1      -6.121  25.143   6.271  1.00  0.00     0.131 C
BRANCH   6   7
HETATM    7  C2  UNL     1      -4.906  24.230   6.395  1.00  0.00     0.132 C
BRANCH   7   8
HETATM    8  C1  UNL     1      -5.308  22.865   6.807  1.00  0.00     0.174 C
HETATM    9  O1  UNL     1      -6.062  22.171   6.091  1.00  0.00    -0.648 OA
HETATM   10  O2  UNL     1      -4.847  22.342   8.000  1.00  0.00    -0.648 OA
ENDBRANCH   7   8
ENDBRANCH   6   7
ENDBRANCH   4   6
ENDBRANCH   1   4
BRANCH   1  11
HETATM   11  C5  UNL     1      -8.301  24.795   3.118  1.00  0.00     0.080 C
BRANCH  11  12
HETATM   12  C6  UNL     1      -7.939  23.633   2.200  1.00  0.00     0.041 C
BRANCH  12  13
HETATM   13  C7  UNL     1      -8.323  24.044   0.831  1.00  0.00    -0.083 C
HETATM   14  C8  UNL     1      -8.405  23.128  -0.137  1.00  0.00    -0.024 C
HETATM   15  C9  UNL     1      -8.780  23.461  -1.521  1.00  0.00     0.027 C
HETATM   16  C10 UNL     1      -8.460  24.859  -1.921  1.00  0.00     0.004 C
HETATM   17  C11 UNL     1      -7.880  25.714  -0.846  1.00  0.00     0.005 C
HETATM   18  C12 UNL     1      -8.632  25.444   0.449  1.00  0.00     0.034 C
ENDBRANCH  12  13
ENDBRANCH  11  12
ENDBRANCH   1  11
BRANCH   2  19
HETATM   19  C13 UNL     1      -9.608  23.242   5.168  1.00  0.00     0.175 C
HETATM   20  S1  UNL     1      -9.767  21.748   4.544  1.00  0.00    -0.041 SA
BRANCH  19  21
HETATM   21  N3  UNL     1     -10.794  23.923   5.553  1.00  0.00    -0.358 N
HETATM   22  C14 UNL     1     -11.729  24.609   4.668  1.00  0.00     0.125 C
HETATM   23  C15 UNL     1     -12.866  24.998   5.551  1.00  0.00     0.021 C
HETATM   24  C16 UNL     1     -12.748  24.086   6.774  1.00  0.00     0.021 C
HETATM   25  C17 UNL     1     -11.246  24.033   6.923  1.00  0.00     0.125 C
ENDBRANCH  19  21
ENDBRANCH   2  19
TORSDOF 9
ENDMDL