MODEL 1
REMARK VINA RESULT: -8.194498274      0.000      0.000
REMARK  7 active torsions:
REMARK  status: ('A' for Active; 'I' for Inactive)
REMARK    1  A    between atoms: C10_10  and  C11_11
REMARK    2  A    between atoms: C11_11  and  N1_12
REMARK       I    between atoms: N1_12  and  C12_14
REMARK    3  A    between atoms: C12_14  and  C13_16
REMARK    4  A    between atoms: C13_16  and  C14_17
REMARK    5  A    between atoms: C14_17  and  C15_18
REMARK    6  A    between atoms: C15_18  and  S1_19
REMARK    7  A    between atoms: S1_19  and  N2_21
ROOT
HETATM    1  C11 UNL     1      -6.351  24.511   5.213  1.00  0.00     0.132 C
ENDROOT
BRANCH   1   2
HETATM    2  C10 UNL     1      -7.705  24.254   4.672  1.00  0.00    -0.023 C
HETATM    3  C9  UNL     1      -8.369  25.438   4.051  1.00  0.00     0.016 C
HETATM    4  C8  UNL     1      -9.741  25.066   3.563  1.00  0.00    -0.005 C
HETATM    5  C2  UNL     1      -9.721  23.977   2.526  1.00  0.00    -0.040 C
HETATM    6  C7  UNL     1     -10.544  24.600   4.744  1.00  0.00     0.010 C
HETATM    7  C1  UNL     1     -11.133  23.578   2.211  1.00  0.00     0.015 C
HETATM    8  C3  UNL     1      -9.062  24.406   1.239  1.00  0.00     0.015 C
HETATM    9  C4  UNL     1      -9.005  22.785   3.124  1.00  0.00    -0.005 C
HETATM   10  C5  UNL     1      -9.736  22.264   4.318  1.00  0.00     0.010 C
HETATM   11  C18 UNL     1      -7.606  23.180   3.581  1.00  0.00     0.016 C
HETATM   12  C6  UNL     1      -9.930  23.355   5.326  1.00  0.00    -0.013 C
HETATM   13  C17 UNL     1      -8.552  23.735   5.841  1.00  0.00     0.015 C
ENDBRANCH   1   2
BRANCH   1  14
HETATM   14  N1  UNL     1      -6.323  24.962   6.580  1.00  0.00    -0.360 N
HETATM   15  C12 UNL     1      -5.149  25.582   7.073  1.00  0.00     0.217 C
HETATM   16  O1  UNL     1      -4.161  25.722   6.302  1.00  0.00    -0.274 OA
ATOM     17  H1  UNL     1      -7.135  24.837   7.184  1.00  0.00     0.162 HD
BRANCH  15  18
HETATM   18  C13 UNL     1      -5.091  26.049   8.458  1.00  0.00     0.103 C
BRANCH  18  19
HETATM   19  C14 UNL     1      -4.126  27.121   8.770  1.00  0.00     0.023 C
BRANCH  19  20
HETATM   20  C15 UNL     1      -4.598  28.171   9.742  1.00  0.00     0.117 C
BRANCH  20  21
HETATM   21  S1  UNL     1      -4.145  29.818   9.106  1.00  0.00     0.015 S
HETATM   22  C16 UNL     1      -5.392  30.972   9.702  1.00  0.00     0.136 C
HETATM   23  O2  UNL     1      -4.179  29.838   7.419  1.00  0.00    -0.251 OA
BRANCH  21  24
HETATM   24  N2  UNL     1      -2.560  30.253   9.669  1.00  0.00    -0.360 N
ATOM     25  H22 UNL     1      -1.804  29.587   9.825  1.00  0.00     0.165 HD
ATOM     26  H21 UNL     1      -2.509  31.260   9.814  1.00  0.00     0.165 HD
ENDBRANCH  21  24
ENDBRANCH  20  21
ENDBRANCH  19  20
ENDBRANCH  18  19
ENDBRANCH  15  18
ENDBRANCH   1  14
TORSDOF 7
ENDMDL