MODEL 4
REMARK VINA RESULT: -7.090574514      5.221      7.876
REMARK  6 active torsions:
REMARK  status: ('A' for Active; 'I' for Inactive)
REMARK    1  A    between atoms: C2_2  and  C3_3
REMARK    2  A    between atoms: C3_3  and  C4_4
REMARK    3  A    between atoms: C4_4  and  C5_5
REMARK    4  A    between atoms: C5_5  and  C6_6
REMARK    5  A    between atoms: N1_8  and  N2_10
REMARK       I    between atoms: N2_10  and  C8_12
REMARK       I    between atoms: N4_14  and  C9_16
REMARK    6  A    between atoms: C9_16  and  C10_18
ROOT
HETATM    1  N2  UNL     1      -4.055  27.194   7.644  1.00  0.00    -0.274 N
ATOM      2  H2  UNL     1      -3.094  26.856   7.700  1.00  0.00     0.189 HD
HETATM    3  C8  UNL     1      -4.417  28.414   8.243  1.00  0.00     0.209 C
HETATM    4  N3  UNL     1      -4.204  29.627   7.532  1.00  0.00    -0.062 NA
HETATM    5  N4  UNL     1      -4.934  28.435   9.424  1.00  0.00    -0.300 N
ATOM      6  H4  UNL     1      -5.073  27.547   9.906  1.00  0.00     0.171 HD
HETATM    7  C9  UNL     1      -5.319  29.618  10.085  1.00  0.00     0.230 C
HETATM    8  O1  UNL     1      -6.526  29.897  10.202  1.00  0.00    -0.273 OA
ENDROOT
BRANCH   7   9
HETATM    9  C10 UNL     1      -4.292  30.520  10.637  1.00  0.00     0.101 C
HETATM   10  C11 UNL     1      -4.624  31.929  10.439  1.00  0.00     0.020 C
HETATM   11  C12 UNL     1      -4.241  32.884  11.514  1.00  0.00    -0.011 C
HETATM   12  C13 UNL     1      -2.815  32.812  11.936  1.00  0.00     0.009 C
HETATM   13  C17 UNL     1      -5.210  32.835  12.692  1.00  0.00     0.029 C
HETATM   14  C14 UNL     1      -2.515  31.838  13.020  1.00  0.00    -0.010 C
HETATM   15  C15 UNL     1      -3.472  31.956  14.179  1.00  0.00     0.029 C
HETATM   16  C19 UNL     1      -2.621  30.430  12.492  1.00  0.00     0.030 C
HETATM   17  C16 UNL     1      -4.861  31.719  13.636  1.00  0.00     0.077 C
HETATM   18  N5  UNL     1      -5.036  30.471  12.986  1.00  0.00    -0.412 N
HETATM   19  C18 UNL     1      -4.023  30.092  12.057  1.00  0.00     0.090 C
ATOM     20  H5  UNL     1      -5.843  29.877  13.172  1.00  0.00     0.154 HD
ENDBRANCH   7   9
BRANCH   1  21
HETATM   21  N1  UNL     1      -5.023  26.453   6.975  1.00  0.00    -0.307 N
HETATM   22  C6  UNL     1      -5.348  25.217   7.338  1.00  0.00    -0.000 C
HETATM   23  C7  UNL     1      -4.603  24.714   8.494  1.00  0.00     0.065 C
ATOM     24  H1  UNL     1      -5.500  26.873   6.178  1.00  0.00     0.186 HD
BRANCH  22  25
HETATM   25  C5  UNL     1      -6.389  24.556   6.537  1.00  0.00     0.053 C
BRANCH  25  26
HETATM   26  C4  UNL     1      -6.527  25.003   5.131  1.00  0.00     0.006 C
BRANCH  26  27
HETATM   27  C3  UNL     1      -7.780  24.753   4.401  1.00  0.00     0.000 C
BRANCH  27  28
HETATM   28  C2  UNL     1      -8.231  25.746   3.402  1.00  0.00    -0.005 C
HETATM   29  C1  UNL     1      -8.450  25.366   2.004  1.00  0.00     0.005 C
ENDBRANCH  27  28
ENDBRANCH  26  27
ENDBRANCH  25  26
ENDBRANCH  22  25
ENDBRANCH   1  21
TORSDOF 6
ENDMDL