MODEL 1
REMARK VINA RESULT: -6.508460330      0.000      0.000
REMARK  8 active torsions:
REMARK  status: ('A' for Active; 'I' for Inactive)
REMARK    1  A    between atoms: C2_2  and  C3_3
REMARK    2  A    between atoms: C4_4  and  C5_5
REMARK    3  A    between atoms: C6_6  and  C7_7
REMARK    4  A    between atoms: C7_7  and  C8_8
REMARK    5  A    between atoms: C8_8  and  N1_9
REMARK    6  A    between atoms: N1_9  and  C9_10
REMARK    7  A    between atoms: N1_9  and  C11_12
REMARK    8  A    between atoms: N1_9  and  C13_14
ROOT
HETATM    1  C3  UNL     1      -4.170  29.725  10.634  1.00  0.00    -0.022 A
HETATM    2  C4  UNL     1      -4.069  28.315  10.581  1.00  0.00     0.025 A
HETATM    3  C15 UNL     1      -3.889  27.641  11.747  1.00  0.00     0.023 A
HETATM    4  C16 UNL     1      -3.803  28.262  12.961  1.00  0.00     0.032 A
HETATM    5  C17 UNL     1      -3.904  29.627  12.990  1.00  0.00     0.052 A
HETATM    6  N2  UNL     1      -3.840  30.285  14.166  1.00  0.00    -0.308 N
ATOM      7  H2  UNL     1      -3.703  29.757  15.027  1.00  0.00     0.170 HD
HETATM    8  C18 UNL     1      -3.952  31.619  14.225  1.00  0.00     0.327 A
HETATM    9  O1  UNL     1      -3.888  32.219  15.333  1.00  0.00    -0.247 OA
HETATM   10  N3  UNL     1      -4.131  32.361  13.126  1.00  0.00    -0.275 N
ATOM     11  H3  UNL     1      -4.212  33.375  13.198  1.00  0.00     0.173 HD
HETATM   12  C19 UNL     1      -4.204  31.762  11.925  1.00  0.00     0.262 A
HETATM   13  O2  UNL     1      -4.375  32.485  10.936  1.00  0.00    -0.267 OA
HETATM   14  C20 UNL     1      -4.093  30.401  11.823  1.00  0.00     0.067 A
ENDROOT
BRANCH   2  15
HETATM   15  C5  UNL     1      -4.160  27.680   9.300  1.00  0.00    -0.066 C
HETATM   16  C6  UNL     1      -4.262  27.136   8.204  1.00  0.00    -0.099 C
BRANCH  16  17
HETATM   17  C7  UNL     1      -4.401  26.469   6.905  1.00  0.00     0.122 C
BRANCH  17  18
HETATM   18  C8  UNL     1      -4.025  25.034   7.078  1.00  0.00     0.249 C
BRANCH  18  19
HETATM   19  N1  UNL     1      -5.147  24.141   7.229  1.00  0.00    -0.067 N
BRANCH  19  20
HETATM   20  C9  UNL     1      -4.940  23.044   6.295  1.00  0.00     0.233 C
HETATM   21  C10 UNL     1      -4.813  21.705   6.938  1.00  0.00     0.035 C
ENDBRANCH  19  20
BRANCH  19  22
HETATM   22  C11 UNL     1      -6.357  24.808   6.867  1.00  0.00     0.233 C
HETATM   23  C12 UNL     1      -7.104  24.116   5.751  1.00  0.00     0.035 C
ENDBRANCH  19  22
BRANCH  19  24
HETATM   24  C13 UNL     1      -5.185  23.542   8.542  1.00  0.00     0.233 C
HETATM   25  C14 UNL     1      -4.180  24.034   9.511  1.00  0.00     0.035 C
ENDBRANCH  19  24
ENDBRANCH  18  19
ENDBRANCH  17  18
ENDBRANCH  16  17
ENDBRANCH   2  15
BRANCH   1  26
HETATM   26  C2  UNL     1      -4.366  30.409   9.358  1.00  0.00     0.036 C
HETATM   27  C1  UNL     1      -3.043  30.786   8.725  1.00  0.00     0.010 C
ENDBRANCH   1  26
TORSDOF 8
ENDMDL