MODEL 3
REMARK VINA RESULT: -6.918132097      0.696      1.149
REMARK  6 active torsions:
REMARK  status: ('A' for Active; 'I' for Inactive)
REMARK    1  A    between atoms: C2_2  and  C3_3
REMARK    2  A    between atoms: C3_3  and  N1_4
REMARK       I    between atoms: N1_4  and  C4_6
REMARK       I    between atoms: C4_6  and  N2_8
REMARK       I    between atoms: N3_12  and  C8_13
REMARK       I    between atoms: C8_13  and  N4_15
REMARK    3  A    between atoms: N4_15  and  C9_17
REMARK    4  A    between atoms: C9_17  and  C10_18
REMARK    5  A    between atoms: C9_17  and  C14_22
REMARK    6  A    between atoms: C10_18  and  C11_19
ROOT
HETATM    1  N1  UNL     1      -6.487  23.617   5.132  1.00  0.00    -0.322 N
ATOM      2  H1  UNL     1      -6.264  24.567   4.833  1.00  0.00     0.169 HD
HETATM    3  C4  UNL     1      -5.769  23.224   6.258  1.00  0.00     0.325 C
HETATM    4  O1  UNL     1      -5.986  22.055   6.756  1.00  0.00    -0.247 OA
HETATM    5  N2  UNL     1      -4.815  24.051   6.880  1.00  0.00    -0.312 N
HETATM    6  C5  UNL     1      -4.205  23.445   8.095  1.00  0.00     0.134 C
HETATM    7  C6  UNL     1      -4.951  24.162   9.230  1.00  0.00     0.040 C
HETATM    8  C7  UNL     1      -4.286  25.465   9.486  1.00  0.00     0.129 C
HETATM    9  N3  UNL     1      -4.558  26.510   8.535  1.00  0.00    -0.329 N
HETATM   10  C8  UNL     1      -4.197  27.804   8.959  1.00  0.00     0.318 C
HETATM   11  O2  UNL     1      -4.409  28.776   8.193  1.00  0.00    -0.247 OA
HETATM   12  N4  UNL     1      -3.590  28.099  10.227  1.00  0.00    -0.338 N
ATOM     13  H4  UNL     1      -3.396  27.344  10.885  1.00  0.00     0.164 HD
HETATM   14  C17 UNL     1      -5.140  26.446   7.203  1.00  0.00     0.172 C
HETATM   15  C18 UNL     1      -4.473  25.328   6.400  1.00  0.00     0.088 C
ENDROOT
BRANCH  12  16
HETATM   16  C9  UNL     1      -3.254  29.455  10.575  1.00  0.00     0.089 C
BRANCH  16  17
HETATM   17  C10 UNL     1      -4.165  30.495  10.060  1.00  0.00     0.029 C
BRANCH  17  18
HETATM   18  C11 UNL     1      -5.185  31.051  10.992  1.00  0.00    -0.021 C
HETATM   19  C12 UNL     1      -6.581  30.533  10.565  1.00  0.00     0.009 C
HETATM   20  C13 UNL     1      -5.296  32.554  10.865  1.00  0.00     0.009 C
ENDBRANCH  17  18
ENDBRANCH  16  17
BRANCH  16  21
HETATM   21  C14 UNL     1      -3.329  29.517  12.112  1.00  0.00     0.000 C
HETATM   22  C15 UNL     1      -3.439  28.137  12.709  1.00  0.00     0.011 C
HETATM   23  C16 UNL     1      -2.250  30.339  12.720  1.00  0.00     0.011 C
ENDBRANCH  16  21
ENDBRANCH  12  16
BRANCH   1  24
HETATM   24  C3  UNL     1      -7.451  23.001   4.312  1.00  0.00     0.065 C
BRANCH  24  25
HETATM   25  C2  UNL     1      -8.789  22.793   4.875  1.00  0.00     0.040 C
HETATM   26  C1  UNL     1      -9.921  22.540   3.954  1.00  0.00     0.010 C
ENDBRANCH  24  25
ENDBRANCH   1  24
TORSDOF 6
ENDMDL