MODEL 1
REMARK VINA RESULT: -6.791325815      0.000      0.000
REMARK  6 active torsions:
REMARK  status: ('A' for Active; 'I' for Inactive)
REMARK    1  A    between atoms: C2_2  and  C3_3
REMARK    2  A    between atoms: C3_3  and  C4_4
REMARK    3  A    between atoms: C4_4  and  C6_6
REMARK    4  A    between atoms: C4_4  and  C19_23
REMARK    5  A    between atoms: C6_6  and  N1_7
REMARK       I    between atoms: C7_9  and  N3_11
REMARK    6  A    between atoms: N3_11  and  C9_13
ROOT
HETATM    1  N1  UNL     1      -7.745  24.267   3.124  1.00  0.00    -0.363 N
ATOM      2  H1  UNL     1      -7.709  23.258   2.982  1.00  0.00     0.162 HD
HETATM    3  C7  UNL     1      -8.455  24.949   2.312  1.00  0.00     0.186 C
HETATM    4  N2  UNL     1      -8.540  26.346   2.460  1.00  0.00    -0.064 NA
HETATM    5  N3  UNL     1      -9.158  24.317   1.263  1.00  0.00    -0.351 N
HETATM    6  C8  UNL     1     -10.361  23.586   1.585  1.00  0.00     0.153 C
ENDROOT
BRANCH   1   7
HETATM    7  C6  UNL     1      -6.995  24.804   4.217  1.00  0.00     0.140 C
BRANCH   7   8
HETATM    8  C4  UNL     1      -7.060  23.899   5.454  1.00  0.00     0.051 C
HETATM    9  C5  UNL     1      -7.030  24.870   6.638  1.00  0.00     0.027 C
BRANCH   8  10
HETATM   10  C3  UNL     1      -5.824  23.070   5.514  1.00  0.00     0.020 C
BRANCH  10  11
HETATM   11  C2  UNL     1      -5.187  22.932   6.851  1.00  0.00    -0.003 C
HETATM   12  C1  UNL     1      -4.760  21.486   7.084  1.00  0.00     0.005 C
ENDBRANCH  10  11
ENDBRANCH   8  10
BRANCH   8  13
HETATM   13  C19 UNL     1      -8.314  23.130   5.466  1.00  0.00     0.241 C
HETATM   14  N4  UNL     1      -9.572  23.732   5.738  1.00  0.00    -0.061 NA
HETATM   15  O1  UNL     1      -8.293  21.907   5.230  1.00  0.00    -0.276 OA
ENDBRANCH   8  13
ENDBRANCH   7   8
ENDBRANCH   1   7
BRANCH   5  16
HETATM   16  C9  UNL     1      -8.723  24.377  -0.119  1.00  0.00     0.035 C
HETATM   17  C10 UNL     1      -7.584  23.403  -0.349  1.00  0.00     0.035 C
HETATM   18  C11 UNL     1      -7.208  23.423  -1.811  1.00  0.00    -0.012 C
HETATM   19  C12 UNL     1      -8.372  23.076  -2.714  1.00  0.00     0.009 C
HETATM   20  C16 UNL     1      -6.725  24.799  -2.231  1.00  0.00     0.009 C
HETATM   21  C13 UNL     1      -9.482  24.071  -2.476  1.00  0.00    -0.012 C
HETATM   22  C14 UNL     1      -9.035  25.468  -2.738  1.00  0.00     0.009 C
HETATM   23  C18 UNL     1      -9.856  23.959  -1.001  1.00  0.00     0.035 C
HETATM   24  C15 UNL     1      -7.801  25.787  -1.902  1.00  0.00    -0.012 C
HETATM   25  C17 UNL     1      -8.187  25.758  -0.456  1.00  0.00     0.035 C
ENDBRANCH   5  16
TORSDOF 6
ENDMDL