MODEL 3
REMARK VINA RESULT: -8.456334539      1.940      3.364
REMARK  6 active torsions:
REMARK  status: ('A' for Active; 'I' for Inactive)
REMARK    1  A    between atoms: C6_6  and  C7_7
REMARK    2  A    between atoms: C7_7  and  C8_8
REMARK    3  A    between atoms: C8_8  and  N1_9
REMARK       I    between atoms: N1_9  and  C9_11
REMARK    4  A    between atoms: C9_11  and  C10_13
REMARK    5  A    between atoms: C10_13  and  N2_14
REMARK    6  A    between atoms: C10_13  and  C14_21
REMARK       I    between atoms: N2_14  and  C11_16
REMARK       I    between atoms: C11_16  and  N3_18
ROOT
HETATM    1  N1  UNL     1      -5.979  24.503   5.352  1.00  0.00    -0.359 N
ATOM      2  H1  UNL     1      -5.133  24.246   4.843  1.00  0.00     0.162 HD
HETATM    3  C9  UNL     1      -5.862  24.659   6.758  1.00  0.00     0.240 C
HETATM    4  O1  UNL     1      -6.888  24.972   7.408  1.00  0.00    -0.271 OA
ENDROOT
BRANCH   1   5
HETATM    5  C8  UNL     1      -7.172  24.673   4.582  1.00  0.00     0.127 C
BRANCH   5   6
HETATM    6  C7  UNL     1      -8.023  23.426   4.475  1.00  0.00     0.058 C
BRANCH   6   7
HETATM    7  C6  UNL     1      -9.465  23.773   4.680  1.00  0.00    -0.050 A
HETATM    8  C4  UNL     1     -10.292  24.172   3.665  1.00  0.00    -0.055 A
HETATM    9  C3  UNL     1     -11.621  24.473   3.974  1.00  0.00     0.014 A
HETATM   10  C5  UNL     1      -9.795  24.282   2.275  1.00  0.00     0.049 C
HETATM   11  C2  UNL     1     -12.117  24.381   5.253  1.00  0.00    -0.056 A
HETATM   12  C1  UNL     1     -13.510  24.704   5.537  1.00  0.00     0.049 C
HETATM   13  C18 UNL     1     -11.291  23.981   6.278  1.00  0.00    -0.056 A
HETATM   14  C17 UNL     1      -9.980  23.683   5.984  1.00  0.00     0.015 A
HETATM   15  C19 UNL     1     -11.833  23.887   7.633  1.00  0.00     0.049 C
ENDBRANCH   6   7
ENDBRANCH   5   6
ENDBRANCH   1   5
BRANCH   3  16
HETATM   16  C10 UNL     1      -4.574  24.465   7.470  1.00  0.00     0.181 C
BRANCH  16  17
HETATM   17  N2  UNL     1      -4.447  25.472   8.481  1.00  0.00    -0.329 N
HETATM   18  C11 UNL     1      -4.223  26.838   8.233  1.00  0.00     0.318 C
HETATM   19  O2  UNL     1      -4.121  27.244   7.059  1.00  0.00    -0.247 OA
HETATM   20  N3  UNL     1      -4.113  27.755   9.296  1.00  0.00    -0.343 N
HETATM   21  C12 UNL     1      -3.881  29.182   9.040  1.00  0.00     0.154 C
HETATM   22  C13 UNL     1      -4.232  27.277  10.675  1.00  0.00     0.154 C
ATOM     23  H2  UNL     1      -4.525  25.176   9.453  1.00  0.00     0.165 HD
ENDBRANCH  16  17
BRANCH  16  24
HETATM   24  C14 UNL     1      -4.575  23.064   8.033  1.00  0.00     0.009 C
HETATM   25  C15 UNL     1      -3.286  22.702   8.697  1.00  0.00     0.012 C
HETATM   26  C16 UNL     1      -4.957  22.029   6.999  1.00  0.00     0.012 C
ENDBRANCH  16  24
ENDBRANCH   3  16
TORSDOF 6
ENDMDL