MODEL 3
REMARK VINA RESULT: -7.291144757      1.321      1.686
REMARK  8 active torsions:
REMARK  status: ('A' for Active; 'I' for Inactive)
REMARK    1  A    between atoms: C2_2  and  N1_3
REMARK    2  A    between atoms: N1_3  and  C3_4
REMARK       I    between atoms: N1_3  and  C5_6
REMARK       I    between atoms: C5_6  and  N2_8
REMARK    3  A    between atoms: N2_8  and  C6_10
REMARK    4  A    between atoms: C9_13  and  O2_14
REMARK    5  A    between atoms: C9_13  and  N3_16
REMARK    6  A    between atoms: N3_16  and  C10_18
REMARK    7  A    between atoms: C10_18  and  C11_19
REMARK    8  A    between atoms: C11_19  and  C12_20
ROOT
HETATM    1  C6  UNL     1      -7.091  23.862   5.258  1.00  0.00     0.110 A
HETATM    2  C7  UNL     1      -7.256  24.109   3.920  1.00  0.00     0.065 A
HETATM    3  C8  UNL     1      -8.526  24.191   3.310  1.00  0.00     0.026 A
HETATM    4  C9  UNL     1      -8.541  24.408   1.894  1.00  0.00     0.146 C
HETATM    5  C15 UNL     1      -9.633  24.018   4.080  1.00  0.00    -0.025 A
HETATM    6  C16 UNL     1     -10.986  24.122   3.535  1.00  0.00     0.051 C
HETATM    7  C17 UNL     1      -9.431  23.765   5.454  1.00  0.00     0.013 A
HETATM    8  C18 UNL     1     -10.657  23.579   6.273  1.00  0.00     0.068 C
HETATM    9  N4  UNL     1      -8.212  23.693   6.003  1.00  0.00    -0.346 N
ATOM     10  H4  UNL     1      -8.124  23.507   7.002  1.00  0.00     0.167 HD
ENDROOT
BRANCH   4  11
HETATM   11  O2  UNL     1      -7.487  25.005   1.388  1.00  0.00    -0.346 OA
ATOM     12  H2  UNL     1      -6.817  25.270   2.007  1.00  0.00     0.219 HD
ENDBRANCH   4  11
BRANCH   4  13
HETATM   13  N3  UNL     1      -9.489  24.091   0.933  1.00  0.00    -0.370 N
ATOM     14  H3  UNL     1     -10.473  24.300   1.102  1.00  0.00     0.161 HD
BRANCH  13  15
HETATM   15  C10 UNL     1      -9.086  23.462  -0.317  1.00  0.00     0.122 C
BRANCH  15  16
HETATM   16  C11 UNL     1      -9.079  24.417  -1.462  1.00  0.00     0.023 C
BRANCH  16  17
HETATM   17  C12 UNL     1      -8.317  23.835  -2.607  1.00  0.00    -0.021 C
HETATM   18  C13 UNL     1      -8.082  22.345  -2.358  1.00  0.00     0.009 C
HETATM   19  C14 UNL     1      -9.113  24.006  -3.875  1.00  0.00     0.009 C
ENDBRANCH  16  17
ENDBRANCH  15  16
ENDBRANCH  13  15
ENDBRANCH   4  13
BRANCH   1  20
HETATM   20  N2  UNL     1      -5.913  23.801   5.740  1.00  0.00    -0.295 N
HETATM   21  C5  UNL     1      -5.125  24.913   6.094  1.00  0.00     0.323 C
HETATM   22  N1  UNL     1      -5.117  25.443   7.408  1.00  0.00    -0.335 N
HETATM   23  O1  UNL     1      -4.411  25.445   5.209  1.00  0.00    -0.247 OA
ATOM     24  H2  UNL     1      -5.509  22.874   5.880  1.00  0.00     0.172 HD
BRANCH  22  25
HETATM   25  C2  UNL     1      -5.950  24.800   8.384  1.00  0.00     0.123 C
HETATM   26  C1  UNL     1      -5.257  23.783   9.226  1.00  0.00     0.026 C
ENDBRANCH  22  25
BRANCH  22  27
HETATM   27  C3  UNL     1      -4.276  26.584   7.668  1.00  0.00     0.123 C
HETATM   28  C4  UNL     1      -4.523  27.119   9.067  1.00  0.00     0.026 C
ENDBRANCH  22  27
ENDBRANCH   1  20
TORSDOF 8
ENDMDL