MODEL 5
REMARK VINA RESULT: -6.088185858      1.912      4.225
REMARK  11 active torsions:
REMARK  status: ('A' for Active; 'I' for Inactive)
REMARK    1  A    between atoms: C2_2  and  C3_3
REMARK    2  A    between atoms: C3_3  and  C4_4
REMARK    3  A    between atoms: C4_4  and  C5_5
REMARK    4  A    between atoms: C5_5  and  N1_6
REMARK       I    between atoms: N1_6  and  C6_8
REMARK    5  A    between atoms: C6_8  and  C7_10
REMARK    6  A    between atoms: C7_10  and  C8_11
REMARK    7  A    between atoms: C8_11  and  C9_12
REMARK    8  A    between atoms: C16_26  and  O4_27
REMARK    9  A    between atoms: C17_29  and  C18_30
REMARK   10  A    between atoms: C18_30  and  C19_31
REMARK   11  A    between atoms: C19_31  and  O5_33
ROOT
HETATM    1  C7  UNL     1      10.840  42.934  33.065  1.00  0.00     0.142 C
HETATM    2  N2  UNL     1      11.307  43.671  31.970  1.00  0.00    -0.333 N
ATOM      3  H2  UNL     1      12.311  43.582  31.808  1.00  0.00     0.164 HD
HETATM    4  C11 UNL     1      10.651  44.514  31.047  1.00  0.00     0.291 C
HETATM    5  O2  UNL     1      10.695  44.237  29.786  1.00  0.00    -0.264 OA
HETATM    6  C12 UNL     1       9.896  45.713  31.332  1.00  0.00     0.252 C
HETATM    7  O3  UNL     1       8.870  46.000  30.621  1.00  0.00    -0.284 OA
HETATM    8  C13 UNL     1      10.216  46.668  32.409  1.00  0.00     0.271 C
HETATM    9  F1  UNL     1      11.469  46.610  32.894  1.00  0.00    -0.239 F
HETATM   10  C14 UNL     1       9.218  46.727  33.494  1.00  0.00     0.121 C
HETATM   11  C15 UNL     1       7.838  47.167  32.936  1.00  0.00     0.035 C
HETATM   12  N3  UNL     1       9.122  45.680  34.452  1.00  0.00    -0.363 N
ATOM     13  H3  UNL     1       8.577  45.985  35.258  1.00  0.00     0.162 HD
HETATM   14  C16 UNL     1       9.543  44.374  34.624  1.00  0.00     0.141 C
HETATM   15  C17 UNL     1       9.588  43.141  33.810  1.00  0.00     0.010 C
ENDROOT
BRANCH   1  16
HETATM   16  C6  UNL     1      10.977  41.449  32.789  1.00  0.00     0.250 C
HETATM   17  N1  UNL     1      11.353  41.099  31.442  1.00  0.00    -0.359 N
ATOM     18  H1  UNL     1      11.512  41.816  30.734  1.00  0.00     0.162 HD
HETATM   19  O1  UNL     1      10.795  40.605  33.650  1.00  0.00    -0.270 OA
BRANCH  17  20
HETATM   20  C5  UNL     1      11.499  39.686  31.129  1.00  0.00     0.122 C
BRANCH  20  21
HETATM   21  C4  UNL     1      11.329  39.417  29.654  1.00  0.00     0.020 C
BRANCH  21  22
HETATM   22  C3  UNL     1      12.243  38.290  29.237  1.00  0.00     0.001 C
BRANCH  22  23
HETATM   23  C2  UNL     1      13.199  37.893  30.322  1.00  0.00    -0.004 C
HETATM   24  C1  UNL     1      14.390  37.147  29.740  1.00  0.00     0.005 C
ENDBRANCH  22  23
ENDBRANCH  21  22
ENDBRANCH  20  21
ENDBRANCH  17  20
ENDBRANCH   1  16
BRANCH   1  25
HETATM   25  C8  UNL     1      11.956  43.171  34.158  1.00  0.00     0.046 C
BRANCH  25  26
HETATM   26  C9  UNL     1      13.117  43.949  33.719  1.00  0.00    -0.001 C
HETATM   27  C10 UNL     1      13.671  44.620  35.019  1.00  0.00     0.005 C
ENDBRANCH  25  26
ENDBRANCH   1  25
BRANCH  15  28
HETATM   28  C18 UNL     1       8.306  42.709  33.184  1.00  0.00     0.073 C
BRANCH  28  29
HETATM   29  C19 UNL     1       7.456  41.726  33.964  1.00  0.00     0.118 C
HETATM   30  C20 UNL     1       6.347  42.552  34.636  1.00  0.00     0.039 C
BRANCH  29  31
HETATM   31  O5  UNL     1       8.125  41.101  34.955  1.00  0.00    -0.396 OA
ATOM     32  H5  UNL     1       7.978  41.482  35.812  1.00  0.00     0.210 HD
ENDBRANCH  29  31
ENDBRANCH  28  29
ENDBRANCH  15  28
BRANCH  14  33
HETATM   33  O4  UNL     1      10.035  44.178  35.848  1.00  0.00    -0.346 OA
ATOM     34  H4  UNL     1       9.806  43.318  36.180  1.00  0.00     0.219 HD
ENDBRANCH  14  33
TORSDOF 11
ENDMDL