MODEL 4
REMARK VINA RESULT: -7.204346401      2.722      5.963
REMARK  10 active torsions:
REMARK  status: ('A' for Active; 'I' for Inactive)
REMARK    1  A    between atoms: N1_2  and  C2_3
REMARK    2  A    between atoms: N1_2  and  C4_7
REMARK    3  A    between atoms: C2_3  and  C3_4
REMARK    4  A    between atoms: C4_7  and  C5_8
REMARK       I    between atoms: C5_8  and  N3_10
REMARK    5  A    between atoms: N3_10  and  C6_12
REMARK    6  A    between atoms: C6_12  and  C7_13
REMARK    7  A    between atoms: C6_12  and  C9_19
REMARK    8  A    between atoms: C7_13  and  C8_14
REMARK    9  A    between atoms: C8_14  and  N4_15
REMARK       I    between atoms: C9_19  and  N5_21
REMARK   10  A    between atoms: N5_21  and  C10_23
ROOT
HETATM    1  C6  UNL     1      10.742  40.841  32.650  1.00  0.00     0.178 C
ENDROOT
BRANCH   1   2
HETATM    2  N3  UNL     1      10.492  42.278  32.418  1.00  0.00    -0.346 N
HETATM    3  C5  UNL     1      11.287  43.254  33.061  1.00  0.00     0.246 C
HETATM    4  O2  UNL     1      12.202  42.889  33.815  1.00  0.00    -0.272 OA
ATOM      5  H3  UNL     1       9.742  42.567  31.791  1.00  0.00     0.163 HD
BRANCH   3   6
HETATM    6  C4  UNL     1      11.035  44.684  32.840  1.00  0.00     0.374 C
BRANCH   6   7
HETATM    7  N1  UNL     1      10.321  45.331  33.885  1.00  0.00     0.101 N
HETATM    8  C1  UNL     1      11.163  46.111  34.768  1.00  0.00     0.311 C
BRANCH   7   9
HETATM    9  C2  UNL     1       9.342  44.565  34.580  1.00  0.00     0.371 C
BRANCH   9  10
HETATM   10  C3  UNL     1       8.009  44.666  33.912  1.00  0.00     0.259 C
HETATM   11  N2  UNL     1       7.624  43.644  33.020  1.00  0.00    -0.061 NA
HETATM   12  O1  UNL     1       7.221  45.623  34.115  1.00  0.00    -0.275 OA
ENDBRANCH   9  10
ENDBRANCH   7   9
ENDBRANCH   6   7
ENDBRANCH   3   6
ENDBRANCH   1   2
BRANCH   1  13
HETATM   13  C7  UNL     1      10.551  40.085  31.344  1.00  0.00     0.062 C
BRANCH  13  14
HETATM   14  C8  UNL     1      11.794  39.329  30.949  1.00  0.00     0.232 C
BRANCH  14  15
HETATM   15  N4  UNL     1      12.445  38.755  32.104  1.00  0.00    -0.079 N
ATOM     16  H43 UNL     1      12.992  37.930  31.855  1.00  0.00     0.274 HD
ATOM     17  H42 UNL     1      13.202  39.348  32.442  1.00  0.00     0.274 HD
ATOM     18  H41 UNL     1      11.772  38.549  32.842  1.00  0.00     0.274 HD
ENDBRANCH  14  15
ENDBRANCH  13  14
ENDBRANCH   1  13
BRANCH   1  19
HETATM   19  C9  UNL     1       9.878  40.300  33.717  1.00  0.00     0.240 C
HETATM   20  O3  UNL     1      10.168  39.190  34.208  1.00  0.00    -0.271 OA
HETATM   21  N5  UNL     1       8.737  40.974  34.206  1.00  0.00    -0.355 N
ATOM     22  H5  UNL     1       8.491  41.878  33.801  1.00  0.00     0.162 HD
BRANCH  21  23
HETATM   23  C10 UNL     1       7.897  40.431  35.264  1.00  0.00     0.084 C
HETATM   24  C11 UNL     1       6.880  39.534  34.525  1.00  0.00     0.025 C
HETATM   25  C12 UNL     1       6.979  38.098  34.988  1.00  0.00     0.002 C
HETATM   26  C13 UNL     1       6.151  37.907  36.230  1.00  0.00     0.000 C
HETATM   27  C14 UNL     1       6.841  37.088  37.292  1.00  0.00     0.000 C
HETATM   28  C15 UNL     1       7.533  37.927  38.343  1.00  0.00     0.000 C
HETATM   29  C16 UNL     1       6.612  38.826  39.110  1.00  0.00     0.000 C
HETATM   30  C17 UNL     1       7.200  40.206  39.327  1.00  0.00     0.000 C
HETATM   31  C18 UNL     1       6.316  41.305  38.808  1.00  0.00     0.000 C
HETATM   32  C19 UNL     1       7.082  42.471  38.264  1.00  0.00     0.000 C
HETATM   33  C20 UNL     1       7.966  42.128  37.081  1.00  0.00     0.002 C
HETATM   34  C21 UNL     1       7.191  41.573  35.937  1.00  0.00     0.025 C
ENDBRANCH  21  23
ENDBRANCH   1  19
TORSDOF 10
ENDMDL