MODEL 5
REMARK VINA RESULT: -6.196004422      3.851      7.743
REMARK  12 active torsions:
REMARK  status: ('A' for Active; 'I' for Inactive)
REMARK    1  A    between atoms: C3_5  and  C4_6
REMARK    2  A    between atoms: C3_5  and  C5_9
REMARK    3  A    between atoms: C4_6  and  O1_7
REMARK    4  A    between atoms: C5_9  and  O2_10
REMARK    5  A    between atoms: O2_10  and  C6_11
REMARK    6  A    between atoms: C6_11  and  C7_13
REMARK    7  A    between atoms: C7_13  and  C8_14
REMARK    8  A    between atoms: C8_14  and  C9_15
REMARK    9  A    between atoms: C9_15  and  C10_16
REMARK   10  A    between atoms: C10_16  and  C11_17
REMARK   11  A    between atoms: C11_17  and  C12_18
REMARK   12  A    between atoms: C20_31  and  O4_32
ROOT
HETATM    1  C5  UNL     1      11.100  42.297  33.571  1.00  0.00     0.242 C
ENDROOT
BRANCH   1   2
HETATM    2  C3  UNL     1      10.807  41.378  32.422  1.00  0.00     0.237 C
HETATM    3  N1  UNL     1      10.736  42.085  31.203  1.00  0.00    -0.381 N
HETATM    4  C2  UNL     1      10.503  41.268  30.036  1.00  0.00     0.105 C
ATOM      5  H1  UNL     1      10.841  43.098  31.150  1.00  0.00     0.156 HD
HETATM    6  C1  UNL     1       9.033  41.312  29.720  1.00  0.00     0.034 C
HETATM    7  C20 UNL     1      11.092  39.923  30.076  1.00  0.00     0.170 C
HETATM    8  C18 UNL     1      11.495  39.377  31.405  1.00  0.00     0.215 C
HETATM    9  N3  UNL     1      11.885  40.401  32.355  1.00  0.00    -0.038 N
HETATM   10  C19 UNL     1      12.725  38.473  31.252  1.00  0.00     0.043 C
ATOM     11  H32 UNL     1      12.788  40.821  32.136  1.00  0.00     0.280 HD
ATOM     12  H31 UNL     1      12.131  40.020  33.269  1.00  0.00     0.280 HD
BRANCH   7  13
HETATM   13  O4  UNL     1      10.210  39.006  29.498  1.00  0.00    -0.391 OA
ATOM     14  H4  UNL     1      10.094  38.264  30.079  1.00  0.00     0.210 HD
ENDBRANCH   7  13
BRANCH   2  15
HETATM   15  C4  UNL     1       9.493  40.689  32.759  1.00  0.00     0.227 C
BRANCH  15  16
HETATM   16  O1  UNL     1       9.489  40.236  34.078  1.00  0.00    -0.397 OA
ATOM     17  H1  UNL     1       9.266  39.314  34.122  1.00  0.00     0.209 HD
ENDBRANCH  15  16
ENDBRANCH   2  15
ENDBRANCH   1   2
BRANCH   1  18
HETATM   18  O2  UNL     1      12.265  42.964  33.643  1.00  0.00    -0.317 OA
BRANCH  18  19
HETATM   19  C6  UNL     1      12.813  43.863  34.482  1.00  0.00     0.258 C
HETATM   20  O3  UNL     1      14.022  43.774  34.780  1.00  0.00    -0.265 OA
BRANCH  19  21
HETATM   21  C7  UNL     1      11.970  44.981  35.066  1.00  0.00     0.111 C
BRANCH  21  22
HETATM   22  C8  UNL     1      11.729  46.066  34.050  1.00  0.00     0.010 C
BRANCH  22  23
HETATM   23  C9  UNL     1      10.331  45.997  33.498  1.00  0.00     0.001 C
BRANCH  23  24
HETATM   24  C10 UNL     1      10.315  45.524  32.082  1.00  0.00     0.005 C
BRANCH  24  25
HETATM   25  C11 UNL     1      11.536  45.806  31.284  1.00  0.00     0.040 C
BRANCH  25  26
HETATM   26  C12 UNL     1      11.305  46.376  29.948  1.00  0.00    -0.034 A
HETATM   27  C13 UNL     1      11.396  45.615  28.808  1.00  0.00     0.026 A
HETATM   28  C14 UNL     1      11.166  46.163  27.547  1.00  0.00     0.090 A
HETATM   29  N2  UNL     1      10.845  47.462  27.414  1.00  0.00    -0.369 N
HETATM   30  C15 UNL     1      10.599  48.038  26.082  1.00  0.00     0.154 C
HETATM   31  C16 UNL     1      10.748  48.226  28.509  1.00  0.00     0.114 A
HETATM   32  C17 UNL     1      10.973  47.706  29.790  1.00  0.00     0.055 A
HETATM   33 CL1  UNL     1      10.842  48.722  31.198  1.00  0.00    -0.082 Cl
ENDBRANCH  25  26
ENDBRANCH  24  25
ENDBRANCH  23  24
ENDBRANCH  22  23
ENDBRANCH  21  22
ENDBRANCH  19  21
ENDBRANCH  18  19
ENDBRANCH   1  18
TORSDOF 12
ENDMDL