MODEL 3
REMARK VINA RESULT: -6.856161540      4.248      7.282
REMARK  10 active torsions:
REMARK  status: ('A' for Active; 'I' for Inactive)
REMARK    1  A    between atoms: C2_2  and  C4_4
REMARK    2  A    between atoms: C4_4  and  C5_5
REMARK    3  A    between atoms: C5_5  and  N1_6
REMARK    4  A    between atoms: C5_5  and  C14_22
REMARK       I    between atoms: N1_6  and  C6_8
REMARK    5  A    between atoms: C6_8  and  C7_10
REMARK    6  A    between atoms: C7_10  and  N2_11
REMARK    7  A    between atoms: C7_10  and  C11_19
REMARK       I    between atoms: N2_11  and  C8_13
REMARK    8  A    between atoms: C8_13  and  C9_15
REMARK    9  A    between atoms: C9_15  and  C10_16
REMARK   10  A    between atoms: C10_16  and  O3_17
REMARK       I    between atoms: C14_22  and  N3_24
ROOT
HETATM    1  C5  UNL     1      10.990  43.035  33.050  1.00  0.00     0.177 C
ENDROOT
BRANCH   1   2
HETATM    2  C4  UNL     1      12.177  43.125  33.931  1.00  0.00     0.038 C
BRANCH   2   3
HETATM    3  C2  UNL     1      13.030  44.328  33.863  1.00  0.00    -0.020 C
HETATM    4  C1  UNL     1      12.276  45.418  34.667  1.00  0.00     0.009 C
HETATM    5  C3  UNL     1      14.378  44.190  34.492  1.00  0.00     0.009 C
ENDBRANCH   2   3
ENDBRANCH   1   2
BRANCH   1   6
HETATM    6  N1  UNL     1      10.968  41.792  32.296  1.00  0.00    -0.346 N
HETATM    7  C6  UNL     1      10.872  41.682  30.888  1.00  0.00     0.241 C
HETATM    8  O1  UNL     1      10.799  42.797  30.279  1.00  0.00    -0.271 OA
ATOM      9  H1  UNL     1      11.028  40.924  32.828  1.00  0.00     0.163 HD
BRANCH   7  10
HETATM   10  C7  UNL     1      10.850  40.462  30.112  1.00  0.00     0.180 C
BRANCH  10  11
HETATM   11  N2  UNL     1      11.733  39.475  30.755  1.00  0.00    -0.347 N
HETATM   12  C8  UNL     1      12.567  38.610  30.072  1.00  0.00     0.220 C
HETATM   13  O2  UNL     1      12.613  38.623  28.827  1.00  0.00    -0.274 OA
ATOM     14  H2  UNL     1      11.729  39.427  31.774  1.00  0.00     0.163 HD
BRANCH  12  15
HETATM   15  C9  UNL     1      13.417  37.655  30.802  1.00  0.00     0.128 C
BRANCH  15  16
HETATM   16  C10 UNL     1      14.643  37.291  29.989  1.00  0.00     0.173 C
BRANCH  16  17
HETATM   17  O3  UNL     1      15.751  37.927  30.583  1.00  0.00    -0.400 OA
ATOM     18  H3  UNL     1      16.440  37.277  30.676  1.00  0.00     0.209 HD
ENDBRANCH  16  17
ENDBRANCH  15  16
ENDBRANCH  12  15
ENDBRANCH  10  11
BRANCH  10  19
HETATM   19  C11 UNL     1       9.547  39.786  29.921  1.00  0.00     0.009 C
HETATM   20  C12 UNL     1       9.303  39.703  28.406  1.00  0.00     0.012 C
HETATM   21  C13 UNL     1       8.343  40.419  30.506  1.00  0.00     0.012 C
ENDBRANCH  10  19
ENDBRANCH   7  10
ENDBRANCH   1   6
BRANCH   1  22
HETATM   22  C14 UNL     1       9.678  43.336  33.637  1.00  0.00     0.246 C
HETATM   23  O4  UNL     1       8.747  43.828  32.892  1.00  0.00    -0.271 OA
HETATM   24  N3  UNL     1       9.317  43.140  34.969  1.00  0.00    -0.304 N
HETATM   25  C15 UNL     1       8.156  42.753  35.407  1.00  0.00     0.168 A
ATOM     26  H3  UNL     1      10.036  43.318  35.670  1.00  0.00     0.171 HD
HETATM   27  N4  UNL     1       7.022  42.442  34.782  1.00  0.00    -0.278 N
HETATM   28  S1  UNL     1       7.685  42.516  37.062  1.00  0.00    -0.021 SA
HETATM   29  N5  UNL     1       6.010  42.093  35.467  1.00  0.00    -0.282 N
ATOM     30  H4  UNL     1       6.965  42.483  33.765  1.00  0.00     0.189 HD
HETATM   31  C16 UNL     1       6.072  42.037  36.784  1.00  0.00     0.163 A
ATOM     32  H5  UNL     1       5.139  41.852  34.993  1.00  0.00     0.188 HD
HETATM   33 CL1  UNL     1       4.775  41.578  37.894  1.00  0.00    -0.055 Cl
ENDBRANCH   1  22
TORSDOF 10
ENDMDL