MODEL 2
REMARK VINA RESULT: -5.879633858      4.125      5.768
REMARK  13 active torsions:
REMARK  status: ('A' for Active; 'I' for Inactive)
REMARK    1  A    between atoms: O1_1  and  C1_3
REMARK    2  A    between atoms: C1_3  and  C2_4
REMARK    3  A    between atoms: C3_5  and  O2_6
REMARK    4  A    between atoms: C4_8  and  O3_9
REMARK    5  A    between atoms: C5_11  and  O4_12
REMARK    6  A    between atoms: N1_15  and  C7_16
REMARK    7  A    between atoms: C7_16  and  C8_17
REMARK    8  A    between atoms: C8_17  and  C9_18
REMARK    9  A    between atoms: C9_18  and  C10_19
REMARK   10  A    between atoms: C10_19  and  C11_20
REMARK   11  A    between atoms: C11_20  and  C12_21
REMARK   12  A    between atoms: C12_21  and  C13_22
REMARK   13  A    between atoms: C13_22  and  C14_23
ROOT
HETATM    1  C2  UNL     1      10.361  45.688  35.020  1.00  0.00     0.138 C
HETATM    2  C3  UNL     1      11.481  46.351  34.313  1.00  0.00     0.174 C
HETATM    3  C4  UNL     1      12.593  45.401  33.939  1.00  0.00     0.182 C
HETATM    4  C5  UNL     1      12.090  44.065  33.498  1.00  0.00     0.187 C
HETATM    5  C6  UNL     1      10.607  43.986  33.322  1.00  0.00     0.093 C
HETATM    6  N1  UNL     1       9.796  44.614  34.256  1.00  0.00    -0.382 N
ENDROOT
BRANCH   6   7
HETATM    7  C7  UNL     1       8.842  43.850  34.975  1.00  0.00     0.122 C
BRANCH   7   8
HETATM    8  C8  UNL     1       8.873  42.375  34.763  1.00  0.00     0.020 C
BRANCH   8   9
HETATM    9  C9  UNL     1       7.785  41.650  35.522  1.00  0.00     0.002 C
BRANCH   9  10
HETATM   10  C10 UNL     1       7.384  40.378  34.756  1.00  0.00     0.000 C
BRANCH  10  11
HETATM   11  C11 UNL     1       8.623  39.528  34.607  1.00  0.00     0.000 C
BRANCH  11  12
HETATM   12  C12 UNL     1       8.430  38.201  35.277  1.00  0.00     0.005 C
BRANCH  12  13
HETATM   13  C13 UNL     1       8.979  38.173  36.661  1.00  0.00     0.038 C
BRANCH  13  14
HETATM   14  C14 UNL     1       7.898  38.406  37.673  1.00  0.00    -0.058 A
HETATM   15  C15 UNL     1       6.743  37.663  37.622  1.00  0.00     0.008 A
HETATM   16  C16 UNL     1       5.779  37.925  38.581  1.00  0.00     0.019 A
HETATM   17  C17 UNL     1       6.014  38.906  39.538  1.00  0.00     0.011 A
HETATM   18 BR1  UNL     1       4.703  39.280  40.867  1.00  0.00    -0.051 Br
HETATM   19  C18 UNL     1       7.180  39.643  39.576  1.00  0.00     0.019 A
HETATM   20  C19 UNL     1       8.140  39.382  38.619  1.00  0.00     0.008 A
ENDBRANCH  13  14
ENDBRANCH  12  13
ENDBRANCH  11  12
ENDBRANCH  10  11
ENDBRANCH   9  10
ENDBRANCH   8   9
ENDBRANCH   7   8
ENDBRANCH   6   7
BRANCH   1  21
HETATM   21  C1  UNL     1      10.664  45.294  36.443  1.00  0.00     0.192 C
BRANCH  21  22
HETATM   22  O1  UNL     1      11.397  46.241  37.120  1.00  0.00    -0.399 OA
ATOM     23  H1  UNL     1      11.871  46.828  36.542  1.00  0.00     0.209 HD
ENDBRANCH  21  22
ENDBRANCH   1  21
BRANCH   2  24
HETATM   24  O2  UNL     1      10.985  46.888  33.118  1.00  0.00    -0.391 OA
ATOM     25  H2  UNL     1      10.252  47.455  33.330  1.00  0.00     0.210 HD
ENDBRANCH   2  24
BRANCH   4  26
HETATM   26  O4  UNL     1      12.624  43.040  34.280  1.00  0.00    -0.388 OA
ATOM     27  H4  UNL     1      13.564  42.970  34.163  1.00  0.00     0.210 HD
ENDBRANCH   4  26
BRANCH   3  28
HETATM   28  O3  UNL     1      13.415  45.251  35.075  1.00  0.00    -0.390 OA
ATOM     29  H3  UNL     1      13.197  44.416  35.473  1.00  0.00     0.210 HD
ENDBRANCH   3  28
TORSDOF 13
ENDMDL