MODEL 3
REMARK VINA RESULT: -6.888381853      1.149      2.336
REMARK  10 active torsions:
REMARK  status: ('A' for Active; 'I' for Inactive)
REMARK    1  A    between atoms: C2_2  and  C4_4
REMARK    2  A    between atoms: C4_4  and  N1_5
REMARK    3  A    between atoms: C4_4  and  C15_17
REMARK    4  A    between atoms: N1_5  and  C5_7
REMARK    5  A    between atoms: C15_17  and  O1_18
REMARK    6  A    between atoms: C15_17  and  N2_20
REMARK       I    between atoms: N2_20  and  C16_22
REMARK    7  A    between atoms: C16_22  and  C17_24
REMARK    8  A    between atoms: C17_24  and  C18_25
REMARK    9  A    between atoms: C17_24  and  N4_29
REMARK   10  A    between atoms: C18_25  and  C19_26
ROOT
HETATM    1  C4  UNL     1      10.873  43.983  33.654  1.00  0.00     0.129 C
ENDROOT
BRANCH   1   2
HETATM    2  C2  UNL     1      10.847  44.605  35.073  1.00  0.00     0.004 C
HETATM    3  C1  UNL     1       9.615  44.333  35.868  1.00  0.00     0.012 C
HETATM    4  C3  UNL     1      11.095  46.079  35.065  1.00  0.00     0.012 C
ENDBRANCH   1   2
BRANCH   1   5
HETATM    5  N1  UNL     1      11.553  44.967  32.878  1.00  0.00    -0.404 N
ATOM      6  H1  UNL     1      12.417  45.367  33.242  1.00  0.00     0.154 HD
BRANCH   5   7
HETATM    7  C5  UNL     1      11.080  45.404  31.638  1.00  0.00     0.027 C
HETATM    8  C6  UNL     1       9.708  44.818  31.388  1.00  0.00     0.035 C
HETATM    9  C7  UNL     1       9.222  45.041  29.957  1.00  0.00    -0.012 C
HETATM   10  C8  UNL     1      10.206  44.551  28.947  1.00  0.00     0.009 C
HETATM   11  C12 UNL     1       9.022  46.520  29.822  1.00  0.00     0.009 C
HETATM   12  C9  UNL     1      11.505  45.283  29.170  1.00  0.00    -0.012 C
HETATM   13  C10 UNL     1      11.315  46.794  29.039  1.00  0.00     0.009 C
HETATM   14  C14 UNL     1      12.010  44.998  30.541  1.00  0.00     0.035 C
HETATM   15  C11 UNL     1      10.319  47.190  30.114  1.00  0.00    -0.012 C
HETATM   16  C13 UNL     1      10.888  46.908  31.490  1.00  0.00     0.035 C
ENDBRANCH   5   7
ENDBRANCH   1   5
BRANCH   1  17
HETATM   17  C15 UNL     1      11.574  42.659  33.792  1.00  0.00     0.242 C
BRANCH  17  18
HETATM   18  O1  UNL     1      12.961  42.809  34.073  1.00  0.00    -0.375 OA
ATOM     19  H1  UNL     1      13.189  42.496  34.940  1.00  0.00     0.212 HD
ENDBRANCH  17  18
BRANCH  17  20
HETATM   20  N2  UNL     1      11.645  42.028  32.445  1.00  0.00    -0.331 N
HETATM   21  C16 UNL     1      11.437  40.643  32.235  1.00  0.00     0.253 C
HETATM   22  O2  UNL     1      11.190  39.864  33.178  1.00  0.00    -0.271 OA
ATOM     23  H2  UNL     1      11.852  42.619  31.640  1.00  0.00     0.165 HD
BRANCH  21  24
HETATM   24  C17 UNL     1      11.505  40.061  30.857  1.00  0.00     0.322 C
BRANCH  24  25
HETATM   25  C18 UNL     1      11.860  38.594  31.003  1.00  0.00     0.145 C
BRANCH  25  26
HETATM   26  C19 UNL     1      13.140  38.232  30.362  1.00  0.00     0.233 C
HETATM   27  N3  UNL     1      13.208  38.153  28.956  1.00  0.00    -0.062 NA
HETATM   28  O3  UNL     1      14.143  38.001  31.052  1.00  0.00    -0.277 OA
ENDBRANCH  25  26
ENDBRANCH  24  25
BRANCH  24  29
HETATM   29  N4  UNL     1      10.414  40.309  30.024  1.00  0.00     0.102 N
HETATM   30  C20 UNL     1       9.121  40.647  30.439  1.00  0.00     0.275 C
HETATM   31  C21 UNL     1       8.483  39.758  29.357  1.00  0.00     0.060 C
HETATM   32  C22 UNL     1       9.926  39.363  29.093  1.00  0.00     0.275 C
ENDBRANCH  24  29
ENDBRANCH  21  24
ENDBRANCH  17  20
ENDBRANCH   1  17
TORSDOF 10
ENDMDL