MODEL 3
REMARK VINA RESULT: -6.573623946      4.690      7.745
REMARK  11 active torsions:
REMARK  status: ('A' for Active; 'I' for Inactive)
REMARK    1  A    between atoms: C2_2  and  C4_5
REMARK    2  A    between atoms: C4_5  and  C5_6
REMARK    3  A    between atoms: C4_5  and  N1_9
REMARK    4  A    between atoms: C5_6  and  O1_7
REMARK    5  A    between atoms: N1_9  and  C6_11
REMARK    6  A    between atoms: C6_11  and  C7_12
REMARK       I    between atoms: C7_12  and  N2_14
REMARK    7  A    between atoms: N2_14  and  C8_16
REMARK    8  A    between atoms: C8_16  and  C9_17
REMARK    9  A    between atoms: C9_17  and  C10_18
REMARK   10  A    between atoms: C9_17  and  N4_28
REMARK       I    between atoms: C10_18  and  N3_20
REMARK   11  A    between atoms: N3_20  and  C11_22
ROOT
HETATM    1  C9  UNL     1       7.275  39.841  35.355  1.00  0.00     0.193 C
ENDROOT
BRANCH   1   2
HETATM    2  C8  UNL     1       8.499  39.379  34.556  1.00  0.00     0.158 C
BRANCH   2   3
HETATM    3  N2  UNL     1       9.168  40.518  33.970  1.00  0.00    -0.354 N
HETATM    4  C7  UNL     1      10.467  40.438  33.355  1.00  0.00     0.256 C
HETATM    5  O2  UNL     1      10.997  39.325  33.336  1.00  0.00    -0.267 OA
ATOM      6  H2  UNL     1       8.696  41.422  33.993  1.00  0.00     0.162 HD
BRANCH   4   7
HETATM    7  C6  UNL     1      11.049  41.664  32.811  1.00  0.00     0.158 C
BRANCH   7   8
HETATM    8  N1  UNL     1      11.341  42.665  33.732  1.00  0.00    -0.385 N
ATOM      9  H1  UNL     1      10.864  42.632  34.632  1.00  0.00     0.159 HD
BRANCH   8  10
HETATM   10  C4  UNL     1      12.234  43.705  33.516  1.00  0.00     0.143 C
BRANCH  10  11
HETATM   11  C2  UNL     1      11.441  44.961  33.091  1.00  0.00     0.118 C
HETATM   12  C1  UNL     1      11.836  45.292  31.648  1.00  0.00     0.053 C
HETATM   13  C3  UNL     1      11.758  46.146  33.931  1.00  0.00     0.053 C
HETATM   14  F1  UNL     1      10.106  44.650  33.189  1.00  0.00    -0.241 F
ENDBRANCH  10  11
BRANCH  10  15
HETATM   15  C5  UNL     1      13.235  44.114  34.529  1.00  0.00     0.192 C
BRANCH  15  16
HETATM   16  O1  UNL     1      14.331  43.256  34.596  1.00  0.00    -0.399 OA
ATOM     17  H1  UNL     1      14.806  43.318  35.416  1.00  0.00     0.209 HD
ENDBRANCH  15  16
ENDBRANCH  10  15
ENDBRANCH   8  10
ENDBRANCH   7   8
ENDBRANCH   4   7
ENDBRANCH   2   3
ENDBRANCH   1   2
BRANCH   1  18
HETATM   18  C10 UNL     1       7.137  41.313  35.300  1.00  0.00     0.242 C
HETATM   19  O3  UNL     1       6.612  41.933  34.346  1.00  0.00    -0.271 OA
HETATM   20  N3  UNL     1       7.607  42.170  36.366  1.00  0.00    -0.355 N
ATOM     21  H3  UNL     1       8.043  41.745  37.184  1.00  0.00     0.162 HD
BRANCH  20  22
HETATM   22  C11 UNL     1       7.480  43.589  36.309  1.00  0.00     0.084 C
HETATM   23  C12 UNL     1       8.823  44.228  36.088  1.00  0.00     0.025 C
HETATM   24  C13 UNL     1       8.743  45.740  36.173  1.00  0.00     0.002 C
HETATM   25  C14 UNL     1       7.328  46.223  36.407  1.00  0.00     0.000 C
HETATM   26  C15 UNL     1       6.644  45.559  37.569  1.00  0.00     0.002 C
HETATM   27  C16 UNL     1       7.009  44.092  37.684  1.00  0.00     0.025 C
ENDBRANCH  20  22
ENDBRANCH   1  18
BRANCH   1  28
HETATM   28  N4  UNL     1       7.295  39.281  36.632  1.00  0.00    -0.379 N
HETATM   29  C17 UNL     1       6.140  38.929  37.318  1.00  0.00     0.123 C
HETATM   30  C18 UNL     1       6.171  39.596  38.702  1.00  0.00     0.020 C
HETATM   31  C19 UNL     1       7.520  39.445  39.323  1.00  0.00     0.007 C
HETATM   32  C20 UNL     1       8.438  38.479  38.629  1.00  0.00     0.044 C
HETATM   33  C21 UNL     1       8.480  38.731  37.127  1.00  0.00     0.059 C
ENDBRANCH   1  28
TORSDOF 11
ENDMDL