MODEL 3
REMARK VINA RESULT: -6.894278838      1.521      2.179
REMARK  11 active torsions:
REMARK  status: ('A' for Active; 'I' for Inactive)
REMARK    1  A    between atoms: C2_2  and  N2_6
REMARK    2  A    between atoms: N2_6  and  C3_8
REMARK    3  A    between atoms: C3_8  and  C4_9
REMARK    4  A    between atoms: C4_9  and  C5_10
REMARK    5  A    between atoms: C5_10  and  N3_11
REMARK    6  A    between atoms: C7_16  and  N5_17
REMARK    7  A    between atoms: N5_17  and  C8_19
REMARK    8  A    between atoms: C8_19  and  C9_20
REMARK    9  A    between atoms: C9_20  and  C10_21
REMARK   10  A    between atoms: C10_21  and  N6_22
REMARK   11  A    between atoms: N7_25  and  C13_26
ROOT
HETATM    1  N3  UNL     1      11.381  39.636  30.420  1.00  0.00    -0.374 N
ATOM      2  H3  UNL     1      12.377  39.596  30.638  1.00  0.00     0.161 HD
HETATM    3  C6  UNL     1      10.846  40.454  31.175  1.00  0.00     0.140 A
HETATM    4  N4  UNL     1      11.642  41.098  32.092  1.00  0.00    -0.175 N
ATOM      5  H4  UNL     1      12.639  40.883  32.121  1.00  0.00     0.186 HD
HETATM    6  C7  UNL     1      11.147  41.996  32.947  1.00  0.00     0.679 A
HETATM    7  N8  UNL     1       9.832  42.306  32.938  1.00  0.00    -0.200 N
ATOM      8  H8  UNL     1       9.466  42.994  33.595  1.00  0.00     0.183 HD
HETATM    9  C18 UNL     1       9.009  41.710  32.066  1.00  0.00     0.133 A
HETATM   10  C19 UNL     1       9.519  40.775  31.176  1.00  0.00     0.094 A
HETATM   11 CL1  UNL     1       8.368  40.032  30.056  1.00  0.00    -0.079 Cl
ENDROOT
BRANCH   6  12
HETATM   12  N5  UNL     1      12.000  42.534  33.763  1.00  0.00    -0.226 N
ATOM     13  H5  UNL     1      12.836  42.009  34.020  1.00  0.00     0.177 HD
BRANCH  12  14
HETATM   14  C8  UNL     1      11.806  43.831  34.310  1.00  0.00     0.140 C
BRANCH  14  15
HETATM   15  C9  UNL     1      12.383  44.896  33.407  1.00  0.00     0.050 C
BRANCH  15  16
HETATM   16  C10 UNL     1      11.259  45.844  33.009  1.00  0.00     0.274 C
BRANCH  16  17
HETATM   17  N6  UNL     1      10.706  45.513  31.703  1.00  0.00     0.091 N
HETATM   18  C11 UNL     1      10.124  46.741  31.192  1.00  0.00     0.291 C
HETATM   19  C12 UNL     1      10.880  47.224  29.980  1.00  0.00     0.147 C
HETATM   20  N7  UNL     1      10.897  46.179  28.998  1.00  0.00    -0.406 N
HETATM   21  C16 UNL     1      11.488  44.969  29.421  1.00  0.00     0.147 C
HETATM   22  C17 UNL     1      11.822  45.057  30.897  1.00  0.00     0.291 C
BRANCH  20  23
HETATM   23  C13 UNL     1      11.210  46.654  27.708  1.00  0.00     0.071 C
HETATM   24  C14 UNL     1      12.021  45.638  26.906  1.00  0.00     0.031 C
HETATM   25  C15 UNL     1      10.061  47.081  26.868  1.00  0.00     0.031 C
ENDBRANCH  20  23
ENDBRANCH  16  17
ENDBRANCH  15  16
ENDBRANCH  14  15
ENDBRANCH  12  14
ENDBRANCH   6  12
BRANCH   1  26
HETATM   26  C5  UNL     1      11.123  38.757  29.387  1.00  0.00     0.123 C
BRANCH  26  27
HETATM   27  C4  UNL     1      12.388  38.007  28.915  1.00  0.00     0.039 C
BRANCH  27  28
HETATM   28  C3  UNL     1      13.287  37.813  30.136  1.00  0.00     0.122 C
BRANCH  28  29
HETATM   29  N2  UNL     1      14.253  36.782  29.907  1.00  0.00    -0.380 N
ATOM     30  H2  UNL     1      14.061  35.826  30.209  1.00  0.00     0.160 HD
BRANCH  29  31
HETATM   31  C2  UNL     1      15.467  37.088  29.265  1.00  0.00     0.066 C
HETATM   32  C1  UNL     1      16.646  37.561  30.042  1.00  0.00     0.088 C
HETATM   33  N1  UNL     1      15.550  36.955  27.987  1.00  0.00    -0.389 N
ATOM     34  H12 UNL     1      16.430  37.177  27.521  1.00  0.00     0.157 HD
ATOM     35  H11 UNL     1      14.742  36.631  27.454  1.00  0.00     0.157 HD
ENDBRANCH  29  31
ENDBRANCH  28  29
ENDBRANCH  27  28
ENDBRANCH  26  27
ENDBRANCH   1  26
TORSDOF 11
ENDMDL