MODEL 5
REMARK VINA RESULT: -6.856968541      4.052      7.501
REMARK  11 active torsions:
REMARK  status: ('A' for Active; 'I' for Inactive)
REMARK    1  A    between atoms: C2_2  and  C3_3
REMARK    2  A    between atoms: C3_3  and  N1_4
REMARK    3  A    between atoms: C5_7  and  C6_8
REMARK    4  A    between atoms: C9_11  and  O2_12
REMARK    5  A    between atoms: C10_16  and  C11_17
REMARK    6  A    between atoms: C11_17  and  C12_18
REMARK    7  A    between atoms: N4_24  and  C16_26
REMARK    8  A    between atoms: C16_26  and  C17_27
REMARK    9  A    between atoms: C17_27  and  C18_28
REMARK   10  A    between atoms: C18_28  and  C19_29
REMARK   11  A    between atoms: C19_29  and  N5_30
ROOT
HETATM    1  N1  UNL     1      12.952  37.832  30.181  1.00  0.00    -0.273 N
HETATM    2  C4  UNL     1      12.816  38.512  31.440  1.00  0.00     0.277 A
HETATM    3  O1  UNL     1      13.615  38.197  32.388  1.00  0.00    -0.265 OA
HETATM    4  C5  UNL     1      11.783  39.511  31.574  1.00  0.00     0.103 A
HETATM    5  N3  UNL     1      10.930  39.777  30.427  1.00  0.00    -0.334 N
ATOM      6  H3  UNL     1      10.195  40.480  30.511  1.00  0.00     0.168 HD
HETATM    7  C15 UNL     1      11.082  39.099  29.209  1.00  0.00     0.171 A
HETATM    8  N4  UNL     1      10.320  39.309  28.181  1.00  0.00    -0.372 N
ATOM      9  H4  UNL     1      10.475  38.788  27.318  1.00  0.00     0.161 HD
HETATM   10  C20 UNL     1      12.122  38.094  29.070  1.00  0.00     0.294 A
HETATM   11  O3  UNL     1      12.277  37.475  27.985  1.00  0.00    -0.264 OA
ENDROOT
BRANCH   4  12
HETATM   12  C6  UNL     1      11.589  40.208  32.668  1.00  0.00     0.049 C
HETATM   13  C7  UNL     1      10.399  40.755  33.255  1.00  0.00    -0.007 A
HETATM   14  C8  UNL     1       9.229  40.144  33.644  1.00  0.00     0.069 A
HETATM   15  C10 UNL     1      10.269  42.140  33.526  1.00  0.00     0.022 A
HETATM   16  C9  UNL     1       8.408  41.129  34.138  1.00  0.00     0.140 A
HETATM   17  N2  UNL     1       9.056  42.298  34.053  1.00  0.00    -0.340 N
ATOM     18  H2  UNL     1       8.671  43.194  34.354  1.00  0.00     0.167 HD
BRANCH  16  19
HETATM   19  O2  UNL     1       7.128  40.977  34.644  1.00  0.00    -0.346 OA
ATOM     20  H2  UNL     1       6.488  41.661  34.805  1.00  0.00     0.219 HD
ENDBRANCH  16  19
BRANCH  15  21
HETATM   21  C11 UNL     1      11.326  43.136  33.237  1.00  0.00     0.062 C
BRANCH  21  22
HETATM   22  C12 UNL     1      11.888  43.706  34.500  1.00  0.00    -0.017 C
HETATM   23  C13 UNL     1      11.304  45.078  34.802  1.00  0.00     0.010 C
HETATM   24  C14 UNL     1      13.386  43.890  34.435  1.00  0.00     0.010 C
ENDBRANCH  21  22
ENDBRANCH  15  21
ENDBRANCH   4  12
BRANCH   1  25
HETATM   25  C3  UNL     1      14.019  36.825  30.096  1.00  0.00     0.162 C
BRANCH  25  26
HETATM   26  C2  UNL     1      15.230  37.363  29.428  1.00  0.00    -0.017 C
HETATM   27  C1  UNL     1      16.403  37.468  30.040  1.00  0.00     0.008 C
ENDBRANCH  25  26
ENDBRANCH   1  25
BRANCH   8  28
HETATM   28  C16 UNL     1       9.269  40.263  28.255  1.00  0.00     0.121 C
BRANCH  28  29
HETATM   29  C17 UNL     1       8.008  39.718  27.559  1.00  0.00     0.021 C
BRANCH  29  30
HETATM   30  C18 UNL     1       7.685  38.404  28.232  1.00  0.00     0.029 C
BRANCH  30  31
HETATM   31  C19 UNL     1       6.319  37.884  27.813  1.00  0.00     0.229 C
BRANCH  31  32
HETATM   32  N5  UNL     1       6.276  36.445  27.817  1.00  0.00    -0.079 N
ATOM     33  H53 UNL     1       7.072  36.050  28.318  1.00  0.00     0.274 HD
ATOM     34  H52 UNL     1       5.525  36.096  28.411  1.00  0.00     0.274 HD
ATOM     35  H51 UNL     1       6.207  36.069  26.871  1.00  0.00     0.274 HD
ENDBRANCH  31  32
ENDBRANCH  30  31
ENDBRANCH  29  30
ENDBRANCH  28  29
ENDBRANCH   8  28
TORSDOF 11
ENDMDL