MODEL 4
REMARK VINA RESULT: -6.209329119      3.614      8.457
REMARK  11 active torsions:
REMARK  status: ('A' for Active; 'I' for Inactive)
REMARK    1  A    between atoms: O1_2  and  C2_3
REMARK    2  A    between atoms: C2_3  and  C3_4
REMARK    3  A    between atoms: C3_4  and  N1_5
REMARK       I    between atoms: N1_5  and  C4_7
REMARK    4  A    between atoms: C4_7  and  C5_9
REMARK    5  A    between atoms: C5_9  and  C6_10
REMARK    6  A    between atoms: C6_10  and  N2_11
REMARK       I    between atoms: N2_11  and  C7_13
REMARK       I    between atoms: C7_13  and  N3_15
REMARK    7  A    between atoms: N3_15  and  N4_17
REMARK       I    between atoms: N4_17  and  C8_19
REMARK    8  A    between atoms: C8_19  and  C9_21
REMARK    9  A    between atoms: C9_21  and  O5_22
REMARK   10  A    between atoms: C9_21  and  C14_27
REMARK   11  A    between atoms: O5_22  and  C10_23
ROOT
HETATM    1  N2  UNL     1       8.063  37.304  36.664  1.00  0.00    -0.341 N
ATOM      2  H2  UNL     1       8.719  36.570  36.398  1.00  0.00     0.164 HD
HETATM    3  C7  UNL     1       8.077  38.543  35.984  1.00  0.00     0.334 C
HETATM    4  O3  UNL     1       7.303  39.495  36.247  1.00  0.00    -0.246 OA
HETATM    5  N3  UNL     1       9.028  38.746  34.923  1.00  0.00    -0.249 N
ATOM      6  H3  UNL     1       9.661  37.984  34.678  1.00  0.00     0.192 HD
ENDROOT
BRANCH   5   7
HETATM    7  N4  UNL     1       9.117  39.941  34.218  1.00  0.00    -0.264 N
HETATM    8  C8  UNL     1      10.212  40.266  33.379  1.00  0.00     0.266 C
HETATM    9  O4  UNL     1      11.124  39.383  33.313  1.00  0.00    -0.269 OA
ATOM     10  H4  UNL     1       8.358  40.617  34.309  1.00  0.00     0.190 HD
BRANCH   8  11
HETATM   11  C9  UNL     1      10.325  41.541  32.607  1.00  0.00     0.226 C
BRANCH  11  12
HETATM   12  O5  UNL     1      11.518  42.165  32.776  1.00  0.00    -0.366 OA
BRANCH  12  13
HETATM   13  C10 UNL     1      11.553  43.379  33.375  1.00  0.00     0.051 C
HETATM   14  C11 UNL     1      12.833  43.633  34.178  1.00  0.00     0.045 C
HETATM   15  C12 UNL     1      11.537  44.439  32.274  1.00  0.00     0.045 C
HETATM   16  C13 UNL     1      10.434  43.705  34.324  1.00  0.00     0.045 C
ENDBRANCH  12  13
ENDBRANCH  11  12
BRANCH  11  17
HETATM   17  C14 UNL     1       9.943  41.231  31.179  1.00  0.00     0.013 A
HETATM   18  C15 UNL     1      11.125  40.742  30.351  1.00  0.00     0.020 C
HETATM   19  C16 UNL     1       8.946  42.102  30.552  1.00  0.00     0.013 A
HETATM   20  C17 UNL     1       8.057  43.054  31.283  1.00  0.00     0.012 C
HETATM   21  C18 UNL     1       8.637  40.637  30.837  1.00  0.00     0.098 A
HETATM   22 CL1  UNL     1       8.571  39.604  29.368  1.00  0.00    -0.124 Cl
ENDBRANCH  11  17
ENDBRANCH   8  11
ENDBRANCH   5   7
BRANCH   1  23
HETATM   23  C6  UNL     1       7.126  37.078  37.731  1.00  0.00     0.134 C
BRANCH  23  24
HETATM   24  C5  UNL     1       5.895  36.328  37.314  1.00  0.00     0.122 C
BRANCH  24  25
HETATM   25  C4  UNL     1       6.330  35.090  36.565  1.00  0.00     0.219 C
HETATM   26  N1  UNL     1       6.292  33.876  37.257  1.00  0.00    -0.359 N
ATOM     27  H1  UNL     1       5.982  33.930  38.228  1.00  0.00     0.162 HD
HETATM   28  O2  UNL     1       6.689  35.215  35.400  1.00  0.00    -0.274 OA
BRANCH  26  29
HETATM   29  C3  UNL     1       6.629  32.574  36.788  1.00  0.00     0.148 C
BRANCH  29  30
HETATM   30  C2  UNL     1       5.509  31.869  36.119  1.00  0.00     0.186 C
BRANCH  30  31
HETATM   31  O1  UNL     1       5.265  32.301  34.852  1.00  0.00    -0.394 OA
HETATM   32  C1  UNL     1       3.961  32.711  34.652  1.00  0.00     0.201 C
ENDBRANCH  30  31
ENDBRANCH  29  30
ENDBRANCH  26  29
ENDBRANCH  24  25
ENDBRANCH  23  24
ENDBRANCH   1  23
TORSDOF 11
ENDMDL