MODEL 1
REMARK VINA RESULT: -5.345663497      0.000      0.000
REMARK  2 active torsions:
REMARK  status: ('A' for Active; 'I' for Inactive)
REMARK    1  A    between atoms: N2_4  and  C1_6
REMARK    2  A    between atoms: C1_6  and  C2_10
ROOT
HETATM    1  C1  UNL     1     -12.722  28.146  42.730  1.00  0.00     0.093 C
HETATM    2  N3  UNL     1     -13.563  27.942  41.776  1.00  0.00    -0.388 N
ATOM      3  H31 UNL     1     -14.549  27.890  42.032  1.00  0.00     0.157 HD
ATOM      4  H32 UNL     1     -13.270  27.837  40.805  1.00  0.00     0.157 HD
ENDROOT
BRANCH   1   5
HETATM    5  N2  UNL     1     -11.349  28.220  42.374  1.00  0.00    -0.296 N
HETATM    6  N1  UNL     1     -10.939  27.361  41.519  1.00  0.00    -0.344 N
ATOM      7  H12 UNL     1     -11.576  26.668  41.125  1.00  0.00     0.176 HD
ATOM      8  H11 UNL     1      -9.953  27.413  41.263  1.00  0.00     0.176 HD
ATOM      9  H2  UNL     1     -10.725  28.918  42.777  1.00  0.00     0.187 HD
ENDBRANCH   1   5
BRANCH   1  10
HETATM   10  C2  UNL     1     -13.144  28.298  44.129  1.00  0.00     0.054 C
HETATM   11  C3  UNL     1     -12.950  27.072  45.006  1.00  0.00     0.012 C
HETATM   12  C4  UNL     1     -14.330  27.364  45.590  1.00  0.00     0.002 C
HETATM   13  C5  UNL     1     -14.656  28.111  44.327  1.00  0.00     0.012 C
ENDBRANCH   1  10
TORSDOF 2
ENDMDL