MODEL 3
REMARK VINA RESULT: -3.535229666      1.716      3.883
REMARK  1 active torsions:
REMARK  status: ('A' for Active; 'I' for Inactive)
REMARK    1  A    between atoms: N1_2  and  C2_4
ROOT
HETATM    1  C2  UNL     1     -14.124  26.198  46.342  1.00  0.00     0.284 C
HETATM    2  C3  UNL     1     -13.027  26.681  47.304  1.00  0.00     0.082 C
HETATM    3  C4  UNL     1     -13.495  28.046  46.780  1.00  0.00     0.242 C
HETATM    4  N2  UNL     1     -13.845  27.355  45.557  1.00  0.00    -0.054 N
HETATM    5  C5  UNL     1     -14.900  27.930  44.786  1.00  0.00     0.274 C
HETATM    6  C6  UNL     1     -12.650  27.115  44.745  1.00  0.00     0.274 C
ENDROOT
BRANCH   1   7
HETATM    7  N1  UNL     1     -15.359  26.171  47.077  1.00  0.00    -0.399 N
HETATM    8  C1  UNL     1     -15.437  25.158  48.078  1.00  0.00     0.142 C
ATOM      9  H1  UNL     1     -16.121  26.825  46.897  1.00  0.00     0.154 HD
ENDBRANCH   1   7
TORSDOF 1
ENDMDL