MODEL 3
REMARK VINA RESULT: -3.979250615      1.730      1.979
REMARK  1 active torsions:
REMARK  status: ('A' for Active; 'I' for Inactive)
REMARK    1  A    between atoms: C2_2  and  N2_6
ROOT
HETATM    1  N2  UNL     1     -13.045  27.766  45.190  1.00  0.00    -0.023 N
HETATM    2  C3  UNL     1     -13.177  28.459  43.913  1.00  0.00     0.281 C
HETATM    3  C4  UNL     1     -11.754  27.931  45.812  1.00  0.00     0.278 A
HETATM    4  C5  UNL     1     -12.188  26.620  45.194  1.00  0.00     0.220 A
HETATM    5  C6  UNL     1     -12.415  25.481  46.142  1.00  0.00     0.043 C
ENDROOT
BRANCH   1   6
HETATM    6  C2  UNL     1     -14.220  27.802  45.972  1.00  0.00     0.174 C
HETATM    7  C1  UNL     1     -14.197  27.967  47.442  1.00  0.00     0.096 C
HETATM    8  N1  UNL     1     -15.342  27.689  45.385  1.00  0.00    -0.383 N
ATOM      9  H12 UNL     1     -16.191  27.715  45.949  1.00  0.00     0.157 HD
ATOM     10  H11 UNL     1     -15.358  27.575  44.371  1.00  0.00     0.157 HD
ENDBRANCH   1   6
TORSDOF 1
ENDMDL