MODEL 2
REMARK VINA RESULT: -3.565139469      1.192      2.085
REMARK  1 active torsions:
REMARK  status: ('A' for Active; 'I' for Inactive)
REMARK    1  A    between atoms: C2_2  and  N1_3
ROOT
HETATM    1  N1  UNL     1     -13.779  27.713  45.336  1.00  0.00    -0.047 N
HETATM    2  C3  UNL     1     -12.456  28.096  44.938  1.00  0.00     0.243 C
HETATM    3  C4  UNL     1     -11.676  27.666  46.199  1.00  0.00     0.036 C
HETATM    4  C5  UNL     1     -12.828  27.081  46.967  1.00  0.00     0.040 C
HETATM    5  C6  UNL     1     -13.587  26.351  45.864  1.00  0.00     0.249 C
HETATM    6  C7  UNL     1     -13.913  28.097  46.750  1.00  0.00     0.249 C
ENDROOT
BRANCH   1   7
HETATM    7  C2  UNL     1     -14.851  27.929  44.508  1.00  0.00     0.192 C
HETATM    8  C1  UNL     1     -14.693  28.105  43.228  1.00  0.00     0.038 C
ENDBRANCH   1   7
TORSDOF 1
ENDMDL