MODEL 2
REMARK VINA RESULT: -4.499220713      1.499      1.842
REMARK  1 active torsions:
REMARK  status: ('A' for Active; 'I' for Inactive)
REMARK    1  A    between atoms: C1_2  and  C2_4
ROOT
HETATM    1  C2  UNL     1     -13.602  28.557  44.313  1.00  0.00     0.097 A
HETATM    2  C3  UNL     1     -14.328  28.244  45.256  1.00  0.00    -0.017 A
HETATM    3  C4  UNL     1     -14.389  27.714  45.793  1.00  0.00    -0.030 A
HETATM    4  C5  UNL     1     -13.820  26.697  46.201  1.00  0.00     0.028 A
HETATM    5  C6  UNL     1     -12.666  27.084  44.827  1.00  0.00     0.021 A
ENDROOT
BRANCH   1   6
HETATM    6  C1  UNL     1     -13.830  28.200  42.896  1.00  0.00     0.238 C
HETATM    7  N1  UNL     1     -12.837  28.149  41.888  1.00  0.00    -0.062 NA
HETATM    8  O1  UNL     1     -15.009  27.919  42.568  1.00  0.00    -0.276 OA
ENDBRANCH   1   6
TORSDOF 1
ENDMDL