MODEL 1
REMARK VINA RESULT: -4.230537828      0.000      0.000
REMARK  0 active torsions:
REMARK  status: ('A' for Active; 'I' for Inactive)
REMARK       I    between atoms: N1_2  and  C3_4
REMARK       I    between atoms: C3_4  and  N3_8
ROOT
HETATM    1  C1  UNL     1     -13.183  25.514  46.435  1.00  0.00     0.168 C
HETATM    2  N1  UNL     1     -13.848  26.795  46.521  1.00  0.00    -0.227 N
HETATM    3  C2  UNL     1     -14.006  27.380  47.859  1.00  0.00     0.168 C
HETATM    4  C3  UNL     1     -14.345  27.495  45.391  1.00  0.00     0.671 C
HETATM    5  N2  UNL     1     -15.574  27.836  45.286  1.00  0.00    -0.235 N
ATOM      6  H21 UNL     1     -15.931  28.340  44.474  1.00  0.00     0.174 HD
ATOM      7  H22 UNL     1     -16.235  27.606  46.027  1.00  0.00     0.174 HD
HETATM    8  N3  UNL     1     -13.427  27.814  44.363  1.00  0.00    -0.215 N
HETATM    9  C4  UNL     1     -12.049  28.121  43.879  1.00  0.00     0.161 A
HETATM   10  C5  UNL     1     -13.125  28.097  42.920  1.00  0.00     0.161 A
ENDROOT
TORSDOF 0
ENDMDL