MODEL 3
REMARK VINA RESULT: -4.201550268      1.569      1.603
REMARK  1 active torsions:
REMARK  status: ('A' for Active; 'I' for Inactive)
REMARK    1  A    between atoms: C5_5  and  C6_6
ROOT
HETATM    1  C1  UNL     1     -12.768  25.600  45.955  1.00  0.00     0.015 C
HETATM    2  C2  UNL     1     -13.109  27.035  45.575  1.00  0.00    -0.035 A
HETATM    3  C3  UNL     1     -14.570  27.363  45.766  1.00  0.00     0.015 C
HETATM    4  C4  UNL     1     -12.163  28.133  45.812  1.00  0.00     0.024 A
HETATM    5  C5  UNL     1     -12.336  27.593  44.439  1.00  0.00     0.083 A
ENDROOT
BRANCH   5   6
HETATM    6  C6  UNL     1     -13.095  28.335  43.420  1.00  0.00     0.236 C
HETATM    7  N1  UNL     1     -12.951  28.024  42.047  1.00  0.00    -0.062 NA
HETATM    8  O1  UNL     1     -13.900  29.274  43.710  1.00  0.00    -0.276 OA
ENDBRANCH   5   6
TORSDOF 1
ENDMDL