MODEL 4
REMARK VINA RESULT: -3.818739605      1.485      3.993
REMARK  2 active torsions:
REMARK  status: ('A' for Active; 'I' for Inactive)
REMARK    1  A    between atoms: C2_4  and  N2_6
REMARK    2  A    between atoms: N2_6  and  C4_8
ROOT
HETATM    1  C1  UNL     1     -12.251  27.878  41.861  1.00  0.00     0.147 C
HETATM    2  N1  UNL     1     -11.844  27.812  43.222  1.00  0.00    -0.385 N
ATOM      3  H1  UNL     1     -10.921  27.420  43.410  1.00  0.00     0.160 HD
HETATM    4  C2  UNL     1     -12.526  28.197  44.231  1.00  0.00     0.068 C
HETATM    5  C3  UNL     1     -13.868  28.774  44.005  1.00  0.00     0.088 C
ENDROOT
BRANCH   4   6
HETATM    6  N2  UNL     1     -12.061  28.103  45.561  1.00  0.00    -0.376 N
ATOM      7  H2  UNL     1     -11.988  28.970  46.095  1.00  0.00     0.161 HD
BRANCH   6   8
HETATM    8  C4  UNL     1     -11.682  26.891  46.223  1.00  0.00     0.083 A
HETATM    9  C5  UNL     1     -12.541  25.690  46.248  1.00  0.00     0.027 A
HETATM   10  C6  UNL     1     -12.521  26.586  47.462  1.00  0.00     0.027 A
ENDBRANCH   6   8
ENDBRANCH   4   6
TORSDOF 2
ENDMDL