MODEL 3
REMARK VINA RESULT: -4.627427549      2.411      4.573
REMARK  1 active torsions:
REMARK  status: ('A' for Active; 'I' for Inactive)
REMARK    1  A    between atoms: C5_5  and  C6_6
REMARK       I    between atoms: C6_6  and  N1_8
ROOT
HETATM    1  C1  UNL     1     -13.996  27.213  48.321  1.00  0.00     0.012 C
HETATM    2  C2  UNL     1     -14.085  27.226  47.108  1.00  0.00    -0.112 C
HETATM    3  C3  UNL     1     -14.213  27.228  45.649  1.00  0.00     0.078 A
HETATM    4  C4  UNL     1     -15.039  28.414  45.080  1.00  0.00     0.033 A
HETATM    5  C5  UNL     1     -13.520  28.308  44.899  1.00  0.00     0.094 A
ENDROOT
BRANCH   5   6
HETATM    6  C6  UNL     1     -13.124  28.114  43.485  1.00  0.00     0.222 C
HETATM    7  O1  UNL     1     -13.958  28.436  42.600  1.00  0.00    -0.273 OA
HETATM    8  N1  UNL     1     -11.882  27.597  43.087  1.00  0.00    -0.365 N
HETATM    9  C7  UNL     1     -11.544  27.428  41.695  1.00  0.00     0.149 C
ATOM     10  H1  UNL     1     -11.201  27.334  43.800  1.00  0.00     0.161 HD
ENDBRANCH   5   6
TORSDOF 1
ENDMDL