MODEL 4
REMARK VINA RESULT: -8.139328056      3.404      6.312
REMARK  5 active torsions:
REMARK  status: ('A' for Active; 'I' for Inactive)
REMARK    1  A    between atoms: C3_6  and  C4_7
REMARK    2  A    between atoms: C4_7  and  N2_8
REMARK    3  A    between atoms: N2_8  and  C5_11
REMARK    4  A    between atoms: C10_17  and  C11_18
REMARK    5  A    between atoms: C11_18  and  N3_19
ROOT
HETATM    1  C1  UNL     1      54.868  36.234  66.265  1.00  0.00     0.080 C
HETATM    2  C2  UNL     1      55.416  36.969  65.123  1.00  0.00     0.086 A
HETATM    3  O1  UNL     1      56.138  36.432  64.179  1.00  0.00    -0.242 OA
HETATM    4  N1  UNL     1      56.453  37.277  63.318  1.00  0.00    -0.263 N
ATOM      5  H1  UNL     1      57.024  37.084  62.495  1.00  0.00     0.194 HD
HETATM    6  C3  UNL     1      55.956  38.429  63.613  1.00  0.00     0.072 A
HETATM    7  C10 UNL     1      55.289  38.360  64.774  1.00  0.00     0.037 A
ENDROOT
BRANCH   6   8
HETATM    8  C4  UNL     1      55.840  39.610  62.654  1.00  0.00     0.292 C
BRANCH   8   9
HETATM    9  N2  UNL     1      54.615  39.369  61.858  1.00  0.00    -0.066 N
ATOM     10  H22 UNL     1      54.818  38.909  60.970  1.00  0.00     0.278 HD
ATOM     11  H21 UNL     1      54.026  38.644  62.267  1.00  0.00     0.278 HD
BRANCH   9  12
HETATM   12  C5  UNL     1      53.897  40.619  61.677  1.00  0.00     0.190 C
HETATM   13  C6  UNL     1      53.564  40.811  60.232  1.00  0.00     0.059 C
HETATM   14  C7  UNL     1      52.902  42.152  59.977  1.00  0.00     0.169 C
HETATM   15  O2  UNL     1      52.498  42.701  61.203  1.00  0.00    -0.391 OA
HETATM   16  C8  UNL     1      53.683  43.094  61.822  1.00  0.00     0.169 C
HETATM   17  C9  UNL     1      54.392  41.823  62.362  1.00  0.00     0.059 C
ENDBRANCH   9  12
ENDBRANCH   8   9
ENDBRANCH   6   8
BRANCH   7  18
HETATM   18  C11 UNL     1      54.482  39.194  65.664  1.00  0.00     0.101 C
BRANCH  18  19
HETATM   19  N3  UNL     1      55.110  40.184  66.445  1.00  0.00    -0.388 N
HETATM   20  C12 UNL     1      55.784  40.050  67.634  1.00  0.00     0.125 C
HETATM   21  C13 UNL     1      56.643  41.344  67.804  1.00  0.00     0.057 C
HETATM   22  C14 UNL     1      55.664  42.466  68.050  1.00  0.00     0.177 C
HETATM   23  F1  UNL     1      56.251  43.668  68.321  1.00  0.00    -0.249 F
HETATM   24  C15 UNL     1      54.792  42.592  66.818  1.00  0.00     0.033 C
HETATM   25  C16 UNL     1      55.474  43.192  65.633  1.00  0.00     0.014 C
HETATM   26  C17 UNL     1      54.111  41.314  66.539  1.00  0.00     0.129 C
ENDBRANCH  18  19
ENDBRANCH   7  18
TORSDOF 5
ENDMDL