MODEL 2
REMARK VINA RESULT: -6.367074667      0.607      1.005
REMARK  7 active torsions:
REMARK  status: ('A' for Active; 'I' for Inactive)
REMARK    1  A    between atoms: C2_2  and  O1_3
REMARK    2  A    between atoms: O1_3  and  C3_4
REMARK    3  A    between atoms: C3_4  and  C4_6
REMARK    4  A    between atoms: C4_6  and  S1_7
REMARK    5  A    between atoms: S1_7  and  C5_8
REMARK    6  A    between atoms: C8_14  and  C9_15
REMARK    7  A    between atoms: C9_15  and  O4_17
ROOT
HETATM    1  C5  UNL     1      54.872  39.716  63.688  1.00  0.00     0.087 A
HETATM    2  N1  UNL     1      54.902  38.868  62.644  1.00  0.00    -0.358 N
ATOM      3  H1  UNL     1      55.188  37.889  62.662  1.00  0.00     0.166 HD
HETATM    4  C6  UNL     1      54.475  39.569  61.559  1.00  0.00     0.109 A
HETATM    5  C7  UNL     1      54.180  40.860  61.945  1.00  0.00     0.045 A
HETATM    6 BR1  UNL     1      53.534  42.288  60.829  1.00  0.00    -0.048 Br
HETATM    7  C8  UNL     1      54.428  40.973  63.300  1.00  0.00     0.091 A
ENDROOT
BRANCH   1   8
HETATM    8  S1  UNL     1      55.327  39.376  65.391  1.00  0.00    -0.101 SA
BRANCH   8   9
HETATM    9  C4  UNL     1      54.382  38.051  66.123  1.00  0.00     0.191 C
BRANCH   9  10
HETATM   10  C3  UNL     1      54.776  36.693  65.665  1.00  0.00     0.268 C
HETATM   11  O2  UNL     1      55.756  36.618  64.884  1.00  0.00    -0.264 OA
BRANCH  10  12
HETATM   12  O1  UNL     1      54.139  35.540  66.043  1.00  0.00    -0.321 OA
BRANCH  12  13
HETATM   13  C2  UNL     1      52.980  35.495  66.844  1.00  0.00     0.174 C
HETATM   14  C1  UNL     1      51.928  34.539  66.330  1.00  0.00     0.034 C
ENDBRANCH  12  13
ENDBRANCH  10  12
ENDBRANCH   9  10
ENDBRANCH   8   9
ENDBRANCH   1   8
BRANCH   7  15
HETATM   15  C9  UNL     1      54.240  42.173  64.108  1.00  0.00     0.297 C
HETATM   16  O3  UNL     1      55.165  42.998  64.183  1.00  0.00    -0.259 OA
BRANCH  15  17
HETATM   17  O4  UNL     1      53.063  42.445  64.808  1.00  0.00    -0.322 OA
HETATM   18  C10 UNL     1      53.073  42.524  66.243  1.00  0.00     0.213 C
ENDBRANCH  15  17
ENDBRANCH   7  15
TORSDOF 7
ENDMDL