MODEL 4
REMARK VINA RESULT: -6.057420527      3.263      4.438
REMARK  5 active torsions:
REMARK  status: ('A' for Active; 'I' for Inactive)
REMARK    1  A    between atoms: O1_2  and  C2_3
REMARK    2  A    between atoms: C4_5  and  C5_6
REMARK    3  A    between atoms: C5_6  and  C6_8
REMARK    4  A    between atoms: C6_8  and  C7_10
REMARK    5  A    between atoms: C11_18  and  O4_19
ROOT
HETATM    1  C2  UNL     1      54.937  39.929  62.277  1.00  0.00     0.103 A
HETATM    2  C3  UNL     1      55.015  38.731  62.979  1.00  0.00     0.055 A
HETATM    3  C4  UNL     1      55.201  38.671  64.360  1.00  0.00     0.028 A
HETATM    4  C8  UNL     1      55.304  39.893  64.993  1.00  0.00    -0.027 A
HETATM    5  C9  UNL     1      55.488  40.010  66.463  1.00  0.00     0.050 C
HETATM    6  C10 UNL     1      55.225  41.096  64.278  1.00  0.00     0.054 A
HETATM    7 BR1  UNL     1      55.372  42.771  65.188  1.00  0.00    -0.047 Br
HETATM    8  C11 UNL     1      55.042  41.135  62.921  1.00  0.00     0.119 A
ENDROOT
BRANCH   3   9
HETATM    9  C5  UNL     1      55.313  37.425  65.082  1.00  0.00     0.233 C
HETATM   10  O2  UNL     1      56.453  36.842  65.038  1.00  0.00    -0.283 OA
BRANCH   9  11
HETATM   11  C6  UNL     1      54.315  36.743  65.850  1.00  0.00     0.237 C
HETATM   12  O3  UNL     1      54.292  35.512  65.982  1.00  0.00    -0.283 OA
BRANCH  11  13
HETATM   13  C7  UNL     1      53.269  37.513  66.515  1.00  0.00     0.140 C
HETATM   14  N1  UNL     1      52.068  37.505  66.078  1.00  0.00    -0.405 N
ATOM     15  H12 UNL     1      51.854  36.947  65.251  1.00  0.00     0.155 HD
ATOM     16  H11 UNL     1      51.337  38.042  66.543  1.00  0.00     0.155 HD
ENDBRANCH  11  13
ENDBRANCH   9  11
ENDBRANCH   3   9
BRANCH   1  17
HETATM   17  O1  UNL     1      54.752  39.908  60.902  1.00  0.00    -0.353 OA
HETATM   18  C1  UNL     1      53.589  39.351  60.307  1.00  0.00     0.210 C
ENDBRANCH   1  17
BRANCH   8  19
HETATM   19  O4  UNL     1      54.964  42.350  62.220  1.00  0.00    -0.352 OA
HETATM   20  C12 UNL     1      53.720  42.898  61.821  1.00  0.00     0.210 C
ENDBRANCH   8  19
TORSDOF 5
ENDMDL