MODEL 2
REMARK VINA RESULT: -6.480571175      1.122      1.949
REMARK  6 active torsions:
REMARK  status: ('A' for Active; 'I' for Inactive)
REMARK    1  A    between atoms: C2_2  and  C3_3
REMARK    2  A    between atoms: C3_3  and  N1_4
REMARK    3  A    between atoms: N1_4  and  C4_5
REMARK       I    between atoms: N1_4  and  C6_7
REMARK       I    between atoms: C6_7  and  N2_9
REMARK    4  A    between atoms: N2_9  and  C7_11
REMARK    5  A    between atoms: C9_15  and  S1_16
REMARK    6  A    between atoms: S1_16  and  O2_19
ROOT
HETATM    1  C7  UNL     1      55.405  40.968  65.912  1.00  0.00     0.096 A
HETATM    2  C8  UNL     1      54.589  41.097  67.004  1.00  0.00     0.126 A
HETATM    3  N3  UNL     1      55.125  41.461  68.133  1.00  0.00    -0.352 N
ATOM      4  H3  UNL     1      54.529  41.561  68.954  1.00  0.00     0.166 HD
HETATM    5  C9  UNL     1      56.377  41.698  68.244  1.00  0.00     0.121 A
HETATM    6  S2  UNL     1      56.921  41.403  66.654  1.00  0.00    -0.045 SA
ENDROOT
BRANCH   1   7
HETATM    7  N2  UNL     1      55.122  40.595  64.571  1.00  0.00    -0.302 N
HETATM    8  C6  UNL     1      54.930  41.579  63.597  1.00  0.00     0.323 C
HETATM    9  N1  UNL     1      54.648  41.217  62.266  1.00  0.00    -0.334 N
HETATM   10  O1  UNL     1      55.006  42.785  63.900  1.00  0.00    -0.247 OA
ATOM     11  H2  UNL     1      55.059  39.608  64.319  1.00  0.00     0.171 HD
BRANCH   9  12
HETATM   12  C3  UNL     1      54.462  42.267  61.288  1.00  0.00     0.127 C
BRANCH  12  13
HETATM   13  C2  UNL     1      53.176  43.016  61.426  1.00  0.00     0.015 C
HETATM   14  C1  UNL     1      52.181  42.682  60.352  1.00  0.00     0.006 C
ENDBRANCH  12  13
ENDBRANCH   9  12
BRANCH   9  15
HETATM   15  C4  UNL     1      54.553  39.830  61.886  1.00  0.00     0.123 C
HETATM   16  C5  UNL     1      54.139  39.685  60.432  1.00  0.00     0.026 C
ENDBRANCH   9  15
ENDBRANCH   1   7
BRANCH   5  17
HETATM   17  S1  UNL     1      57.623  42.229  69.639  1.00  0.00    -0.077 SA
HETATM   18  C10 UNL     1      57.492  44.037  69.176  1.00  0.00     0.108 C
HETATM   19  C11 UNL     1      56.898  42.409  71.346  1.00  0.00     0.108 C
HETATM   20 CL1  UNL     1      59.513  42.401  69.224  1.00  0.00    -0.045 Cl
BRANCH  17  21
HETATM   21  O2  UNL     1      58.105  40.737  69.847  1.00  0.00    -0.342 OA
ATOM     22  H2  UNL     1      57.728  40.706  70.718  1.00  0.00     0.226 HD
ENDBRANCH  17  21
ENDBRANCH   5  17
TORSDOF 6
ENDMDL