MODEL 1
REMARK VINA RESULT: -6.974369026      0.000      0.000
REMARK  8 active torsions:
REMARK  status: ('A' for Active; 'I' for Inactive)
REMARK    1  A    between atoms: C2_2  and  C3_3
REMARK    2  A    between atoms: C3_3  and  N1_4
REMARK    3  A    between atoms: N1_4  and  C4_6
REMARK    4  A    between atoms: C6_11  and  C7_12
REMARK    5  A    between atoms: C7_12  and  O2_14
REMARK    6  A    between atoms: O2_14  and  C8_15
REMARK    7  A    between atoms: C12_19  and  C13_20
REMARK    8  A    between atoms: C13_20  and  O4_22
ROOT
HETATM    1  C4  UNL     1      54.947  40.777  63.316  1.00  0.00     0.123 A
HETATM    2  N2  UNL     1      55.537  39.623  62.999  1.00  0.00    -0.331 N
ATOM      3  H2  UNL     1      55.995  39.532  62.092  1.00  0.00     0.168 HD
HETATM    4  C5  UNL     1      55.543  38.564  63.855  1.00  0.00     0.122 A
HETATM    5 CL1  UNL     1      56.337  37.095  63.360  1.00  0.00    -0.063 Cl
HETATM    6  C6  UNL     1      54.944  38.610  65.101  1.00  0.00     0.085 A
HETATM    7  C10 UNL     1      54.326  39.791  65.456  1.00  0.00    -0.022 A
HETATM    8  C11 UNL     1      53.687  39.826  66.795  1.00  0.00     0.050 C
HETATM    9  C12 UNL     1      54.333  40.832  64.584  1.00  0.00     0.090 A
ENDROOT
BRANCH   1  10
HETATM   10  N1  UNL     1      54.915  41.759  62.578  1.00  0.00    -0.355 N
ATOM     11  H1  UNL     1      55.062  42.586  63.156  1.00  0.00     0.166 HD
BRANCH  10  12
HETATM   12  C3  UNL     1      54.758  42.181  61.279  1.00  0.00     0.062 C
BRANCH  12  13
HETATM   13  C2  UNL     1      53.446  42.004  60.585  1.00  0.00     0.040 C
HETATM   14  C1  UNL     1      53.438  40.593  59.984  1.00  0.00     0.010 C
ENDBRANCH  12  13
ENDBRANCH  10  12
ENDBRANCH   1  10
BRANCH   9  15
HETATM   15  C13 UNL     1      53.667  42.076  64.991  1.00  0.00     0.297 C
HETATM   16  O3  UNL     1      52.576  42.354  64.450  1.00  0.00    -0.259 OA
BRANCH  15  17
HETATM   17  O4  UNL     1      54.189  42.935  65.928  1.00  0.00    -0.322 OA
HETATM   18  C14 UNL     1      55.547  43.318  65.821  1.00  0.00     0.213 C
ENDBRANCH  15  17
ENDBRANCH   9  15
BRANCH   6  19
HETATM   19  C7  UNL     1      54.967  37.451  66.002  1.00  0.00     0.297 C
HETATM   20  O1  UNL     1      55.764  37.447  66.948  1.00  0.00    -0.259 OA
BRANCH  19  21
HETATM   21  O2  UNL     1      54.149  36.370  65.850  1.00  0.00    -0.318 OA
BRANCH  21  22
HETATM   22  C8  UNL     1      53.087  36.042  66.694  1.00  0.00     0.174 C
HETATM   23  C9  UNL     1      52.376  34.782  66.370  1.00  0.00     0.034 C
ENDBRANCH  21  22
ENDBRANCH  19  21
ENDBRANCH   6  19
TORSDOF 8
ENDMDL