MODEL 4
REMARK VINA RESULT: -6.738994119      1.257      1.264
REMARK  5 active torsions:
REMARK  status: ('A' for Active; 'I' for Inactive)
REMARK    1  A    between atoms: S1_2  and  C2_3
REMARK    2  A    between atoms: C3_8  and  C4_9
REMARK       I    between atoms: N3_12  and  C7_13
REMARK       I    between atoms: C7_13  and  N4_15
REMARK    3  A    between atoms: N4_15  and  C8_17
REMARK    4  A    between atoms: C8_17  and  C9_18
REMARK    5  A    between atoms: C9_18  and  C10_19
ROOT
HETATM    1  C4  UNL     1      56.553  40.986  66.435  1.00  0.00     0.065 C
HETATM    2  C5  UNL     1      55.706  41.958  65.662  1.00  0.00     0.033 C
HETATM    3  C6  UNL     1      55.256  41.441  64.342  1.00  0.00     0.128 C
HETATM    4  N3  UNL     1      55.240  40.010  64.200  1.00  0.00    -0.334 N
HETATM    5  C7  UNL     1      54.919  39.458  62.929  1.00  0.00     0.318 C
HETATM    6  O1  UNL     1      54.889  38.211  62.744  1.00  0.00    -0.247 OA
HETATM    7  N4  UNL     1      54.624  40.306  61.838  1.00  0.00    -0.343 N
ATOM      8  H4  UNL     1      54.656  41.311  62.010  1.00  0.00     0.164 HD
HETATM    9  C11 UNL     1      55.530  39.110  65.268  1.00  0.00     0.128 C
HETATM   10  C12 UNL     1      55.736  39.724  66.607  1.00  0.00     0.033 C
ENDROOT
BRANCH   1  11
HETATM   11  C3  UNL     1      56.888  41.600  67.726  1.00  0.00     0.145 A
HETATM   12  N2  UNL     1      57.177  40.913  68.846  1.00  0.00    -0.281 N
HETATM   13  N1  UNL     1      57.429  41.741  69.818  1.00  0.00    -0.272 N
ATOM     14  H2  UNL     1      57.195  39.897  68.923  1.00  0.00     0.189 HD
HETATM   15  C2  UNL     1      57.303  42.981  69.316  1.00  0.00     0.203 A
ATOM     16  H1  UNL     1      57.676  41.496  70.777  1.00  0.00     0.189 HD
HETATM   17  O2  UNL     1      56.975  42.876  68.052  1.00  0.00    -0.272 OA
BRANCH  15  18
HETATM   18  S1  UNL     1      57.557  44.457  70.285  1.00  0.00    -0.089 SA
HETATM   19  C1  UNL     1      58.584  44.090  71.758  1.00  0.00     0.099 C
ENDBRANCH  15  18
ENDBRANCH   1  11
BRANCH   7  20
HETATM   20  C8  UNL     1      54.283  39.879  60.510  1.00  0.00     0.125 C
BRANCH  20  21
HETATM   21  C9  UNL     1      53.184  40.713  59.912  1.00  0.00     0.034 C
BRANCH  21  22
HETATM   22  C10 UNL     1      53.418  42.185  60.277  1.00  0.00     0.116 C
HETATM   23 CL1  UNL     1      51.845  42.971  60.517  1.00  0.00    -0.130 Cl
ENDBRANCH  21  22
ENDBRANCH  20  21
ENDBRANCH   7  20
TORSDOF 5
ENDMDL