MODEL 1
REMARK VINA RESULT: -6.977133589      0.000      0.000
REMARK  8 active torsions:
REMARK  status: ('A' for Active; 'I' for Inactive)
REMARK    1  A    between atoms: C2_2  and  O1_3
REMARK    2  A    between atoms: O1_3  and  C3_4
REMARK    3  A    between atoms: C3_4  and  C4_5
REMARK    4  A    between atoms: C4_5  and  O2_6
REMARK    5  A    between atoms: O2_6  and  C5_7
REMARK    6  A    between atoms: C5_7  and  C6_9
REMARK    7  A    between atoms: C9_18  and  C10_19
REMARK    8  A    between atoms: C11_20  and  C12_21
ROOT
HETATM    1  C6  UNL     1      55.788  39.398  66.246  1.00  0.00     0.192 C
HETATM    2  C7  UNL     1      55.324  38.562  67.384  1.00  0.00     0.038 C
HETATM    3  N1  UNL     1      55.707  38.532  68.601  1.00  0.00    -0.402 N
ATOM      4  H11 UNL     1      55.389  37.959  69.382  1.00  0.00     0.155 HD
ATOM      5  H12 UNL     1      56.443  39.129  68.980  1.00  0.00     0.155 HD
HETATM    6  C8  UNL     1      54.255  37.693  66.832  1.00  0.00     0.226 C
HETATM    7 CL1  UNL     1      52.809  37.782  67.872  1.00  0.00    -0.096 Cl
HETATM    8  N2  UNL     1      53.936  38.324  65.582  1.00  0.00    -0.363 N
ATOM      9  H2  UNL     1      53.131  38.055  65.018  1.00  0.00     0.162 HD
HETATM   10  C9  UNL     1      54.747  39.252  65.235  1.00  0.00     0.080 C
ENDROOT
BRANCH   1  11
HETATM   11  C5  UNL     1      56.010  40.794  66.679  1.00  0.00     0.275 C
HETATM   12  O3  UNL     1      57.109  41.343  66.452  1.00  0.00    -0.264 OA
BRANCH  11  13
HETATM   13  O2  UNL     1      55.033  41.499  67.324  1.00  0.00    -0.318 OA
BRANCH  13  14
HETATM   14  C4  UNL     1      54.470  42.713  66.852  1.00  0.00     0.205 C
BRANCH  14  15
HETATM   15  C3  UNL     1      53.051  42.436  66.419  1.00  0.00     0.194 C
BRANCH  15  16
HETATM   16  O1  UNL     1      52.171  43.465  66.694  1.00  0.00    -0.389 OA
BRANCH  16  17
HETATM   17  C2  UNL     1      51.399  43.190  67.812  1.00  0.00     0.163 C
HETATM   18  C1  UNL     1      49.943  43.265  67.366  1.00  0.00     0.033 C
ENDBRANCH  16  17
ENDBRANCH  15  16
ENDBRANCH  14  15
ENDBRANCH  13  14
ENDBRANCH  11  13
ENDBRANCH   1  11
BRANCH  10  19
HETATM   19  C10 UNL     1      54.666  40.060  64.015  1.00  0.00    -0.051 C
HETATM   20  C11 UNL     1      54.602  40.707  63.000  1.00  0.00    -0.091 C
BRANCH  20  21
HETATM   21  C12 UNL     1      54.533  41.475  61.754  1.00  0.00     0.013 C
HETATM   22  C13 UNL     1      53.651  42.698  61.892  1.00  0.00     0.028 C
HETATM   23  C14 UNL     1      55.945  41.938  61.454  1.00  0.00     0.028 C
HETATM   24  C15 UNL     1      54.006  40.581  60.643  1.00  0.00     0.028 C
ENDBRANCH  20  21
ENDBRANCH  10  19
TORSDOF 8
ENDMDL