MODEL 4
REMARK VINA RESULT: -6.934288114      1.020      1.381
REMARK  6 active torsions:
REMARK  status: ('A' for Active; 'I' for Inactive)
REMARK    1  A    between atoms: C2_2  and  C3_3
REMARK    2  A    between atoms: N2_8  and  C6_9
REMARK       I    between atoms: N3_12  and  C9_13
REMARK    3  A    between atoms: C9_13  and  O2_15
REMARK    4  A    between atoms: O2_15  and  C10_16
REMARK    5  A    between atoms: C10_16  and  C11_17
REMARK    6  A    between atoms: C11_17  and  N4_20
ROOT
HETATM    1  C6  UNL     1      54.909  40.771  62.915  1.00  0.00     0.093 C
HETATM    2  C7  UNL     1      55.569  39.630  63.567  1.00  0.00     0.045 C
HETATM    3  C8  UNL     1      56.276  40.167  64.848  1.00  0.00     0.130 C
HETATM    4  N3  UNL     1      55.229  40.680  65.683  1.00  0.00    -0.328 N
HETATM    5  C9  UNL     1      55.472  41.235  66.971  1.00  0.00     0.362 C
HETATM    6  O1  UNL     1      54.493  41.658  67.627  1.00  0.00    -0.238 OA
HETATM    7  C14 UNL     1      53.890  40.614  65.174  1.00  0.00     0.130 C
HETATM    8  C15 UNL     1      53.865  41.343  63.855  1.00  0.00     0.045 C
ENDROOT
BRANCH   5   9
HETATM    9  O2  UNL     1      56.694  41.338  67.535  1.00  0.00    -0.300 OA
BRANCH   9  10
HETATM   10  C10 UNL     1      57.182  41.767  68.732  1.00  0.00     0.236 C
BRANCH  10  11
HETATM   11  C11 UNL     1      58.092  42.936  68.796  1.00  0.00     0.218 C
HETATM   12  C12 UNL     1      58.323  43.424  70.220  1.00  0.00     0.067 C
HETATM   13 CL1  UNL     1      57.674  44.272  67.717  1.00  0.00    -0.086 Cl
BRANCH  11  14
HETATM   14  N4  UNL     1      59.415  42.464  68.318  1.00  0.00    -0.055 N
HETATM   15  C13 UNL     1      60.071  41.725  69.366  1.00  0.00     0.269 C
ATOM     16  H42 UNL     1      59.342  41.925  67.455  1.00  0.00     0.279 HD
ATOM     17  H41 UNL     1      59.992  43.228  67.966  1.00  0.00     0.279 HD
ENDBRANCH  11  14
ENDBRANCH  10  11
ENDBRANCH   9  10
ENDBRANCH   5   9
BRANCH   1  18
HETATM   18  N2  UNL     1      54.245  40.552  61.658  1.00  0.00    -0.341 N
HETATM   19  C3  UNL     1      53.578  41.377  60.851  1.00  0.00     0.083 A
HETATM   20  N1  UNL     1      53.150  40.639  59.770  1.00  0.00    -0.354 N
HETATM   21  C4  UNL     1      53.542  39.369  59.891  1.00  0.00     0.106 A
ATOM     22  H1  UNL     1      52.612  41.009  58.987  1.00  0.00     0.166 HD
HETATM   23  C5  UNL     1      54.226  39.311  61.072  1.00  0.00     0.110 A
BRANCH  19  24
HETATM   24  C2  UNL     1      53.279  42.838  60.999  1.00  0.00     0.072 C
HETATM   25  C1  UNL     1      51.816  43.155  60.982  1.00  0.00     0.013 C
ENDBRANCH  19  24
ENDBRANCH   1  18
TORSDOF 6
ENDMDL