MODEL 3
REMARK VINA RESULT: -7.087565610      2.951      6.222
REMARK  6 active torsions:
REMARK  status: ('A' for Active; 'I' for Inactive)
REMARK    1  A    between atoms: C6_6  and  C7_7
REMARK    2  A    between atoms: C7_7  and  C8_8
REMARK    3  A    between atoms: C8_8  and  N1_9
REMARK    4  A    between atoms: N1_9  and  C9_11
REMARK    5  A    between atoms: N2_13  and  C11_15
REMARK    6  A    between atoms: C11_15  and  C13_17
ROOT
HETATM    1  C1  UNL     1       0.180  13.218   2.977  1.00  0.00     0.020 C
HETATM    2  C2  UNL     1       0.146  12.611   4.018  1.00  0.00    -0.052 C
HETATM    3  C3  UNL     1       0.132  11.882   5.273  1.00  0.00     0.128 A
HETATM    4  C4  UNL     1       1.226  11.712   6.120  1.00  0.00     0.049 A
HETATM    5  C5  UNL     1       0.821  10.967   7.205  1.00  0.00     0.036 A
HETATM    6  C6  UNL     1      -0.527  10.703   6.977  1.00  0.00     0.056 A
HETATM    7  O1  UNL     1      -0.861  11.258   5.847  1.00  0.00    -0.306 OA
ENDROOT
BRANCH   6   8
HETATM    8  C7  UNL     1      -1.363   9.906   7.930  1.00  0.00     0.084 C
BRANCH   8   9
HETATM    9  C8  UNL     1      -2.658  10.634   8.212  1.00  0.00     0.127 C
BRANCH   9  10
HETATM   10  N1  UNL     1      -2.412  12.053   8.057  1.00  0.00    -0.380 N
ATOM     11  H1  UNL     1      -1.519  12.432   8.372  1.00  0.00     0.160 HD
BRANCH  10  12
HETATM   12  C9  UNL     1      -3.358  12.928   7.488  1.00  0.00     0.069 C
HETATM   13  C10 UNL     1      -3.135  13.559   6.150  1.00  0.00     0.088 C
HETATM   14  N2  UNL     1      -4.455  13.232   8.075  1.00  0.00    -0.369 N
ATOM     15  H2  UNL     1      -5.071  13.875   7.577  1.00  0.00     0.161 HD
BRANCH  14  16
HETATM   16  C11 UNL     1      -4.915  12.775   9.342  1.00  0.00     0.143 C
HETATM   17  C12 UNL     1      -4.418  13.591  10.512  1.00  0.00     0.040 C
BRANCH  16  18
HETATM   18  C13 UNL     1      -6.394  12.728   9.348  1.00  0.00     0.109 C
HETATM   19  N3  UNL     1      -6.999  12.149  10.319  1.00  0.00    -0.389 N
ATOM     20  H32 UNL     1      -6.468  11.724  11.080  1.00  0.00     0.157 HD
ATOM     21  H31 UNL     1      -8.019  12.117  10.323  1.00  0.00     0.157 HD
HETATM   22  N4  UNL     1      -7.125  13.313   8.302  1.00  0.00    -0.086 NA
ENDBRANCH  16  18
ENDBRANCH  14  16
ENDBRANCH  10  12
ENDBRANCH   9  10
ENDBRANCH   8   9
ENDBRANCH   6   8
TORSDOF 6
ENDMDL