MODEL 2
REMARK VINA RESULT: -6.899557990      0.107      1.199
REMARK  6 active torsions:
REMARK  status: ('A' for Active; 'I' for Inactive)
REMARK    1  A    between atoms: O1_2  and  C2_3
REMARK    2  A    between atoms: C2_3  and  O2_4
REMARK    3  A    between atoms: C2_3  and  C3_6
REMARK    4  A    between atoms: C3_6  and  S1_7
REMARK    5  A    between atoms: S1_7  and  C4_9
REMARK    6  A    between atoms: C7_12  and  C8_13
ROOT
HETATM    1  C4  UNL     1      -2.273  12.831   7.990  1.00  0.00     0.031 A
HETATM    2  C5  UNL     1      -3.264  12.877   7.038  1.00  0.00     0.022 A
HETATM    3  C6  UNL     1      -4.606  12.865   7.441  1.00  0.00     0.016 A
HETATM    4  C7  UNL     1      -4.935  12.810   8.780  1.00  0.00     0.005 A
HETATM    5  C9  UNL     1      -3.940  12.765   9.733  1.00  0.00     0.016 A
HETATM    6  C10 UNL     1      -2.623  12.776   9.337  1.00  0.00     0.022 A
ENDROOT
BRANCH   1   7
HETATM    7  S1  UNL     1      -0.604  12.844   7.572  1.00  0.00     0.054 S
HETATM    8  O3  UNL     1       0.439  13.215   8.793  1.00  0.00    -0.253 OA
BRANCH   7   9
HETATM    9  C3  UNL     1      -0.085  11.561   6.510  1.00  0.00     0.174 C
BRANCH   9  10
HETATM   10  C2  UNL     1       0.584  10.402   7.170  1.00  0.00     0.268 C
BRANCH  10  11
HETATM   11  O1  UNL     1      -0.243   9.718   8.028  1.00  0.00    -0.365 OA
HETATM   12  C1  UNL     1      -1.470   9.444   7.477  1.00  0.00     0.204 C
ENDBRANCH  10  11
BRANCH  10  13
HETATM   13  O2  UNL     1       1.650  10.937   7.930  1.00  0.00    -0.370 OA
ATOM     14  H2  UNL     1       1.301  11.638   8.467  1.00  0.00     0.212 HD
ENDBRANCH  10  13
ENDBRANCH   9  10
ENDBRANCH   7   9
ENDBRANCH   1   7
BRANCH   4  15
HETATM   15  C8  UNL     1      -6.343  12.800   9.148  1.00  0.00     0.120 C
HETATM   16  N1  UNL     1      -6.809  12.419  10.262  1.00  0.00    -0.387 N
ATOM     17  H12 UNL     1      -6.138  12.092  10.957  1.00  0.00     0.157 HD
ATOM     18  H11 UNL     1      -7.796  12.412  10.520  1.00  0.00     0.157 HD
HETATM   19  N2  UNL     1      -7.283  13.257   8.175  1.00  0.00    -0.082 NA
ENDBRANCH   4  15
TORSDOF 6
ENDMDL