MODEL 3
REMARK VINA RESULT: -7.207043780      2.257      5.501
REMARK  6 active torsions:
REMARK  status: ('A' for Active; 'I' for Inactive)
REMARK    1  A    between atoms: C2_2  and  N1_3
REMARK    2  A    between atoms: N1_3  and  C3_4
REMARK    3  A    between atoms: N1_3  and  C7_14
REMARK    4  A    between atoms: C3_4  and  C4_5
REMARK    5  A    between atoms: C4_5  and  N2_7
REMARK    6  A    between atoms: N2_7  and  N3_9
ROOT
HETATM    1  N1  UNL     1      -0.857  12.184   5.742  1.00  0.00    -0.379 N
ENDROOT
BRANCH   1   2
HETATM    2  C2  UNL     1       0.232  12.139   4.738  1.00  0.00     0.118 C
HETATM    3  C1  UNL     1      -0.140  12.724   3.430  1.00  0.00     0.026 C
ENDBRANCH   1   2
BRANCH   1   4
HETATM    4  C3  UNL     1      -2.130  12.438   5.162  1.00  0.00     0.149 C
BRANCH   4   5
HETATM    5  C4  UNL     1      -2.903  13.631   5.525  1.00  0.00     0.113 C
HETATM    6  C5  UNL     1      -3.566  14.353   4.385  1.00  0.00     0.035 C
BRANCH   5   7
HETATM    7  N2  UNL     1      -3.980  13.181   6.428  1.00  0.00    -0.328 N
ATOM      8  H2  UNL     1      -4.870  12.876   6.032  1.00  0.00     0.180 HD
BRANCH   7   9
HETATM    9  N3  UNL     1      -3.808  13.164   7.805  1.00  0.00    -0.280 N
HETATM   10  C6  UNL     1      -4.751  13.147   8.672  1.00  0.00     0.215 C
HETATM   11  N4  UNL     1      -6.138  13.143   8.369  1.00  0.00    -0.065 NA
HETATM   12  N5  UNL     1      -4.362  13.134  10.046  1.00  0.00    -0.065 NA
ATOM     13  H3  UNL     1      -2.851  13.166   8.156  1.00  0.00     0.189 HD
ENDBRANCH   7   9
ENDBRANCH   5   7
ENDBRANCH   4   5
ENDBRANCH   1   4
BRANCH   1  14
HETATM   14  C7  UNL     1      -0.474  11.933   7.054  1.00  0.00     0.036 A
HETATM   15  C8  UNL     1       0.368  12.771   7.741  1.00  0.00     0.030 A
HETATM   16  C9  UNL     1       0.805  12.538   9.023  1.00  0.00     0.002 A
HETATM   17  C10 UNL     1       0.388  11.408   9.672  1.00  0.00     0.001 A
HETATM   18  C11 UNL     1      -0.453  10.539   9.030  1.00  0.00     0.009 A
HETATM   19  C12 UNL     1      -0.867  10.809   7.750  1.00  0.00    -0.035 A
HETATM   20  C13 UNL     1      -1.780   9.845   7.104  1.00  0.00     0.050 C
ENDBRANCH   1  14
TORSDOF 6
ENDMDL