MODEL 5
REMARK VINA RESULT: -6.507520902      3.550      4.553
REMARK  5 active torsions:
REMARK  status: ('A' for Active; 'I' for Inactive)
REMARK    1  A    between atoms: C2_2  and  C4_4
REMARK    2  A    between atoms: C4_4  and  O1_5
REMARK    3  A    between atoms: C4_4  and  C12_17
REMARK    4  A    between atoms: O1_5  and  C5_6
REMARK    5  A    between atoms: C8_9  and  N1_10
ROOT
HETATM    1  C5  UNL     1      -1.282  12.729   5.659  1.00  0.00     0.070 A
HETATM    2  C6  UNL     1      -1.002  12.956   4.335  1.00  0.00     0.039 A
HETATM    3  C7  UNL     1      -1.856  13.615   3.494  1.00  0.00     0.032 A
HETATM    4  C8  UNL     1      -3.093  14.114   3.930  1.00  0.00     0.034 A
HETATM    5  C10 UNL     1      -3.389  13.887   5.285  1.00  0.00     0.032 A
HETATM    6  C11 UNL     1      -2.519  13.234   6.085  1.00  0.00     0.039 A
ENDROOT
BRANCH   1   7
HETATM    7  O1  UNL     1      -0.486  12.064   6.564  1.00  0.00    -0.337 OA
BRANCH   7   8
HETATM    8  C4  UNL     1      -0.666  12.105   7.934  1.00  0.00     0.221 C
BRANCH   8   9
HETATM    9  C2  UNL     1      -1.218  10.821   8.544  1.00  0.00     0.016 C
HETATM   10  C1  UNL     1      -1.004   9.705   7.565  1.00  0.00     0.012 C
HETATM   11  C3  UNL     1      -2.708  10.962   8.786  1.00  0.00     0.012 C
ENDBRANCH   8   9
BRANCH   8  12
HETATM   12  C12 UNL     1       0.683  12.348   8.600  1.00  0.00     0.261 C
HETATM   13  N4  UNL     1       1.217  13.690   8.507  1.00  0.00    -0.060 NA
HETATM   14  O2  UNL     1       1.278  11.446   9.180  1.00  0.00    -0.274 OA
ENDBRANCH   8  12
ENDBRANCH   7   8
ENDBRANCH   1   7
BRANCH   4  15
HETATM   15  N1  UNL     1      -3.925  14.774   3.074  1.00  0.00    -0.333 N
HETATM   16  C9  UNL     1      -4.704  14.579   2.177  1.00  0.00     0.201 C
HETATM   17  N2  UNL     1      -5.010  13.263   1.668  1.00  0.00    -0.066 NA
HETATM   18  N3  UNL     1      -5.400  15.711   1.582  1.00  0.00    -0.066 NA
ATOM     19  H1  UNL     1      -3.870  15.776   3.258  1.00  0.00     0.168 HD
ENDBRANCH   4  15
TORSDOF 5
ENDMDL