MODEL 1
REMARK VINA RESULT: -6.645476408      0.000      0.000
REMARK  7 active torsions:
REMARK  status: ('A' for Active; 'I' for Inactive)
REMARK    1  A    between atoms: N1_2  and  C2_5
REMARK    2  A    between atoms: C2_5  and  C4_7
REMARK    3  A    between atoms: C4_7  and  N2_8
REMARK    4  A    between atoms: N2_8  and  C5_10
REMARK    5  A    between atoms: C5_10  and  N3_12
REMARK    6  A    between atoms: N3_12  and  C6_14
REMARK    7  A    between atoms: C6_14  and  C7_15
ROOT
HETATM    1  C5  UNL     1      -2.370  12.919   6.393  1.00  0.00     0.167 C
HETATM    2  S1  UNL     1      -3.158  13.746   5.243  1.00  0.00    -0.041 SA
ENDROOT
BRANCH   1   3
HETATM    3  N2  UNL     1      -1.466  11.870   6.131  1.00  0.00    -0.365 N
ATOM      4  H2  UNL     1      -1.883  10.974   5.883  1.00  0.00     0.161 HD
BRANCH   3   5
HETATM    5  C4  UNL     1      -0.054  11.903   6.167  1.00  0.00     0.154 C
BRANCH   5   6
HETATM    6  C2  UNL     1       0.681  10.977   7.043  1.00  0.00     0.199 C
HETATM    7  C3  UNL     1      -0.341   9.989   7.633  1.00  0.00     0.041 C
BRANCH   6   8
HETATM    8  N1  UNL     1       1.534  11.512   8.036  1.00  0.00    -0.074 N
HETATM    9  C1  UNL     1       0.722  12.197   9.054  1.00  0.00     0.267 C
ATOM     10  H12 UNL     1       2.254  12.118   7.643  1.00  0.00     0.277 HD
ATOM     11  H11 UNL     1       2.148  10.805   8.442  1.00  0.00     0.277 HD
ENDBRANCH   6   8
ENDBRANCH   5   6
ENDBRANCH   3   5
ENDBRANCH   1   3
BRANCH   1  12
HETATM   12  N3  UNL     1      -2.592  13.328   7.738  1.00  0.00    -0.362 N
ATOM     13  H3  UNL     1      -2.373  14.278   8.038  1.00  0.00     0.162 HD
BRANCH  12  14
HETATM   14  C6  UNL     1      -3.134  12.369   8.666  1.00  0.00     0.179 C
BRANCH  14  15
HETATM   15  C7  UNL     1      -4.577  12.498   8.913  1.00  0.00     0.026 A
HETATM   16  C8  UNL     1      -5.014  12.602  10.225  1.00  0.00     0.027 A
HETATM   17  C9  UNL     1      -6.374  12.713  10.413  1.00  0.00     0.003 A
HETATM   18  C10 UNL     1      -7.232  12.718   9.344  1.00  0.00     0.017 A
HETATM   19  C11 UNL     1      -6.776  12.612   8.036  1.00  0.00     0.088 A
HETATM   20  N4  UNL     1      -5.437  12.505   7.888  1.00  0.00    -0.368 N
ATOM     21  H4  UNL     1      -5.061  12.424   6.942  1.00  0.00     0.165 HD
ENDBRANCH  14  15
ENDBRANCH  12  14
ENDBRANCH   1  12
TORSDOF 7
ENDMDL