MODEL 3
REMARK VINA RESULT: -6.524851432      1.036      1.140
REMARK  5 active torsions:
REMARK  status: ('A' for Active; 'I' for Inactive)
REMARK    1  A    between atoms: N1_2  and  C3_4
REMARK       I    between atoms: N2_5  and  C4_7
REMARK       I    between atoms: C4_7  and  N4_11
REMARK    2  A    between atoms: N4_11  and  C5_13
REMARK    3  A    between atoms: C5_13  and  C6_14
REMARK    4  A    between atoms: C6_14  and  O1_15
REMARK    5  A    between atoms: O1_15  and  C7_16
ROOT
HETATM    1  C3  UNL     1      -2.484  12.010   4.776  1.00  0.00     0.195 C
HETATM    2  N2  UNL     1      -1.355  12.423   5.212  1.00  0.00    -0.189 N
ATOM      3  H2  UNL     1      -0.986  13.323   4.903  1.00  0.00     0.184 HD
HETATM    4  C4  UNL     1      -0.606  11.616   6.143  1.00  0.00     0.672 C
HETATM    5  N3  UNL     1       0.662  11.673   6.013  1.00  0.00    -0.235 N
ATOM      6  H31 UNL     1       1.192  11.102   6.671  1.00  0.00     0.174 HD
ATOM      7  H32 UNL     1       1.179  12.223   5.328  1.00  0.00     0.174 HD
HETATM    8  N4  UNL     1      -1.313  10.864   7.081  1.00  0.00    -0.224 N
ATOM      9  H4  UNL     1      -2.127  10.340   6.760  1.00  0.00     0.177 HD
ENDROOT
BRANCH   8  10
HETATM   10  C5  UNL     1      -0.964  10.782   8.465  1.00  0.00     0.164 C
BRANCH  10  11
HETATM   11  C6  UNL     1      -1.027  12.141   9.104  1.00  0.00     0.196 C
BRANCH  11  12
HETATM   12  O1  UNL     1      -2.048  12.886   8.562  1.00  0.00    -0.350 OA
BRANCH  12  13
HETATM   13  C7  UNL     1      -3.380  12.886   8.821  1.00  0.00     0.068 A
HETATM   14  C8  UNL     1      -3.947  12.966  10.054  1.00  0.00     0.038 A
HETATM   15  C9  UNL     1      -5.341  12.956  10.267  1.00  0.00     0.029 A
HETATM   16  C10 UNL     1      -6.186  12.861   9.184  1.00  0.00     0.046 A
HETATM   17  N5  UNL     1      -7.596  12.847   9.366  1.00  0.00    -0.102 NA
HETATM   18  C11 UNL     1      -5.622  12.781   7.926  1.00  0.00     0.029 A
HETATM   19  C12 UNL     1      -4.262  12.791   7.724  1.00  0.00     0.038 A
ENDBRANCH  12  13
ENDBRANCH  11  12
ENDBRANCH  10  11
ENDBRANCH   8  10
BRANCH   1  20
HETATM   20  N1  UNL     1      -3.204  12.820   3.859  1.00  0.00    -0.385 N
HETATM   21  C1  UNL     1      -2.928  14.233   3.872  1.00  0.00     0.149 C
HETATM   22  C2  UNL     1      -4.158  12.236   2.972  1.00  0.00     0.149 C
ENDBRANCH   1  20
TORSDOF 5
ENDMDL