MODEL 5
REMARK VINA RESULT: -6.353703782      2.863      5.043
REMARK  8 active torsions:
REMARK  status: ('A' for Active; 'I' for Inactive)
REMARK    1  A    between atoms: C2_2  and  C3_3
REMARK    2  A    between atoms: C3_3  and  C4_4
REMARK    3  A    between atoms: C4_4  and  O1_6
REMARK    4  A    between atoms: C4_4  and  C6_8
REMARK    5  A    between atoms: C6_8  and  O2_9
REMARK    6  A    between atoms: C6_8  and  C7_11
REMARK    7  A    between atoms: C7_11  and  O3_12
REMARK    8  A    between atoms: C7_11  and  C8_14
ROOT
HETATM    1  C7  UNL     1       0.322  11.565   6.418  1.00  0.00     0.184 C
ENDROOT
BRANCH   1   2
HETATM    2  C6  UNL     1       0.128  12.366   7.664  1.00  0.00     0.185 C
BRANCH   2   3
HETATM    3  C4  UNL     1      -0.621  11.631   8.770  1.00  0.00     0.083 C
HETATM    4  C5  UNL     1      -0.797  10.217   8.274  1.00  0.00     0.049 C
BRANCH   3   5
HETATM    5  C3  UNL     1      -1.942  12.252   9.064  1.00  0.00     0.040 C
BRANCH   5   6
HETATM    6  C2  UNL     1      -3.163  11.486   8.734  1.00  0.00    -0.002 C
HETATM    7  C1  UNL     1      -4.479  11.972   9.176  1.00  0.00     0.005 C
ENDBRANCH   5   6
ENDBRANCH   3   5
BRANCH   3   8
HETATM    8  O1  UNL     1       0.158  11.581   9.931  1.00  0.00    -0.388 OA
ATOM      9  H1  UNL     1       0.935  12.120   9.829  1.00  0.00     0.210 HD
ENDBRANCH   3   8
ENDBRANCH   2   3
BRANCH   2  10
HETATM   10  O2  UNL     1       1.251  13.026   8.127  1.00  0.00    -0.390 OA
ATOM     11  H2  UNL     1       1.283  13.076   9.075  1.00  0.00     0.210 HD
ENDBRANCH   2  10
ENDBRANCH   1   2
BRANCH   1  12
HETATM   12  O3  UNL     1       1.653  11.310   6.105  1.00  0.00    -0.388 OA
ATOM     13  H3  UNL     1       2.169  10.985   6.834  1.00  0.00     0.210 HD
ENDBRANCH   1  12
BRANCH   1  14
HETATM   14  C8  UNL     1      -0.381  12.224   5.283  1.00  0.00    -0.011 A
HETATM   15  C9  UNL     1      -1.645  12.596   5.419  1.00  0.00     0.019 A
HETATM   16  C10 UNL     1      -2.371  13.237   4.352  1.00  0.00    -0.046 A
HETATM   17  C11 UNL     1      -3.797  13.666   4.484  1.00  0.00     0.049 C
HETATM   18  C12 UNL     1      -1.738  13.456   3.200  1.00  0.00     0.094 A
HETATM   19  N1  UNL     1      -0.381  13.056   3.053  1.00  0.00    -0.374 N
HETATM   20  C13 UNL     1       0.285  12.475   4.011  1.00  0.00     0.097 A
ATOM     21  H1  UNL     1       0.089  13.230   2.164  1.00  0.00     0.164 HD
ENDBRANCH   1  14
TORSDOF 8
ENDMDL