MODEL 3
REMARK VINA RESULT: -6.258652195      2.734      4.898
REMARK  9 active torsions:
REMARK  status: ('A' for Active; 'I' for Inactive)
REMARK    1  A    between atoms: C5_5  and  C6_6
REMARK    2  A    between atoms: C6_6  and  C7_7
REMARK    3  A    between atoms: C7_7  and  N1_8
REMARK    4  A    between atoms: C7_7  and  C8_12
REMARK    5  A    between atoms: C8_12  and  C9_13
REMARK    6  A    between atoms: C9_13  and  N2_14
REMARK    7  A    between atoms: C9_13  and  C10_18
REMARK    8  A    between atoms: C14_22  and  N3_23
REMARK    9  A    between atoms: N3_23  and  O1_25
ROOT
HETATM    1  C7  UNL     1      -2.860  12.830   8.198  1.00  0.00     0.189 C
ENDROOT
BRANCH   1   2
HETATM    2  C6  UNL     1      -3.698  13.035   6.982  1.00  0.00     0.071 C
BRANCH   2   3
HETATM    3  C5  UNL     1      -2.934  12.799   5.733  1.00  0.00    -0.054 A
HETATM    4  C4  UNL     1      -1.547  12.936   5.756  1.00  0.00     0.008 A
HETATM    5  C3  UNL     1      -0.829  12.719   4.605  1.00  0.00     0.009 A
HETATM    6  C2  UNL     1      -1.466  12.363   3.410  1.00  0.00    -0.033 A
HETATM    7  C1  UNL     1      -0.641  12.141   2.197  1.00  0.00     0.050 C
HETATM    8  C14 UNL     1      -2.829  12.222   3.360  1.00  0.00     0.060 A
HETATM    9  C13 UNL     1      -3.534  12.449   4.549  1.00  0.00     0.039 A
BRANCH   8  10
HETATM   10  N3  UNL     1      -3.579  11.873   2.233  1.00  0.00    -0.269 N
ATOM     11  H3  UNL     1      -3.276  11.116   1.619  1.00  0.00     0.194 HD
BRANCH  10  12
HETATM   12  O1  UNL     1      -4.680  12.540   1.984  1.00  0.00    -0.289 OA
ATOM     13  H1  UNL     1      -5.249  12.230   1.288  1.00  0.00     0.244 HD
ENDBRANCH  10  12
ENDBRANCH   8  10
ENDBRANCH   2   3
ENDBRANCH   1   2
BRANCH   1  14
HETATM   14  N1  UNL     1      -3.527  13.537   9.301  1.00  0.00    -0.075 N
ATOM     15  H13 UNL     1      -4.110  14.312   8.987  1.00  0.00     0.274 HD
ATOM     16  H12 UNL     1      -4.267  12.989   9.740  1.00  0.00     0.274 HD
ATOM     17  H11 UNL     1      -2.798  13.823   9.955  1.00  0.00     0.274 HD
ENDBRANCH   1  14
BRANCH   1  18
HETATM   18  C8  UNL     1      -2.725  11.365   8.514  1.00  0.00     0.066 C
BRANCH  18  19
HETATM   19  C9  UNL     1      -1.317  11.120   9.046  1.00  0.00     0.188 C
BRANCH  19  20
HETATM   20  N2  UNL     1      -0.564  12.351   8.886  1.00  0.00    -0.075 N
ATOM     21  H23 UNL     1      -0.697  12.781   7.970  1.00  0.00     0.274 HD
ATOM     22  H22 UNL     1      -0.932  13.117   9.449  1.00  0.00     0.274 HD
ATOM     23  H21 UNL     1       0.415  12.145   9.089  1.00  0.00     0.274 HD
ENDBRANCH  19  20
BRANCH  19  24
HETATM   24  C10 UNL     1      -0.603  10.045   8.257  1.00  0.00     0.008 C
HETATM   25  C11 UNL     1       0.604  10.577   7.539  1.00  0.00     0.011 C
HETATM   26  C12 UNL     1      -1.575   9.551   7.205  1.00  0.00     0.011 C
ENDBRANCH  19  24
ENDBRANCH  18  19
ENDBRANCH   1  18
TORSDOF 9
ENDMDL