MODEL 4
REMARK VINA RESULT: -7.231121573      1.477      1.874
REMARK  8 active torsions:
REMARK  status: ('A' for Active; 'I' for Inactive)
REMARK    1  A    between atoms: C4_4  and  C5_5
REMARK    2  A    between atoms: C5_5  and  N1_6
REMARK    3  A    between atoms: C5_5  and  C13_21
REMARK    4  A    between atoms: N1_6  and  C6_8
REMARK    5  A    between atoms: C6_8  and  O1_9
REMARK    6  A    between atoms: C6_8  and  C7_11
REMARK    7  A    between atoms: C7_11  and  N2_12
REMARK    8  A    between atoms: C7_11  and  C8_16
ROOT
HETATM    1  C1  UNL     1      -0.265  12.888   1.938  1.00  0.00     0.027 C
HETATM    2  C2  UNL     1      -0.398  12.717   3.128  1.00  0.00    -0.026 C
HETATM    3  C3  UNL     1      -0.564  12.521   4.507  1.00  0.00    -0.014 C
HETATM    4  C4  UNL     1      -0.709  12.316   5.700  1.00  0.00    -0.067 C
ENDROOT
BRANCH   4   5
HETATM    5  C5  UNL     1      -0.867  12.032   7.162  1.00  0.00     0.163 C
BRANCH   5   6
HETATM    6  N1  UNL     1      -2.182  11.657   7.406  1.00  0.00    -0.380 N
ATOM      7  H1  UNL     1      -2.634  10.950   6.826  1.00  0.00     0.157 HD
BRANCH   6   8
HETATM    8  C6  UNL     1      -2.886  12.271   8.469  1.00  0.00     0.245 C
BRANCH   8   9
HETATM    9  O1  UNL     1      -2.056  13.280   9.013  1.00  0.00    -0.375 OA
ATOM     10  H1  UNL     1      -2.318  14.109   8.631  1.00  0.00     0.212 HD
ENDBRANCH   8   9
BRANCH   8  11
HETATM   11  C7  UNL     1      -4.224  12.823   8.189  1.00  0.00     0.235 C
BRANCH  11  12
HETATM   12  N2  UNL     1      -4.487  13.032   6.789  1.00  0.00    -0.070 N
ATOM     13  H23 UNL     1      -3.755  12.607   6.220  1.00  0.00     0.274 HD
ATOM     14  H22 UNL     1      -5.285  12.472   6.487  1.00  0.00     0.274 HD
ATOM     15  H21 UNL     1      -4.618  14.010   6.535  1.00  0.00     0.274 HD
ENDBRANCH  11  12
BRANCH  11  16
HETATM   16  C8  UNL     1      -5.312  11.968   8.797  1.00  0.00     0.020 C
HETATM   17  C9  UNL     1      -5.627  12.446  10.204  1.00  0.00     0.007 C
HETATM   18  C10 UNL     1      -7.039  12.945  10.234  1.00  0.00     0.000 C
HETATM   19  C11 UNL     1      -7.479  13.091   8.784  1.00  0.00     0.000 C
HETATM   20  C12 UNL     1      -6.620  12.077   8.055  1.00  0.00     0.007 C
ENDBRANCH  11  16
ENDBRANCH   8  11
ENDBRANCH   6   8
ENDBRANCH   5   6
BRANCH   5  21
HETATM   21  C13 UNL     1       0.242  11.109   7.556  1.00  0.00     0.012 C
HETATM   22  C14 UNL     1      -0.161   9.722   7.910  1.00  0.00     0.012 C
HETATM   23  C15 UNL     1       1.242  11.719   8.510  1.00  0.00     0.012 C
ENDBRANCH   5  21
ENDBRANCH   4   5
TORSDOF 8
ENDMDL