MODEL 4
REMARK VINA RESULT: -7.126663722      2.259      3.277
REMARK  5 active torsions:
REMARK  status: ('A' for Active; 'I' for Inactive)
REMARK    1  A    between atoms: O1_3  and  C3_4
REMARK    2  A    between atoms: C4_5  and  C5_6
REMARK    3  A    between atoms: C8_9  and  O2_10
REMARK    4  A    between atoms: C12_14  and  C13_15
REMARK    5  A    between atoms: C15_20  and  O6_21
ROOT
HETATM    1  C1  UNL     1      24.318  45.775   0.993  1.00  0.00     0.045 C
HETATM    2  C2  UNL     1      25.324  46.369   0.677  1.00  0.00     0.049 C
HETATM    3  O1  UNL     1      26.451  47.033   0.353  1.00  0.00    -0.258 OA
ENDROOT
BRANCH   3   4
HETATM    4  C3  UNL     1      26.558  48.290  -0.203  1.00  0.00     0.132 A
HETATM    5  C4  UNL     1      26.461  48.526  -1.589  1.00  0.00     0.017 A
HETATM    6  C8  UNL     1      26.581  49.793  -2.071  1.00  0.00     0.090 A
HETATM    7  C10 UNL     1      26.795  50.820  -1.131  1.00  0.00     0.038 A
HETATM    8  C11 UNL     1      26.949  52.168  -1.295  1.00  0.00     0.061 A
HETATM    9  C14 UNL     1      26.887  50.589   0.220  1.00  0.00     0.125 A
HETATM   10  C12 UNL     1      27.131  52.711  -0.026  1.00  0.00     0.153 A
HETATM   11  O5  UNL     1      27.087  51.736   0.846  1.00  0.00    -0.300 OA
HETATM   12  C15 UNL     1      26.768  49.304   0.709  1.00  0.00     0.138 A
BRANCH   5  13
HETATM   13  C5  UNL     1      26.156  47.376  -2.417  1.00  0.00     0.016 C
HETATM   14  C6  UNL     1      26.773  47.233  -3.749  1.00  0.00     0.015 C
HETATM   15  C7  UNL     1      24.618  47.332  -2.705  1.00  0.00     0.015 C
ENDBRANCH   5  13
BRANCH   6  16
HETATM   16  O2  UNL     1      26.524  50.202  -3.397  1.00  0.00    -0.354 OA
HETATM   17  C9  UNL     1      25.336  50.700  -4.011  1.00  0.00     0.210 C
ENDBRANCH   6  16
BRANCH  10  18
HETATM   18  C13 UNL     1      27.328  54.134   0.187  1.00  0.00     0.234 C
HETATM   19  O3  UNL     1      26.851  54.932  -0.656  1.00  0.00    -0.642 OA
HETATM   20  O4  UNL     1      28.010  54.670   1.262  1.00  0.00    -0.642 OA
ENDBRANCH  10  18
BRANCH  12  21
HETATM   21  O6  UNL     1      26.855  49.032   2.067  1.00  0.00    -0.351 OA
HETATM   22  C16 UNL     1      25.895  49.257   3.037  1.00  0.00     0.210 C
ENDBRANCH  12  21
ENDBRANCH   3   4
TORSDOF 5
ENDMDL