MODEL 4
REMARK VINA RESULT: -8.428594790      2.367      2.853
REMARK  7 active torsions:
REMARK  status: ('A' for Active; 'I' for Inactive)
REMARK    1  A    between atoms: C5_6  and  C6_7
REMARK    2  A    between atoms: C7_8  and  C8_9
REMARK    3  A    between atoms: C8_9  and  C9_10
REMARK    4  A    between atoms: C9_10  and  C10_11
REMARK    5  A    between atoms: N1_13  and  O2_15
REMARK    6  A    between atoms: C13_20  and  C14_21
REMARK    7  A    between atoms: C14_21  and  C15_22
ROOT
HETATM    1  C1  UNL     1      26.195  49.283   3.246  1.00  0.00     0.049 C
HETATM    2  C2  UNL     1      26.427  50.490   2.407  1.00  0.00    -0.042 C
HETATM    3  C3  UNL     1      26.673  51.652   3.038  1.00  0.00     0.061 C
HETATM    4  C4  UNL     1      26.939  52.983   2.452  1.00  0.00     0.182 C
HETATM    5  O1  UNL     1      26.486  53.934   3.136  1.00  0.00    -0.290 OA
HETATM    6  C5  UNL     1      27.645  53.325   1.217  1.00  0.00     0.228 C
HETATM    7  O3  UNL     1      28.083  52.228   0.434  1.00  0.00    -0.300 OA
HETATM    8  C12 UNL     1      27.444  51.027   0.098  1.00  0.00     0.294 C
HETATM    9  O4  UNL     1      27.734  50.524  -0.976  1.00  0.00    -0.259 OA
HETATM   10  C13 UNL     1      26.421  50.314   0.967  1.00  0.00     0.045 C
ENDROOT
BRANCH   6  11
HETATM   11  C6  UNL     1      26.745  54.140   0.319  1.00  0.00     0.009 C
HETATM   12  C7  UNL     1      26.890  54.168  -0.982  1.00  0.00    -0.027 C
BRANCH  12  13
HETATM   13  C8  UNL     1      26.117  54.890  -1.978  1.00  0.00     0.032 C
BRANCH  13  14
HETATM   14  C9  UNL     1      25.802  54.280  -3.276  1.00  0.00     0.058 C
BRANCH  14  15
HETATM   15  C10 UNL     1      26.000  52.844  -3.431  1.00  0.00     0.006 C
HETATM   16  C11 UNL     1      24.847  51.893  -3.257  1.00  0.00     0.065 C
HETATM   17  N1  UNL     1      27.133  52.278  -3.680  1.00  0.00    -0.278 N
ATOM     18  H1  UNL     1      27.948  52.883  -3.774  1.00  0.00     0.193 HD
BRANCH  17  19
HETATM   19  O2  UNL     1      27.327  50.948  -3.825  1.00  0.00    -0.290 OA
ATOM     20  H2  UNL     1      28.166  50.528  -3.974  1.00  0.00     0.244 HD
ENDBRANCH  17  19
ENDBRANCH  14  15
ENDBRANCH  13  14
ENDBRANCH  12  13
ENDBRANCH   6  11
BRANCH  10  21
HETATM   21  C14 UNL     1      25.540  49.653   0.341  1.00  0.00     0.020 C
BRANCH  21  22
HETATM   22  C15 UNL     1      25.253  48.361  -0.218  1.00  0.00    -0.087 C
HETATM   23  C16 UNL     1      25.792  47.109   0.280  1.00  0.00     0.043 C
HETATM   24  C17 UNL     1      25.275  48.409  -1.749  1.00  0.00     0.043 C
ENDBRANCH  21  22
ENDBRANCH  10  21
TORSDOF 7
ENDMDL