MODEL 2
REMARK VINA RESULT: -6.790941562      2.873      5.490
REMARK  7 active torsions:
REMARK  status: ('A' for Active; 'I' for Inactive)
REMARK    1  A    between atoms: C2_2  and  C3_3
REMARK    2  A    between atoms: C3_3  and  C4_4
REMARK    3  A    between atoms: C7_8  and  C8_9
REMARK    4  A    between atoms: C8_9  and  N1_10
REMARK    5  A    between atoms: C9_11  and  O1_12
REMARK    6  A    between atoms: N2_15  and  C11_16
REMARK    7  A    between atoms: C11_16  and  C12_17
ROOT
HETATM    1  N1  UNL     1      27.568  52.066   0.959  1.00  0.00    -0.274 N
HETATM    2  C9  UNL     1      27.522  53.315   0.354  1.00  0.00     0.162 A
HETATM    3  C10 UNL     1      27.039  53.162  -0.904  1.00  0.00     0.151 A
HETATM    4  N2  UNL     1      26.780  51.868  -1.120  1.00  0.00    -0.305 N
HETATM    5  C16 UNL     1      27.109  51.231   0.024  1.00  0.00     0.331 A
HETATM    6  O2  UNL     1      26.970  49.962   0.118  1.00  0.00    -0.246 OA
ENDROOT
BRANCH   1   7
HETATM    7  C8  UNL     1      28.048  51.920   2.295  1.00  0.00     0.175 C
BRANCH   7   8
HETATM    8  C7  UNL     1      27.074  51.999   3.420  1.00  0.00    -0.026 A
HETATM    9  C4  UNL     1      26.358  50.985   3.947  1.00  0.00    -0.043 A
HETATM   10  C5  UNL     1      25.461  51.304   4.954  1.00  0.00     0.057 A
HETATM   11  S1  UNL     1      25.640  52.981   5.133  1.00  0.00    -0.113 SA
HETATM   12  C6  UNL     1      26.831  53.253   3.949  1.00  0.00     0.058 A
BRANCH   9  13
HETATM   13  C3  UNL     1      26.475  49.517   3.584  1.00  0.00     0.039 C
BRANCH  13  14
HETATM   14  C2  UNL     1      25.160  48.916   3.224  1.00  0.00     0.000 C
HETATM   15  C1  UNL     1      25.320  47.598   2.500  1.00  0.00     0.005 C
ENDBRANCH  13  14
ENDBRANCH   9  13
ENDBRANCH   7   8
ENDBRANCH   1   7
BRANCH   2  16
HETATM   16  O1  UNL     1      27.921  54.532   0.953  1.00  0.00    -0.345 OA
ATOM     17  H1  UNL     1      27.747  54.787   1.851  1.00  0.00     0.219 HD
ENDBRANCH   2  16
BRANCH   4  18
HETATM   18  C11 UNL     1      26.285  51.371  -2.378  1.00  0.00     0.141 C
BRANCH  18  19
HETATM   19  C12 UNL     1      27.350  51.110  -3.403  1.00  0.00    -0.035 C
HETATM   20  C13 UNL     1      27.010  49.809  -4.124  1.00  0.00     0.016 C
HETATM   21  C14 UNL     1      28.734  50.969  -2.816  1.00  0.00     0.016 C
HETATM   22  C15 UNL     1      27.325  52.195  -4.472  1.00  0.00     0.016 C
ENDBRANCH  18  19
ENDBRANCH   4  18
TORSDOF 7
ENDMDL