MODEL 5
REMARK VINA RESULT: -7.927922598      2.835      6.004
REMARK  6 active torsions:
REMARK  status: ('A' for Active; 'I' for Inactive)
REMARK    1  A    between atoms: C4_4  and  C5_5
REMARK    2  A    between atoms: C6_6  and  C7_7
REMARK    3  A    between atoms: C7_7  and  C10_10
REMARK    4  A    between atoms: C12_12  and  N1_13
REMARK    5  A    between atoms: C14_17  and  N2_18
REMARK    6  A    between atoms: C15_21  and  O5_22
ROOT
HETATM    1  C10 UNL     1      27.222  51.632  -1.646  1.00  0.00    -0.008 A
HETATM    2  C11 UNL     1      27.384  51.726  -0.283  1.00  0.00     0.047 A
HETATM    3  C12 UNL     1      27.174  52.906   0.432  1.00  0.00     0.106 A
HETATM    4  C13 UNL     1      26.787  54.033  -0.256  1.00  0.00     0.075 A
HETATM    5  C14 UNL     1      26.614  53.966  -1.650  1.00  0.00     0.138 A
HETATM    6  C15 UNL     1      26.829  52.788  -2.316  1.00  0.00     0.106 A
ENDROOT
BRANCH   1   7
HETATM    7  C7  UNL     1      27.458  50.363  -2.331  1.00  0.00     0.000 C
HETATM    8  C8  UNL     1      28.852  50.354  -2.912  1.00  0.00     0.024 C
HETATM    9  C9  UNL     1      26.512  50.096  -3.476  1.00  0.00     0.024 C
BRANCH   7  10
HETATM   10  C6  UNL     1      27.366  49.187  -1.426  1.00  0.00    -0.013 C
HETATM   11  C5  UNL     1      26.199  48.678  -1.150  1.00  0.00    -0.003 C
BRANCH  11  12
HETATM   12  C4  UNL     1      26.025  47.521  -0.269  1.00  0.00     0.002 C
HETATM   13  C2  UNL     1      25.771  47.667   1.008  1.00  0.00    -0.088 C
HETATM   14  C1  UNL     1      25.604  46.453   1.859  1.00  0.00     0.043 C
HETATM   15  C3  UNL     1      25.654  49.027   1.585  1.00  0.00     0.043 C
ENDBRANCH  11  12
ENDBRANCH   7  10
ENDBRANCH   1   7
BRANCH   6  16
HETATM   16  O5  UNL     1      26.674  52.684  -3.654  1.00  0.00    -0.358 OA
ATOM     17  H5  UNL     1      26.782  51.817  -4.026  1.00  0.00     0.217 HD
ENDBRANCH   6  16
BRANCH   3  18
HETATM   18  N1  UNL     1      27.354  52.957   1.840  1.00  0.00    -0.116 N
HETATM   19  O1  UNL     1      27.960  52.060   2.452  1.00  0.00    -0.532 OA
HETATM   20  O2  UNL     1      26.857  54.009   2.565  1.00  0.00    -0.532 OA
ENDBRANCH   3  18
BRANCH   5  21
HETATM   21  N2  UNL     1      26.217  55.186  -2.251  1.00  0.00    -0.113 N
HETATM   22  O3  UNL     1      26.330  56.281  -1.631  1.00  0.00    -0.532 OA
HETATM   23  O4  UNL     1      25.697  55.269  -3.514  1.00  0.00    -0.532 OA
ENDBRANCH   5  21
TORSDOF 6
ENDMDL