MODEL 5
REMARK VINA RESULT: -7.407208425      1.416      2.448
REMARK  4 active torsions:
REMARK  status: ('A' for Active; 'I' for Inactive)
REMARK    1  A    between atoms: C2_2  and  N1_3
REMARK    2  A    between atoms: N1_3  and  C3_4
REMARK    3  A    between atoms: N1_3  and  C5_7
REMARK    4  A    between atoms: N3_10  and  C8_12
ROOT
HETATM    1  C3  UNL     1      27.176  50.187   3.492  1.00  0.00     0.248 C
HETATM    2  C4  UNL     1      25.925  49.446   3.393  1.00  0.00     0.079 C
HETATM    3  N2  UNL     1      24.926  48.842   3.335  1.00  0.00    -0.196 NA
ENDROOT
BRANCH   1   4
HETATM    4  N1  UNL     1      27.100  51.442   2.796  1.00  0.00    -0.355 N
BRANCH   4   5
HETATM    5  C2  UNL     1      27.108  52.654   3.566  1.00  0.00     0.121 C
HETATM    6  C1  UNL     1      26.029  52.700   4.629  1.00  0.00     0.026 C
ENDBRANCH   4   5
BRANCH   4   7
HETATM    7  C5  UNL     1      27.020  51.481   1.388  1.00  0.00     0.108 A
HETATM    8  C6  UNL     1      26.880  50.366   0.585  1.00  0.00     0.096 A
HETATM    9  C7  UNL     1      26.773  50.437  -0.789  1.00  0.00     0.107 A
HETATM   10  N3  UNL     1      26.653  49.327  -1.415  1.00  0.00    -0.354 N
HETATM   11  N5  UNL     1      26.804  51.625  -1.388  1.00  0.00    -0.333 N
ATOM     12  H3  UNL     1      26.647  48.482  -0.843  1.00  0.00     0.163 HD
HETATM   13  C16 UNL     1      26.939  52.733  -0.649  1.00  0.00     0.080 A
ATOM     14  H5  UNL     1      26.725  51.691  -2.403  1.00  0.00     0.168 HD
HETATM   15  C17 UNL     1      26.974  54.038  -1.356  1.00  0.00     0.089 C
HETATM   16  N6  UNL     1      27.043  52.657   0.695  1.00  0.00    -0.332 N
ATOM     17  H6  UNL     1      27.143  53.526   1.220  1.00  0.00     0.168 HD
BRANCH  10  18
HETATM   18  C8  UNL     1      26.526  49.139  -2.834  1.00  0.00     0.124 C
HETATM   19  C9  UNL     1      27.568  49.956  -3.475  1.00  0.00     0.091 C
HETATM   20  N4  UNL     1      28.403  50.591  -3.970  1.00  0.00    -0.195 NA
HETATM   21  C10 UNL     1      26.709  47.697  -3.162  1.00  0.00     0.047 C
HETATM   22  C11 UNL     1      26.217  47.324  -4.539  1.00  0.00     0.004 C
HETATM   23  C12 UNL     1      24.866  47.875  -4.863  1.00  0.00     0.001 C
HETATM   24  C13 UNL     1      24.232  48.585  -3.687  1.00  0.00     0.008 C
HETATM   25  C14 UNL     1      25.170  49.668  -3.232  1.00  0.00     0.024 C
HETATM   26  C15 UNL     1      25.334  50.759  -4.265  1.00  0.00     0.013 C
ENDBRANCH  10  18
ENDBRANCH   4   7
ENDBRANCH   1   4
TORSDOF 4
ENDMDL