MODEL 4
REMARK VINA RESULT: -7.605687584      0.813      1.328
REMARK  7 active torsions:
REMARK  status: ('A' for Active; 'I' for Inactive)
REMARK    1  A    between atoms: O1_1  and  C1_3
REMARK    2  A    between atoms: N1_5  and  C3_6
REMARK    3  A    between atoms: C9_13  and  C10_14
REMARK    4  A    between atoms: C10_14  and  N2_15
REMARK    5  A    between atoms: N2_15  and  O3_17
REMARK    6  A    between atoms: O3_17  and  C11_18
REMARK    7  A    between atoms: C11_18  and  C12_19
ROOT
HETATM    1  C1  UNL     1      25.971  54.668  -2.518  1.00  0.00     0.094 A
HETATM    2  C2  UNL     1      25.745  53.653  -3.464  1.00  0.00     0.128 A
HETATM    3  N1  UNL     1      26.098  52.466  -2.923  1.00  0.00    -0.358 N
HETATM    4  C8  UNL     1      26.527  52.704  -1.669  1.00  0.00     0.106 A
HETATM    5  C9  UNL     1      26.460  54.112  -1.384  1.00  0.00     0.031 A
ENDROOT
BRANCH   5   6
HETATM    6  C10 UNL     1      27.189  54.596  -0.214  1.00  0.00     0.129 C
BRANCH   6   7
HETATM    7  N2  UNL     1      27.440  54.181   0.830  1.00  0.00    -0.277 N
ATOM      8  H2  UNL     1      26.740  54.658   1.400  1.00  0.00     0.193 HD
BRANCH   7   9
HETATM    9  O3  UNL     1      28.057  53.486   1.732  1.00  0.00    -0.280 OA
BRANCH   9  10
HETATM   10  C11 UNL     1      26.842  53.022   2.609  1.00  0.00     0.205 C
BRANCH  10  11
HETATM   11  C12 UNL     1      27.106  51.589   2.866  1.00  0.00     0.012 C
HETATM   12  C13 UNL     1      26.027  51.005   3.814  1.00  0.00     0.007 C
HETATM   13  C14 UNL     1      26.268  49.485   3.848  1.00  0.00     0.000 C
HETATM   14  C15 UNL     1      25.648  48.897   2.612  1.00  0.00     0.000 C
HETATM   15  C16 UNL     1      25.662  50.002   1.583  1.00  0.00     0.000 C
HETATM   16  C17 UNL     1      26.973  50.717   1.595  1.00  0.00     0.007 C
ENDBRANCH  10  11
ENDBRANCH   9  10
ENDBRANCH   7   9
ENDBRANCH   6   7
ENDBRANCH   5   6
BRANCH   1  17
HETATM   17  O1  UNL     1      25.707  56.045  -2.756  1.00  0.00    -0.358 OA
ATOM     18  H1  UNL     1      24.900  56.478  -2.505  1.00  0.00     0.217 HD
ENDBRANCH   1  17
BRANCH   3  19
HETATM   19  C3  UNL     1      26.141  51.154  -3.533  1.00  0.00     0.092 C
HETATM   20  C4  UNL     1      27.392  50.422  -3.195  1.00  0.00     0.052 C
HETATM   21  C5  UNL     1      27.270  49.052  -3.889  1.00  0.00     0.169 C
HETATM   22  O2  UNL     1      26.095  48.970  -4.670  1.00  0.00    -0.391 OA
HETATM   23  C6  UNL     1      24.935  49.081  -3.862  1.00  0.00     0.169 C
HETATM   24  C7  UNL     1      25.008  50.284  -2.958  1.00  0.00     0.052 C
ENDBRANCH   3  19
TORSDOF 7
ENDMDL