MODEL 3
REMARK VINA RESULT: -7.075869984      2.576      4.998
REMARK  5 active torsions:
REMARK  status: ('A' for Active; 'I' for Inactive)
REMARK    1  A    between atoms: O1_2  and  C2_3
REMARK    2  A    between atoms: C4_5  and  O2_6
REMARK    3  A    between atoms: C6_8  and  C7_9
REMARK    4  A    between atoms: N2_14  and  C10_16
REMARK    5  A    between atoms: C15_22  and  O4_23
ROOT
HETATM    1  C2  UNL     1      26.406  50.917   2.617  1.00  0.00     0.104 A
HETATM    2  C3  UNL     1      26.980  52.067   2.124  1.00  0.00     0.077 A
HETATM    3  C4  UNL     1      27.288  52.216   0.780  1.00  0.00     0.084 A
HETATM    4  C6  UNL     1      26.999  51.173  -0.053  1.00  0.00     0.035 A
HETATM    5  C14 UNL     1      26.424  50.011   0.412  1.00  0.00     0.057 A
HETATM    6  C15 UNL     1      26.132  49.890   1.742  1.00  0.00     0.102 A
ENDROOT
BRANCH   4   7
HETATM    7  C7  UNL     1      27.314  51.305  -1.479  1.00  0.00     0.107 A
HETATM    8  C8  UNL     1      28.230  50.526  -2.178  1.00  0.00     0.130 A
HETATM    9  N1  UNL     1      28.193  50.996  -3.447  1.00  0.00    -0.329 N
HETATM   10  C9  UNL     1      27.306  52.006  -3.530  1.00  0.00     0.225 A
ATOM     11  H1  UNL     1      28.751  50.639  -4.222  1.00  0.00     0.168 HD
HETATM   12  N2  UNL     1      27.047  52.655  -4.600  1.00  0.00    -0.348 N
HETATM   13  O3  UNL     1      26.800  52.161  -2.329  1.00  0.00    -0.277 OA
ATOM     14  H2  UNL     1      27.554  52.375  -5.439  1.00  0.00     0.163 HD
BRANCH  12  15
HETATM   15  C10 UNL     1      26.123  53.725  -4.738  1.00  0.00     0.022 C
HETATM   16  C11 UNL     1      24.767  53.130  -5.095  1.00  0.00     0.037 C
HETATM   17  C12 UNL     1      25.928  54.538  -3.486  1.00  0.00     0.037 C
HETATM   18  C13 UNL     1      26.610  54.651  -5.832  1.00  0.00     0.037 C
ENDBRANCH  12  15
ENDBRANCH   4   7
BRANCH   3  19
HETATM   19  O2  UNL     1      27.872  53.403   0.325  1.00  0.00    -0.355 OA
HETATM   20  C5  UNL     1      27.107  54.577   0.185  1.00  0.00     0.210 C
ENDBRANCH   3  19
BRANCH   6  21
HETATM   21  O4  UNL     1      25.554  48.733   2.235  1.00  0.00    -0.353 OA
HETATM   22  C16 UNL     1      25.766  47.501   1.592  1.00  0.00     0.210 C
ENDBRANCH   6  21
BRANCH   1  23
HETATM   23  O1  UNL     1      26.093  50.752   3.959  1.00  0.00    -0.353 OA
HETATM   24  C1  UNL     1      25.854  51.922   4.721  1.00  0.00     0.210 C
ENDBRANCH   1  23
TORSDOF 5
ENDMDL