MODEL 5
REMARK VINA RESULT: -7.069701224      1.726      2.108
REMARK  6 active torsions:
REMARK  status: ('A' for Active; 'I' for Inactive)
REMARK    1  A    between atoms: C2_2  and  C4_5
REMARK    2  A    between atoms: C5_6  and  C6_7
REMARK    3  A    between atoms: C6_7  and  C7_8
REMARK    4  A    between atoms: C10_11  and  C11_12
REMARK    5  A    between atoms: C11_12  and  C12_13
REMARK    6  A    between atoms: N2_15  and  O1_17
ROOT
HETATM    1  C1  UNL     1      24.500  50.458  -2.867  1.00  0.00     0.031 C
HETATM    2  C2  UNL     1      25.557  50.253  -2.101  1.00  0.00     0.024 C
HETATM    3  C3  UNL     1      25.419  49.313  -1.024  1.00  0.00     0.095 C
HETATM    4  N1  UNL     1      25.288  48.555  -0.161  1.00  0.00    -0.192 NA
ENDROOT
BRANCH   2   5
HETATM    5  C4  UNL     1      26.790  51.005  -2.408  1.00  0.00     0.092 C
HETATM    6  C5  UNL     1      26.551  52.508  -2.605  1.00  0.00    -0.057 C
HETATM    7  C10 UNL     1      26.677  52.992  -3.998  1.00  0.00     0.120 C
HETATM    8  C14 UNL     1      26.605  51.805  -4.959  1.00  0.00     0.268 C
HETATM    9  O2  UNL     1      25.792  51.716  -5.902  1.00  0.00    -0.264 OA
HETATM   10  O3  UNL     1      27.513  50.799  -4.729  1.00  0.00    -0.309 OA
HETATM   11  C15 UNL     1      27.690  50.371  -3.410  1.00  0.00     0.075 C
HETATM   12  C16 UNL     1      27.415  48.863  -3.349  1.00  0.00     0.047 C
HETATM   13  C17 UNL     1      29.150  50.538  -3.068  1.00  0.00     0.047 C
BRANCH   6  14
HETATM   14  C6  UNL     1      27.190  53.227  -1.501  1.00  0.00    -0.018 C
BRANCH  14  15
HETATM   15  C7  UNL     1      26.564  54.213  -0.646  1.00  0.00     0.000 C
HETATM   16  C8  UNL     1      26.378  55.588  -1.225  1.00  0.00     0.013 C
HETATM   17  C9  UNL     1      27.424  54.432   0.624  1.00  0.00     0.013 C
ENDBRANCH  14  15
ENDBRANCH   6  14
BRANCH   7  18
HETATM   18  C11 UNL     1      25.473  53.835  -4.421  1.00  0.00     0.073 C
BRANCH  18  19
HETATM   19  C12 UNL     1      25.869  55.128  -4.961  1.00  0.00     0.007 C
HETATM   20  C13 UNL     1      26.887  55.165  -6.079  1.00  0.00     0.065 C
HETATM   21  N2  UNL     1      25.416  56.279  -4.615  1.00  0.00    -0.278 N
ATOM     22  H2  UNL     1      24.702  56.306  -3.887  1.00  0.00     0.193 HD
BRANCH  21  23
HETATM   23  O1  UNL     1      25.822  57.472  -5.154  1.00  0.00    -0.290 OA
ATOM     24  H1  UNL     1      26.236  58.173  -4.665  1.00  0.00     0.244 HD
ENDBRANCH  21  23
ENDBRANCH  18  19
ENDBRANCH   7  18
ENDBRANCH   2   5
TORSDOF 6
ENDMDL