MODEL 4
REMARK VINA RESULT: -6.172139233      1.522      2.302
REMARK  3 active torsions:
REMARK  status: ('A' for Active; 'I' for Inactive)
REMARK    1  A    between atoms: C2_2  and  O1_4
REMARK    2  A    between atoms: C2_2  and  C4_6
REMARK    3  A    between atoms: C6_8  and  O2_9
ROOT
HETATM    1  C4  UNL     1      14.260  -3.030  12.320  1.00  0.00     0.031 C
HETATM    2  C5  UNL     1      15.163  -2.863  11.068  1.00  0.00     0.040 C
HETATM    3  C6  UNL     1      15.752  -4.195  10.780  1.00  0.00     0.123 C
HETATM    4  C7  UNL     1      15.765  -4.945  12.099  1.00  0.00     0.024 C
HETATM    5  C8  UNL     1      15.271  -6.319  11.884  1.00  0.00     0.008 C
HETATM    6  C9  UNL     1      14.656  -6.994  13.055  1.00  0.00     0.001 C
HETATM    7  C10 UNL     1      13.767  -6.112  13.881  1.00  0.00     0.009 C
HETATM    8  C11 UNL     1      14.507  -4.834  14.177  1.00  0.00    -0.040 C
HETATM    9  C12 UNL     1      15.776  -5.403  14.881  1.00  0.00     0.015 C
HETATM   10  C13 UNL     1      13.815  -4.113  15.281  1.00  0.00     0.015 C
HETATM   11  C14 UNL     1      14.994  -4.046  13.033  1.00  0.00    -0.025 C
HETATM   12  C15 UNL     1      16.155  -3.242  13.727  1.00  0.00     0.017 C
ENDROOT
BRANCH   1  13
HETATM   13  C2  UNL     1      12.912  -2.988  11.820  1.00  0.00     0.055 C
HETATM   14  C1  UNL     1      12.026  -4.206  11.992  1.00  0.00     0.045 C
HETATM   15  C3  UNL     1      12.641  -2.428  10.457  1.00  0.00     0.045 C
BRANCH  13  16
HETATM   16  O1  UNL     1      12.241  -2.044  12.666  1.00  0.00    -0.390 OA
ATOM     17  H1  UNL     1      12.685  -2.195  13.492  1.00  0.00     0.210 HD
ENDBRANCH  13  16
ENDBRANCH   1  13
BRANCH   3  18
HETATM   18  O2  UNL     1      17.022  -4.018  10.236  1.00  0.00    -0.395 OA
ATOM     19  H2  UNL     1      17.468  -4.857  10.218  1.00  0.00     0.210 HD
ENDBRANCH   3  18
TORSDOF 3
ENDMDL