MODEL 3
REMARK VINA RESULT: -6.603212741      1.568      4.795
REMARK  3 active torsions:
REMARK  status: ('A' for Active; 'I' for Inactive)
REMARK    1  A    between atoms: C2_2  and  C4_4
REMARK    2  A    between atoms: C4_4  and  O1_5
REMARK    3  A    between atoms: C9_11  and  O2_12
ROOT
HETATM    1  C4  UNL     1      13.676  -4.478  13.453  1.00  0.00     0.069 C
HETATM    2  C5  UNL     1      14.252  -5.712  14.071  1.00  0.00     0.050 C
HETATM    3  C6  UNL     1      15.559  -6.197  13.592  1.00  0.00    -0.019 C
HETATM    4  C7  UNL     1      15.400  -7.433  12.689  1.00  0.00     0.017 C
HETATM    5  C8  UNL     1      16.443  -6.702  14.747  1.00  0.00     0.017 C
HETATM    6  C9  UNL     1      16.411  -5.235  12.819  1.00  0.00     0.131 C
HETATM    7  C10 UNL     1      15.544  -4.641  11.792  1.00  0.00     0.026 C
HETATM    8  C11 UNL     1      16.160  -3.815  10.745  1.00  0.00     0.008 C
HETATM    9  C12 UNL     1      15.023  -2.956  10.275  1.00  0.00     0.001 C
HETATM   10  C13 UNL     1      13.868  -3.159  11.269  1.00  0.00     0.012 C
HETATM   11  C14 UNL     1      14.475  -3.774  12.477  1.00  0.00    -0.007 C
HETATM   12  C15 UNL     1      15.253  -2.614  13.131  1.00  0.00     0.019 C
ENDROOT
BRANCH   1  13
HETATM   13  C2  UNL     1      12.215  -4.745  13.149  1.00  0.00     0.012 C
HETATM   14  C1  UNL     1      11.224  -3.790  13.652  1.00  0.00     0.012 C
HETATM   15  C3  UNL     1      11.841  -6.197  13.319  1.00  0.00     0.012 C
ENDBRANCH   1  13
BRANCH   1  16
HETATM   16  O1  UNL     1      13.500  -3.572  14.554  1.00  0.00    -0.389 OA
ATOM     17  H1  UNL     1      14.076  -2.877  14.258  1.00  0.00     0.210 HD
ENDBRANCH   1  16
BRANCH   6  18
HETATM   18  O2  UNL     1      17.117  -4.379  13.615  1.00  0.00    -0.394 OA
ATOM     19  H2  UNL     1      18.031  -4.300  13.365  1.00  0.00     0.210 HD
ENDBRANCH   6  18
TORSDOF 3
ENDMDL