MODEL 1
REMARK VINA RESULT: -6.175286905      0.000      0.000
REMARK  3 active torsions:
REMARK  status: ('A' for Active; 'I' for Inactive)
REMARK    1  A    between atoms: C2_2  and  C4_4
REMARK    2  A    between atoms: C11_11  and  O1_13
REMARK    3  A    between atoms: C13_15  and  O2_16
ROOT
HETATM    1  C4  UNL     1      15.784  -4.132  13.021  1.00  0.00    -0.064 C
HETATM    2  C5  UNL     1      14.838  -3.245  12.196  1.00  0.00     0.036 C
HETATM    3  C6  UNL     1      13.407  -3.614  12.268  1.00  0.00     0.009 C
HETATM    4  C7  UNL     1      13.063  -4.625  13.318  1.00  0.00    -0.013 C
HETATM    5  C8  UNL     1      11.584  -4.452  13.641  1.00  0.00     0.010 C
HETATM    6  C9  UNL     1      13.823  -4.375  14.576  1.00  0.00     0.007 C
HETATM    7  C10 UNL     1      13.611  -5.543  15.504  1.00  0.00     0.046 C
HETATM    8  C11 UNL     1      14.954  -6.218  15.666  1.00  0.00     0.081 C
HETATM    9  C12 UNL     1      15.140  -6.780  17.058  1.00  0.00     0.049 C
HETATM   10  C13 UNL     1      15.864  -5.006  15.449  1.00  0.00     0.165 C
HETATM   11  C14 UNL     1      15.315  -4.177  14.386  1.00  0.00     0.013 C
HETATM   12  C15 UNL     1      15.509  -2.701  14.889  1.00  0.00     0.023 C
ENDROOT
BRANCH   1  13
HETATM   13  C2  UNL     1      16.326  -5.246  12.265  1.00  0.00    -0.068 C
HETATM   14  C1  UNL     1      17.602  -5.326  11.969  1.00  0.00     0.018 C
HETATM   15  C3  UNL     1      15.518  -6.436  11.798  1.00  0.00     0.047 C
ENDBRANCH   1  13
BRANCH  10  16
HETATM   16  O2  UNL     1      17.185  -5.252  15.558  1.00  0.00    -0.391 OA
ATOM     17  H2  UNL     1      17.698  -5.064  14.780  1.00  0.00     0.210 HD
ENDBRANCH  10  16
BRANCH   8  18
HETATM   18  O1  UNL     1      15.051  -7.209  14.761  1.00  0.00    -0.388 OA
ATOM     19  H1  UNL     1      15.928  -7.202  14.394  1.00  0.00     0.210 HD
ENDBRANCH   8  18
TORSDOF 3
ENDMDL