MODEL 1
REMARK VINA RESULT: -7.491042969      0.000      0.000
REMARK  2 active torsions:
REMARK  status: ('A' for Active; 'I' for Inactive)
REMARK    1  A    between atoms: C14_14  and  O1_15
REMARK    2  A    between atoms: C15_17  and  O2_18
ROOT
HETATM    1  C1  UNL     1      11.810  -2.834   9.860  1.00  0.00     0.016 C
HETATM    2  C2  UNL     1      12.492  -2.947  11.240  1.00  0.00    -0.036 C
HETATM    3  C3  UNL     1      12.313  -1.622  11.938  1.00  0.00     0.010 C
HETATM    4  C4  UNL     1      11.263  -2.268  12.811  1.00  0.00     0.006 C
HETATM    5  C5  UNL     1      11.647  -3.622  12.231  1.00  0.00    -0.006 C
HETATM    6  C6  UNL     1      12.314  -4.507  13.213  1.00  0.00     0.006 C
HETATM    7  C7  UNL     1      13.642  -5.037  12.850  1.00  0.00     0.013 C
HETATM    8  C8  UNL     1      14.575  -4.059  12.178  1.00  0.00    -0.006 C
HETATM    9  C9  UNL     1      15.004  -3.084  13.241  1.00  0.00     0.019 C
HETATM   10  C10 UNL     1      13.858  -3.442  11.031  1.00  0.00     0.005 C
HETATM   11  C11 UNL     1      14.700  -2.325  10.433  1.00  0.00     0.007 C
HETATM   12  C12 UNL     1      16.084  -2.770  10.149  1.00  0.00     0.011 C
HETATM   13  C13 UNL     1      16.427  -4.162  10.483  1.00  0.00     0.055 A
HETATM   14  C14 UNL     1      17.150  -4.375  11.835  1.00  0.00     0.160 A
HETATM   15  C15 UNL     1      15.781  -4.777  11.651  1.00  0.00     0.098 A
ENDROOT
BRANCH  14  16
HETATM   16  O1  UNL     1      17.605  -3.214  12.433  1.00  0.00    -0.392 OA
ATOM     17  H1  UNL     1      17.196  -2.418  12.114  1.00  0.00     0.210 HD
ENDBRANCH  14  16
BRANCH  15  18
HETATM   18  O2  UNL     1      15.575  -6.177  11.507  1.00  0.00    -0.386 OA
ATOM     19  H2  UNL     1      14.662  -6.407  11.380  1.00  0.00     0.210 HD
ENDBRANCH  15  18
TORSDOF 2
ENDMDL