MODEL 4
REMARK VINA RESULT: -6.627180282      3.383      5.184
REMARK  3 active torsions:
REMARK  status: ('A' for Active; 'I' for Inactive)
REMARK    1  A    between atoms: C2_2  and  C4_4
REMARK    2  A    between atoms: C6_6  and  O1_7
REMARK    3  A    between atoms: C10_12  and  O2_13
ROOT
HETATM    1  C4  UNL     1      17.272  -1.984  10.180  1.00  0.00    -0.000 C
HETATM    2  C5  UNL     1      16.736  -1.412   8.886  1.00  0.00     0.037 C
HETATM    3  C6  UNL     1      15.512  -0.563   9.072  1.00  0.00     0.118 C
HETATM    4  C7  UNL     1      14.775  -1.108  10.302  1.00  0.00     0.037 C
HETATM    5  C8  UNL     1      14.962  -2.619  10.214  1.00  0.00    -0.001 C
HETATM    6  C9  UNL     1      13.840  -3.345  10.842  1.00  0.00     0.037 C
HETATM    7  C10 UNL     1      13.915  -3.540  12.310  1.00  0.00     0.118 C
HETATM    8  C11 UNL     1      15.003  -2.787  13.002  1.00  0.00     0.032 C
HETATM    9  C12 UNL     1      16.327  -2.799  12.330  1.00  0.00     0.012 C
HETATM   10  C13 UNL     1      16.304  -2.940  10.827  1.00  0.00    -0.036 C
HETATM   11  C14 UNL     1      16.591  -4.397  10.538  1.00  0.00     0.016 C
ENDROOT
BRANCH   1  12
HETATM   12  C2  UNL     1      18.625  -2.569   9.861  1.00  0.00    -0.018 C
HETATM   13  C1  UNL     1      19.294  -1.745   8.741  1.00  0.00     0.010 C
HETATM   14  C3  UNL     1      19.598  -2.506  11.016  1.00  0.00     0.010 C
ENDBRANCH   1  12
BRANCH   3  15
HETATM   15  O1  UNL     1      15.762   0.777   9.171  1.00  0.00    -0.396 OA
ATOM     16  H1  UNL     1      15.341   1.203   9.910  1.00  0.00     0.210 HD
ENDBRANCH   3  15
BRANCH   7  17
HETATM   17  O2  UNL     1      12.681  -3.194  12.864  1.00  0.00    -0.396 OA
ATOM     18  H2  UNL     1      12.745  -3.271  13.808  1.00  0.00     0.210 HD
ENDBRANCH   7  17
TORSDOF 3
ENDMDL