MODEL 1
REMARK VINA RESULT: -6.727931885      0.000      0.000
REMARK  3 active torsions:
REMARK  status: ('A' for Active; 'I' for Inactive)
REMARK    1  A    between atoms: C12_12  and  O1_13
REMARK    2  A    between atoms: C13_15  and  C15_17
REMARK    3  A    between atoms: C15_17  and  O2_18
ROOT
HETATM    1  C1  UNL     1      12.583  -1.523  11.931  1.00  0.00     0.015 C
HETATM    2  C2  UNL     1      13.123  -2.716  11.180  1.00  0.00    -0.043 C
HETATM    3  C3  UNL     1      12.077  -2.832  10.037  1.00  0.00     0.015 C
HETATM    4  C4  UNL     1      14.400  -2.398  10.452  1.00  0.00     0.009 C
HETATM    5  C5  UNL     1      15.650  -2.788  11.147  1.00  0.00     0.002 C
HETATM    6  C6  UNL     1      15.625  -4.131  11.780  1.00  0.00     0.010 C
HETATM    7  C7  UNL     1      14.396  -4.443  12.575  1.00  0.00    -0.028 C
HETATM    8  C8  UNL     1      14.327  -5.997  12.545  1.00  0.00     0.016 C
HETATM    9  C9  UNL     1      13.144  -4.003  11.905  1.00  0.00     0.002 C
HETATM   10  C10 UNL     1      11.937  -4.165  12.777  1.00  0.00     0.009 C
HETATM   11  C11 UNL     1      12.101  -3.731  14.179  1.00  0.00     0.033 C
HETATM   12  C12 UNL     1      13.354  -4.143  14.847  1.00  0.00     0.129 C
HETATM   13  C13 UNL     1      14.590  -4.135  14.010  1.00  0.00     0.011 C
HETATM   14  C14 UNL     1      15.455  -5.260  14.636  1.00  0.00     0.021 C
ENDROOT
BRANCH  13  15
HETATM   15  C15 UNL     1      15.441  -2.918  14.320  1.00  0.00     0.176 C
BRANCH  15  16
HETATM   16  O2  UNL     1      15.228  -2.672  15.701  1.00  0.00    -0.400 OA
ATOM     17  H2  UNL     1      16.031  -2.954  16.123  1.00  0.00     0.209 HD
ENDBRANCH  15  16
ENDBRANCH  13  15
BRANCH  12  18
HETATM   18  O1  UNL     1      13.141  -5.377  15.509  1.00  0.00    -0.395 OA
ATOM     19  H1  UNL     1      13.712  -5.424  16.267  1.00  0.00     0.210 HD
ENDBRANCH  12  18
TORSDOF 3
ENDMDL