MODEL 2
REMARK VINA RESULT: -6.267430728      1.873      2.800
REMARK  3 active torsions:
REMARK  status: ('A' for Active; 'I' for Inactive)
REMARK    1  A    between atoms: C2_2  and  O1_3
REMARK    2  A    between atoms: C2_2  and  C3_5
REMARK    3  A    between atoms: C5_7  and  O2_9
ROOT
HETATM    1  C3  UNL     1      14.235  -5.133  13.868  1.00  0.00     0.005 A
HETATM    2  C4  UNL     1      14.593  -4.561  15.255  1.00  0.00     0.052 A
HETATM    3  C5  UNL     1      15.722  -5.544  15.434  1.00  0.00     0.063 A
HETATM    4  C6  UNL     1      15.692  -6.444  16.605  1.00  0.00     0.046 C
HETATM    5  C7  UNL     1      15.316  -6.115  14.097  1.00  0.00    -0.003 A
HETATM    6  C8  UNL     1      14.961  -7.567  14.213  1.00  0.00     0.019 C
HETATM    7  C9  UNL     1      16.502  -5.963  13.147  1.00  0.00     0.013 C
HETATM    8  C10 UNL     1      16.084  -5.786  11.738  1.00  0.00     0.002 C
HETATM    9  C11 UNL     1      15.127  -4.692  11.532  1.00  0.00     0.010 C
HETATM   10  C12 UNL     1      14.418  -4.172  12.749  1.00  0.00    -0.037 C
HETATM   11  C13 UNL     1      13.111  -3.618  12.182  1.00  0.00     0.015 C
HETATM   12  C14 UNL     1      15.143  -2.881  13.168  1.00  0.00     0.015 C
ENDROOT
BRANCH   1  13
HETATM   13  C2  UNL     1      12.798  -5.649  13.991  1.00  0.00     0.124 C
HETATM   14  C1  UNL     1      12.496  -6.899  13.257  1.00  0.00     0.040 C
BRANCH  13  15
HETATM   15  O1  UNL     1      12.455  -5.880  15.335  1.00  0.00    -0.395 OA
ATOM     16  H1  UNL     1      13.261  -5.815  15.834  1.00  0.00     0.210 HD
ENDBRANCH  13  15
ENDBRANCH   1  13
BRANCH   3  17
HETATM   17  O2  UNL     1      17.001  -4.924  15.450  1.00  0.00    -0.389 OA
ATOM     18  H2  UNL     1      17.243  -4.593  16.307  1.00  0.00     0.210 HD
ENDBRANCH   3  17
TORSDOF 3
ENDMDL