MODEL 2
REMARK VINA RESULT: -6.992298555      1.132      1.356
REMARK  3 active torsions:
REMARK  status: ('A' for Active; 'I' for Inactive)
REMARK    1  A    between atoms: C2_2  and  C3_3
REMARK    2  A    between atoms: C5_5  and  O1_6
REMARK    3  A    between atoms: C13_15  and  O2_16
ROOT
HETATM    1  C3  UNL     1      14.702  -3.524  11.804  1.00  0.00    -0.031 C
HETATM    2  C4  UNL     1      15.700  -3.070  12.928  1.00  0.00     0.041 C
HETATM    3  C5  UNL     1      14.981  -2.870  14.216  1.00  0.00     0.119 C
HETATM    4  C6  UNL     1      14.151  -4.015  14.683  1.00  0.00     0.036 C
HETATM    5  C7  UNL     1      13.317  -4.647  13.602  1.00  0.00    -0.011 C
HETATM    6  C8  UNL     1      12.003  -3.964  13.433  1.00  0.00     0.005 C
HETATM    7  C9  UNL     1      11.740  -3.777  11.955  1.00  0.00     0.010 C
HETATM    8  C10 UNL     1      12.371  -2.519  11.531  1.00  0.00    -0.035 C
HETATM    9  C11 UNL     1      11.676  -1.358  12.270  1.00  0.00     0.016 C
HETATM   10  C12 UNL     1      12.245  -2.223  10.053  1.00  0.00     0.041 C
HETATM   11  C13 UNL     1      13.718  -1.785  10.150  1.00  0.00     0.124 C
HETATM   12  C14 UNL     1      13.841  -2.417  11.508  1.00  0.00     0.031 C
HETATM   13  C15 UNL     1      14.129  -4.796  12.370  1.00  0.00     0.014 C
ENDROOT
BRANCH   1  14
HETATM   14  C2  UNL     1      15.687  -4.025  10.771  1.00  0.00     0.005 C
HETATM   15  C1  UNL     1      16.251  -5.376  10.972  1.00  0.00     0.006 C
ENDBRANCH   1  14
BRANCH   3  16
HETATM   16  O1  UNL     1      15.963  -2.638  15.191  1.00  0.00    -0.396 OA
ATOM     17  H1  UNL     1      15.555  -2.804  16.032  1.00  0.00     0.210 HD
ENDBRANCH   3  16
BRANCH  11  18
HETATM   18  O2  UNL     1      13.694  -0.366  10.153  1.00  0.00    -0.395 OA
ATOM     19  H2  UNL     1      14.088  -0.106  10.977  1.00  0.00     0.210 HD
ENDBRANCH  11  18
TORSDOF 3
ENDMDL