MODEL 4
REMARK VINA RESULT: -6.334276759      2.837      4.867
REMARK  3 active torsions:
REMARK  status: ('A' for Active; 'I' for Inactive)
REMARK    1  A    between atoms: C8_8  and  O1_9
REMARK    2  A    between atoms: C8_8  and  C9_11
REMARK    3  A    between atoms: C9_11  and  O2_12
ROOT
HETATM    1  C1  UNL     1      16.744  -2.853  11.527  1.00  0.00     0.015 C
HETATM    2  C2  UNL     1      15.674  -3.917  11.315  1.00  0.00    -0.043 C
HETATM    3  C3  UNL     1      16.331  -4.876  10.300  1.00  0.00     0.015 C
HETATM    4  C4  UNL     1      15.565  -4.703  12.576  1.00  0.00     0.022 C
HETATM    5  C5  UNL     1      14.604  -4.185  13.582  1.00  0.00    -0.006 C
HETATM    6  C6  UNL     1      15.208  -3.299  14.669  1.00  0.00     0.016 C
HETATM    7  C7  UNL     1      15.550  -4.526  15.476  1.00  0.00     0.042 C
HETATM    8  C8  UNL     1      14.469  -5.243  14.675  1.00  0.00     0.086 C
HETATM    9  C10 UNL     1      13.332  -3.661  13.044  1.00  0.00     0.022 C
HETATM   10  C11 UNL     1      13.294  -3.159  11.680  1.00  0.00    -0.039 C
HETATM   11  C12 UNL     1      11.920  -3.392  11.036  1.00  0.00     0.015 C
HETATM   12  C13 UNL     1      13.605  -1.658  11.567  1.00  0.00     0.010 C
HETATM   13  C14 UNL     1      14.471  -1.935  10.333  1.00  0.00     0.007 C
HETATM   14  C15 UNL     1      14.414  -3.408  10.761  1.00  0.00     0.001 C
ENDROOT
BRANCH   8  15
HETATM   15  O1  UNL     1      14.900  -6.501  14.338  1.00  0.00    -0.387 OA
ATOM     16  H1  UNL     1      14.233  -7.178  14.340  1.00  0.00     0.210 HD
ENDBRANCH   8  15
BRANCH   8  17
HETATM   17  C9  UNL     1      13.129  -5.290  15.344  1.00  0.00     0.202 C
BRANCH  17  18
HETATM   18  O2  UNL     1      12.961  -6.605  15.826  1.00  0.00    -0.398 OA
ATOM     19  H2  UNL     1      12.049  -6.831  15.691  1.00  0.00     0.209 HD
ENDBRANCH  17  18
ENDBRANCH   8  17
TORSDOF 3
ENDMDL