MODEL 5
REMARK VINA RESULT: -7.175769639      5.501      6.736
REMARK  16 active torsions:
REMARK  status: ('A' for Active; 'I' for Inactive)
REMARK    1  A    between atoms: C1_2  and  N1_3
REMARK    2  A    between atoms: N1_3  and  C2_5
REMARK    3  A    between atoms: C2_5  and  N2_6
REMARK    4  A    between atoms: N2_6  and  C3_9
REMARK    5  A    between atoms: C3_9  and  C4_10
REMARK    6  A    between atoms: C4_10  and  C5_11
REMARK    7  A    between atoms: C5_11  and  N3_12
REMARK    8  A    between atoms: N3_12  and  C6_15
REMARK    9  A    between atoms: C6_15  and  C7_16
REMARK   10  A    between atoms: C7_16  and  C8_17
REMARK   11  A    between atoms: C8_17  and  N4_18
REMARK   12  A    between atoms: N4_18  and  C9_21
REMARK   13  A    between atoms: C9_21  and  C10_22
REMARK   14  A    between atoms: N5_26  and  C13_27
REMARK   15  A    between atoms: C13_27  and  C14_28
REMARK   16  A    between atoms: C14_28  and  C15_29
ROOT
HETATM    1  N4  UNL     1     -10.280  30.774  -4.388  1.00  0.00    -0.073 N
ATOM      2  H41 UNL     1      -9.708  31.511  -3.975  1.00  0.00     0.277 HD
ATOM      3  H42 UNL     1      -9.572  30.311  -4.959  1.00  0.00     0.277 HD
ENDROOT
BRANCH   1   4
HETATM    4  C8  UNL     1     -11.327  31.340  -5.223  1.00  0.00     0.234 C
BRANCH   4   5
HETATM    5  C7  UNL     1     -10.796  31.366  -6.625  1.00  0.00     0.055 C
BRANCH   5   6
HETATM    6  C6  UNL     1     -11.779  31.994  -7.548  1.00  0.00     0.233 C
BRANCH   6   7
HETATM    7  N3  UNL     1     -11.270  32.161  -8.876  1.00  0.00    -0.075 N
ATOM      8  H32 UNL     1     -12.023  32.399  -9.521  1.00  0.00     0.277 HD
ATOM      9  H31 UNL     1     -10.986  31.262  -9.267  1.00  0.00     0.277 HD
BRANCH   7  10
HETATM   10  C5  UNL     1     -10.207  33.111  -8.973  1.00  0.00     0.233 C
BRANCH  10  11
HETATM   11  C4  UNL     1      -9.388  32.991 -10.251  1.00  0.00     0.055 C
BRANCH  11  12
HETATM   12  C3  UNL     1      -8.009  32.452  -9.945  1.00  0.00     0.236 C
BRANCH  12  13
HETATM   13  N2  UNL     1      -8.071  31.232  -9.162  1.00  0.00    -0.059 N
ATOM     14  H22 UNL     1      -8.906  30.690  -9.387  1.00  0.00     0.279 HD
ATOM     15  H21 UNL     1      -8.268  31.431  -8.182  1.00  0.00     0.279 HD
BRANCH  13  16
HETATM   16  C2  UNL     1      -6.877  30.438  -9.308  1.00  0.00     0.356 C
BRANCH  16  17
HETATM   17  N1  UNL     1      -6.139  30.915 -10.456  1.00  0.00    -0.345 N
ATOM     18  H1  UNL     1      -6.341  31.833 -10.853  1.00  0.00     0.163 HD
BRANCH  17  19
HETATM   19  C1  UNL     1      -5.133  30.098 -11.023  1.00  0.00     0.349 C
HETATM   20  O1  UNL     1      -5.042  28.900 -10.696  1.00  0.00    -0.284 OA
ENDBRANCH  17  19
ENDBRANCH  16  17
ENDBRANCH  13  16
ENDBRANCH  12  13
ENDBRANCH  11  12
ENDBRANCH  10  11
ENDBRANCH   7  10
ENDBRANCH   6   7
ENDBRANCH   5   6
ENDBRANCH   4   5
ENDBRANCH   1   4
BRANCH   1  21
HETATM   21  C9  UNL     1     -10.783  29.879  -3.369  1.00  0.00     0.255 C
BRANCH  21  22
HETATM   22  C10 UNL     1     -11.772  28.968  -4.094  1.00  0.00     0.134 C
HETATM   23  C11 UNL     1     -11.109  27.617  -4.163  1.00  0.00     0.129 C
HETATM   24  C12 UNL     1     -12.261  26.674  -4.064  1.00  0.00     0.236 C
HETATM   25  O2  UNL     1     -12.102  25.441  -4.200  1.00  0.00    -0.272 OA
HETATM   26  N5  UNL     1     -13.412  27.453  -3.814  1.00  0.00    -0.264 N
HETATM   27  N6  UNL     1     -12.992  28.756  -3.394  1.00  0.00    -0.129 NA
BRANCH  26  28
HETATM   28  C13 UNL     1     -14.767  27.018  -3.948  1.00  0.00     0.152 C
BRANCH  28  29
HETATM   29  C14 UNL     1     -15.838  28.030  -3.978  1.00  0.00     0.060 C
BRANCH  29  30
HETATM   30  C15 UNL     1     -16.553  28.174  -2.722  1.00  0.00    -0.057 A
HETATM   31  C16 UNL     1     -17.778  28.859  -2.687  1.00  0.00     0.007 A
HETATM   32  C17 UNL     1     -18.466  28.993  -1.500  1.00  0.00     0.001 A
HETATM   33  C18 UNL     1     -17.987  28.468  -0.321  1.00  0.00     0.000 A
HETATM   34  C19 UNL     1     -16.784  27.796  -0.365  1.00  0.00     0.001 A
HETATM   35  C20 UNL     1     -16.066  27.646  -1.548  1.00  0.00     0.007 A
ENDBRANCH  29  30
ENDBRANCH  28  29
ENDBRANCH  26  28
ENDBRANCH  21  22
ENDBRANCH   1  21
TORSDOF 16
ENDMDL