MODEL 4
REMARK VINA RESULT: -6.147819199      2.457      8.893
REMARK  19 active torsions:
REMARK  status: ('A' for Active; 'I' for Inactive)
REMARK    1  A    between atoms: O1_2  and  C2_3
REMARK    2  A    between atoms: C2_3  and  C3_4
REMARK    3  A    between atoms: C4_5  and  C5_6
REMARK    4  A    between atoms: C5_6  and  N1_7
REMARK    5  A    between atoms: N1_7  and  C6_10
REMARK    6  A    between atoms: C6_10  and  C7_11
REMARK    7  A    between atoms: C7_11  and  C8_12
REMARK    8  A    between atoms: C8_12  and  N2_13
REMARK    9  A    between atoms: N2_13  and  C9_14
REMARK   10  A    between atoms: C13_20  and  N4_21
REMARK   11  A    between atoms: N4_21  and  C14_23
REMARK   12  A    between atoms: C14_23  and  C15_24
REMARK   13  A    between atoms: C15_24  and  N5_25
REMARK   14  A    between atoms: N5_25  and  C16_27
REMARK   15  A    between atoms: C16_27  and  C17_28
REMARK   16  A    between atoms: C17_28  and  C18_29
REMARK   17  A    between atoms: C18_29  and  C19_30
REMARK   18  A    between atoms: C19_30  and  N6_31
REMARK   19  A    between atoms: N6_31  and  C20_33
ROOT
HETATM    1  C9  UNL     1      -8.686  29.706  -3.479  1.00  0.00     0.260 A
HETATM    2  N3  UNL     1      -8.943  30.239  -4.711  1.00  0.00    -0.320 N
ATOM      3  H3  UNL     1      -8.179  30.702  -5.203  1.00  0.00     0.169 HD
HETATM    4  C10 UNL     1     -10.126  30.190  -5.302  1.00  0.00     0.013 A
HETATM    5  C11 UNL     1     -10.382  30.782  -6.658  1.00  0.00     0.068 C
HETATM    6  C12 UNL     1     -11.163  29.580  -4.672  1.00  0.00     0.073 A
HETATM    7  C13 UNL     1     -10.955  29.018  -3.412  1.00  0.00     0.106 A
HETATM    8  N7  UNL     1      -9.755  29.102  -2.882  1.00  0.00    -0.302 N
ATOM      9  H7  UNL     1      -9.613  28.687  -1.961  1.00  0.00     0.171 HD
ENDROOT
BRANCH   7  10
HETATM   10  N4  UNL     1     -11.979  28.459  -2.880  1.00  0.00    -0.375 N
ATOM     11  H4  UNL     1     -12.570  28.971  -2.224  1.00  0.00     0.161 HD
BRANCH  10  12
HETATM   12  C14 UNL     1     -12.280  27.086  -3.228  1.00  0.00     0.141 C
BRANCH  12  13
HETATM   13  C15 UNL     1     -13.724  27.013  -3.566  1.00  0.00     0.138 C
BRANCH  13  14
HETATM   14  N5  UNL     1     -14.436  28.286  -3.559  1.00  0.00    -0.398 N
ATOM     15  H5  UNL     1     -14.027  29.178  -3.280  1.00  0.00     0.158 HD
BRANCH  14  16
HETATM   16  C16 UNL     1     -15.765  28.114  -3.992  1.00  0.00     0.079 C
BRANCH  16  17
HETATM   17  C17 UNL     1     -16.876  28.098  -3.040  1.00  0.00    -0.008 C
BRANCH  17  18
HETATM   18  C18 UNL     1     -16.776  28.615  -1.676  1.00  0.00     0.048 C
BRANCH  18  19
HETATM   19  C19 UNL     1     -16.596  27.679  -0.535  1.00  0.00     0.126 C
BRANCH  19  20
HETATM   20  N6  UNL     1     -15.165  27.617  -0.249  1.00  0.00    -0.368 N
ATOM     21  H6  UNL     1     -14.664  26.729  -0.252  1.00  0.00     0.161 HD
BRANCH  20  22
HETATM   22  C20 UNL     1     -14.497  28.830   0.032  1.00  0.00     0.348 C
HETATM   23  O2  UNL     1     -13.556  29.233  -0.661  1.00  0.00    -0.284 OA
ENDBRANCH  20  22
ENDBRANCH  19  20
ENDBRANCH  18  19
ENDBRANCH  17  18
ENDBRANCH  16  17
ENDBRANCH  14  16
ENDBRANCH  13  14
ENDBRANCH  12  13
ENDBRANCH  10  12
ENDBRANCH   7  10
BRANCH   1  24
HETATM   24  N2  UNL     1      -7.594  29.792  -3.003  1.00  0.00    -0.388 NA
BRANCH  24  25
HETATM   25  C8  UNL     1      -6.336  29.846  -2.586  1.00  0.00     0.160 C
BRANCH  25  26
HETATM   26  C7  UNL     1      -5.749  31.218  -2.252  1.00  0.00     0.087 C
BRANCH  26  27
HETATM   27  C6  UNL     1      -5.846  32.120  -3.451  1.00  0.00     0.239 C
BRANCH  27  28
HETATM   28  N1  UNL     1      -5.549  31.480  -4.701  1.00  0.00    -0.065 N
ATOM     29  H12 UNL     1      -5.987  30.561  -4.767  1.00  0.00     0.278 HD
ATOM     30  H11 UNL     1      -4.573  31.190  -4.754  1.00  0.00     0.278 HD
BRANCH  28  31
HETATM   31  C5  UNL     1      -5.921  32.337  -5.825  1.00  0.00     0.325 C
BRANCH  31  32
HETATM   32  C4  UNL     1      -6.397  31.492  -6.947  1.00  0.00    -0.077 C
HETATM   33  C3  UNL     1      -6.791  30.791  -7.844  1.00  0.00    -0.079 C
BRANCH  33  34
HETATM   34  C2  UNL     1      -7.280  29.915  -8.925  1.00  0.00     0.260 C
BRANCH  34  35
HETATM   35  O1  UNL     1      -6.247  29.211  -9.536  1.00  0.00    -0.384 OA
HETATM   36  C1  UNL     1      -5.606  30.108 -10.390  1.00  0.00     0.202 C
ENDBRANCH  34  35
ENDBRANCH  33  34
ENDBRANCH  31  32
ENDBRANCH  28  31
ENDBRANCH  27  28
ENDBRANCH  26  27
ENDBRANCH  25  26
ENDBRANCH  24  25
ENDBRANCH   1  24
TORSDOF 19
ENDMDL