MODEL 2
REMARK VINA RESULT: -6.656442880      2.281      3.696
REMARK  16 active torsions:
REMARK  status: ('A' for Active; 'I' for Inactive)
REMARK    1  A    between atoms: N1_1  and  C1_5
REMARK    2  A    between atoms: C1_5  and  C2_6
REMARK    3  A    between atoms: C2_6  and  C3_7
REMARK    4  A    between atoms: C3_7  and  N2_8
REMARK    5  A    between atoms: N2_8  and  C4_9
REMARK    6  A    between atoms: N2_8  and  C7_14
REMARK    7  A    between atoms: C4_9  and  C5_10
REMARK    8  A    between atoms: C5_10  and  C6_11
REMARK    9  A    between atoms: C7_14  and  C8_15
REMARK   10  A    between atoms: C8_15  and  C9_16
REMARK   11  A    between atoms: C13_20  and  C14_21
REMARK   12  A    between atoms: C14_21  and  C15_22
REMARK   13  A    between atoms: C15_22  and  C16_23
REMARK   14  A    between atoms: C17_26  and  C18_27
REMARK   15  A    between atoms: C18_27  and  C19_28
REMARK   16  A    between atoms: C19_28  and  N5_29
ROOT
HETATM    1  C9  UNL     1     -10.108  30.072  -3.630  1.00  0.00     0.188 C
HETATM    2  C10 UNL     1      -9.529  29.315  -4.792  1.00  0.00     0.039 C
HETATM    3  C11 UNL     1      -8.053  29.240  -4.423  1.00  0.00     0.019 C
HETATM    4  C12 UNL     1      -7.308  30.451  -4.824  1.00  0.00     0.011 C
HETATM    5  C13 UNL     1      -6.295  30.753  -3.722  1.00  0.00    -0.008 C
HETATM    6  C17 UNL     1      -6.889  30.076  -2.496  1.00  0.00     0.022 C
HETATM    7  C20 UNL     1      -8.051  29.247  -2.934  1.00  0.00     0.195 C
HETATM    8  N6  UNL     1      -9.320  29.776  -2.486  1.00  0.00    -0.066 N
ATOM      9  H61 UNL     1      -9.795  29.154  -1.831  1.00  0.00     0.278 HD
ATOM     10  H62 UNL     1      -9.214  30.577  -1.864  1.00  0.00     0.278 HD
ENDROOT
BRANCH   1  11
HETATM   11  C8  UNL     1     -11.580  29.942  -3.489  1.00  0.00     0.063 C
BRANCH  11  12
HETATM   12  C7  UNL     1     -12.192  28.911  -4.372  1.00  0.00     0.274 C
BRANCH  12  13
HETATM   13  N2  UNL     1     -13.260  28.212  -3.641  1.00  0.00     0.088 N
BRANCH  13  14
HETATM   14  C3  UNL     1     -13.103  26.822  -3.742  1.00  0.00     0.274 C
BRANCH  14  15
HETATM   15  C2  UNL     1     -11.849  26.359  -4.475  1.00  0.00     0.057 C
BRANCH  15  16
HETATM   16  C1  UNL     1     -10.938  25.526  -3.638  1.00  0.00     0.231 C
BRANCH  16  17
HETATM   17  N1  UNL     1     -10.391  26.417  -2.592  1.00  0.00    -0.079 N
ATOM     18  H13 UNL     1     -10.932  27.273  -2.467  1.00  0.00     0.274 HD
ATOM     19  H12 UNL     1     -10.512  26.051  -1.648  1.00  0.00     0.274 HD
ATOM     20  H11 UNL     1      -9.415  26.589  -2.836  1.00  0.00     0.274 HD
ENDBRANCH  16  17
ENDBRANCH  15  16
ENDBRANCH  14  15
ENDBRANCH  13  14
BRANCH  13  21
HETATM   21  C4  UNL     1     -13.493  28.833  -2.398  1.00  0.00     0.281 C
BRANCH  21  22
HETATM   22  C5  UNL     1     -14.883  28.786  -1.892  1.00  0.00     0.129 C
BRANCH  22  23
HETATM   23  C6  UNL     1     -15.130  28.264  -0.558  1.00  0.00     0.232 C
HETATM   24  N3  UNL     1     -16.233  27.416  -0.286  1.00  0.00    -0.062 NA
HETATM   25  O1  UNL     1     -14.376  28.551   0.414  1.00  0.00    -0.277 OA
ENDBRANCH  22  23
ENDBRANCH  21  22
ENDBRANCH  13  21
ENDBRANCH  12  13
ENDBRANCH  11  12
ENDBRANCH   1  11
BRANCH   6  26
HETATM   26  C18 UNL     1      -5.813  29.270  -1.823  1.00  0.00     0.034 C
BRANCH  26  27
HETATM   27  C19 UNL     1      -5.357  29.878  -0.506  1.00  0.00     0.230 C
BRANCH  27  28
HETATM   28  N5  UNL     1      -6.463  29.918   0.441  1.00  0.00    -0.079 N
ATOM     29  H53 UNL     1      -7.219  30.523   0.118  1.00  0.00     0.274 HD
ATOM     30  H52 UNL     1      -6.976  29.037   0.465  1.00  0.00     0.274 HD
ATOM     31  H51 UNL     1      -6.127  30.189   1.365  1.00  0.00     0.274 HD
ENDBRANCH  27  28
ENDBRANCH  26  27
ENDBRANCH   6  26
BRANCH   5  32
HETATM   32  C14 UNL     1      -6.247  32.252  -3.510  1.00  0.00     0.014 C
BRANCH  32  33
HETATM   33  C15 UNL     1      -7.370  33.017  -4.126  1.00  0.00     0.100 C
BRANCH  33  34
HETATM   34  C16 UNL     1      -8.331  33.534  -3.130  1.00  0.00     0.231 C
HETATM   35  N4  UNL     1      -8.786  34.897  -3.265  1.00  0.00    -0.062 NA
HETATM   36  O2  UNL     1      -8.767  32.864  -2.187  1.00  0.00    -0.277 OA
ENDBRANCH  33  34
ENDBRANCH  32  33
ENDBRANCH   5  32
TORSDOF 16
ENDMDL