MODEL 2
REMARK VINA RESULT: -6.803689771      1.040      1.263
REMARK  15 active torsions:
REMARK  status: ('A' for Active; 'I' for Inactive)
REMARK    1  A    between atoms: N1_1  and  C1_5
REMARK    2  A    between atoms: C1_5  and  C2_6
REMARK    3  A    between atoms: C2_6  and  N2_7
REMARK       I    between atoms: C3_9  and  N4_11
REMARK    4  A    between atoms: N4_11  and  C4_13
REMARK    5  A    between atoms: C4_13  and  C5_14
REMARK    6  A    between atoms: C5_14  and  C6_15
REMARK    7  A    between atoms: N5_20  and  C10_21
REMARK    8  A    between atoms: C11_22  and  C12_23
REMARK    9  A    between atoms: C12_23  and  C13_24
REMARK   10  A    between atoms: C13_24  and  O2_25
REMARK   11  A    between atoms: O2_25  and  C14_26
REMARK   12  A    between atoms: C14_26  and  C15_27
REMARK   13  A    between atoms: C15_27  and  N6_28
REMARK   14  A    between atoms: N6_28  and  C16_31
REMARK   15  A    between atoms: C16_31  and  C17_32
ROOT
HETATM    1  C6  UNL     1      -5.414  31.671  -1.838  1.00  0.00     0.094 C
HETATM    2  C7  UNL     1      -4.802  30.359  -1.456  1.00  0.00     0.035 C
HETATM    3  C8  UNL     1      -3.354  30.787  -1.202  1.00  0.00     0.105 C
HETATM    4  C9  UNL     1      -3.180  31.885  -2.175  1.00  0.00     0.224 C
HETATM    5  O1  UNL     1      -2.072  32.426  -2.428  1.00  0.00    -0.273 OA
HETATM    6  N5  UNL     1      -4.458  32.235  -2.780  1.00  0.00    -0.324 N
ENDROOT
BRANCH   6   7
HETATM    7  C10 UNL     1      -4.625  33.061  -3.924  1.00  0.00     0.090 C
HETATM    8  C11 UNL     1      -4.706  32.605  -5.288  1.00  0.00    -0.007 C
BRANCH   8   9
HETATM    9  C12 UNL     1      -5.677  31.670  -5.847  1.00  0.00     0.054 C
BRANCH   9  10
HETATM   10  C13 UNL     1      -6.112  31.964  -7.227  1.00  0.00     0.171 C
BRANCH  10  11
HETATM   11  O2  UNL     1      -6.699  30.840  -7.828  1.00  0.00    -0.389 OA
BRANCH  11  12
HETATM   12  C14 UNL     1      -6.499  30.754  -9.181  1.00  0.00     0.195 C
BRANCH  12  13
HETATM   13  C15 UNL     1      -6.976  32.063  -9.792  1.00  0.00     0.258 C
BRANCH  13  14
HETATM   14  N6  UNL     1      -8.402  31.919 -10.016  1.00  0.00    -0.068 N
ATOM     15  H62 UNL     1      -8.618  31.952 -11.012  1.00  0.00     0.277 HD
ATOM     16  H61 UNL     1      -8.708  30.968  -9.810  1.00  0.00     0.277 HD
BRANCH  14  17
HETATM   17  C16 UNL     1      -9.187  32.876  -9.292  1.00  0.00     0.290 C
BRANCH  17  18
HETATM   18  C17 UNL     1     -10.100  32.128  -8.393  1.00  0.00     0.051 A
HETATM   19  C18 UNL     1     -11.393  32.445  -8.062  1.00  0.00     0.115 A
HETATM   20  N7  UNL     1     -11.845  31.509  -7.229  1.00  0.00    -0.360 N
HETATM   21  C19 UNL     1     -10.854  30.626  -7.045  1.00  0.00     0.180 A
ATOM     22  H7  UNL     1     -12.774  31.473  -6.809  1.00  0.00     0.166 HD
HETATM   23  N8  UNL     1      -9.790  30.995  -7.749  1.00  0.00    -0.353 N
ATOM     24  H8  UNL     1      -8.897  30.505  -7.792  1.00  0.00     0.166 HD
ENDBRANCH  17  18
ENDBRANCH  14  17
ENDBRANCH  13  14
ENDBRANCH  12  13
ENDBRANCH  11  12
ENDBRANCH  10  11
ENDBRANCH   9  10
ENDBRANCH   8   9
ENDBRANCH   6   7
BRANCH   1  25
HETATM   25  C5  UNL     1      -6.821  31.636  -2.292  1.00  0.00     0.045 C
BRANCH  25  26
HETATM   26  C4  UNL     1      -7.128  30.252  -2.819  1.00  0.00     0.124 C
BRANCH  26  27
HETATM   27  N4  UNL     1      -8.292  29.692  -2.176  1.00  0.00    -0.365 N
HETATM   28  C3  UNL     1      -9.492  29.606  -2.933  1.00  0.00     0.184 C
HETATM   29  N2  UNL     1      -9.977  28.478  -3.307  1.00  0.00    -0.363 N
HETATM   30  N3  UNL     1     -10.173  30.793  -3.284  1.00  0.00    -0.064 NA
ATOM     31  H2  UNL     1      -9.487  27.619  -3.055  1.00  0.00     0.162 HD
ATOM     32  H4  UNL     1      -8.256  29.368  -1.210  1.00  0.00     0.162 HD
BRANCH  29  33
HETATM   33  C2  UNL     1     -11.190  28.391  -4.072  1.00  0.00     0.149 C
BRANCH  33  34
HETATM   34  C1  UNL     1     -12.128  27.316  -3.572  1.00  0.00     0.249 C
BRANCH  34  35
HETATM   35  N1  UNL     1     -12.043  27.130  -2.147  1.00  0.00    -0.078 N
ATOM     36  H13 UNL     1     -11.638  26.222  -1.920  1.00  0.00     0.274 HD
ATOM     37  H12 UNL     1     -11.329  27.735  -1.740  1.00  0.00     0.274 HD
ATOM     38  H11 UNL     1     -12.942  27.258  -1.682  1.00  0.00     0.274 HD
ENDBRANCH  34  35
ENDBRANCH  33  34
ENDBRANCH  29  33
ENDBRANCH  26  27
ENDBRANCH  25  26
ENDBRANCH   1  25
TORSDOF 15
ENDMDL