MODEL 5
REMARK VINA RESULT: -5.911442400      3.453      6.141
REMARK  17 active torsions:
REMARK  status: ('A' for Active; 'I' for Inactive)
REMARK    1  A    between atoms: N1_2  and  C2_3
REMARK    2  A    between atoms: C2_3  and  O1_4
REMARK    3  A    between atoms: O1_4  and  C3_5
REMARK       I    between atoms: C3_5  and  N2_7
REMARK    4  A    between atoms: N2_7  and  C4_9
REMARK    5  A    between atoms: C4_9  and  C5_10
REMARK    6  A    between atoms: C4_9  and  C14_23
REMARK    7  A    between atoms: C5_10  and  C6_11
REMARK    8  A    between atoms: C6_11  and  C7_12
REMARK    9  A    between atoms: C8_13  and  C9_14
REMARK   10  A    between atoms: C9_14  and  C10_15
REMARK   11  A    between atoms: C11_16  and  C12_17
REMARK   12  A    between atoms: N4_19  and  C13_21
REMARK   13  A    between atoms: C14_23  and  C15_24
REMARK   14  A    between atoms: C15_24  and  N5_25
REMARK   15  A    between atoms: N5_25  and  N6_27
REMARK   16  A    between atoms: C16_29  and  N7_30
REMARK   17  A    between atoms: N7_30  and  N8_32
ROOT
HETATM    1  C4  UNL     1      -7.756  30.828  -4.877  1.00  0.00     0.088 C
ENDROOT
BRANCH   1   2
HETATM    2  N2  UNL     1      -8.805  30.184  -4.042  1.00  0.00    -0.332 N
HETATM    3  C3  UNL     1     -10.093  30.750  -4.076  1.00  0.00     0.362 C
HETATM    4  O2  UNL     1     -10.436  31.747  -4.751  1.00  0.00    -0.238 OA
ATOM      5  H2  UNL     1      -8.600  29.366  -3.469  1.00  0.00     0.165 HD
BRANCH   3   6
HETATM    6  O1  UNL     1     -11.084  30.168  -3.299  1.00  0.00    -0.276 OA
BRANCH   6   7
HETATM    7  C2  UNL     1     -12.238  29.566  -3.884  1.00  0.00     0.416 C
BRANCH   7   8
HETATM    8  N1  UNL     1     -12.631  28.398  -3.136  1.00  0.00    -0.046 N
HETATM    9  C1  UNL     1     -13.403  28.657  -1.952  1.00  0.00     0.275 C
HETATM   10  C17 UNL     1     -12.985  27.269  -3.978  1.00  0.00     0.267 A
HETATM   11  C18 UNL     1     -11.769  27.229  -3.167  1.00  0.00     0.267 A
ENDBRANCH   7   8
ENDBRANCH   6   7
ENDBRANCH   3   6
ENDBRANCH   1   2
BRANCH   1  12
HETATM   12  C5  UNL     1      -6.529  30.816  -4.053  1.00  0.00     0.029 C
BRANCH  12  13
HETATM   13  C6  UNL     1      -6.920  30.308  -2.641  1.00  0.00     0.029 C
BRANCH  13  14
HETATM   14  C7  UNL     1      -5.978  29.334  -2.107  1.00  0.00    -0.030 C
HETATM   15  C8  UNL     1      -4.891  29.645  -1.459  1.00  0.00    -0.027 C
BRANCH  15  16
HETATM   16  C9  UNL     1      -4.440  31.015  -1.160  1.00  0.00     0.054 C
BRANCH  16  17
HETATM   17  C10 UNL     1      -3.015  31.172  -1.666  1.00  0.00    -0.020 C
HETATM   18  C11 UNL     1      -2.050  30.776  -0.902  1.00  0.00     0.041 C
BRANCH  18  19
HETATM   19  C12 UNL     1      -0.632  30.814  -1.144  1.00  0.00     0.117 C
HETATM   20  N3  UNL     1      -0.173  31.855  -2.059  1.00  0.00    -0.083 NA
HETATM   21  N4  UNL     1       0.292  30.091  -0.691  1.00  0.00    -0.323 N
ATOM     22  H4  UNL     1       1.234  30.314  -1.011  1.00  0.00     0.169 HD
BRANCH  21  23
HETATM   23  C13 UNL     1       0.186  29.036   0.183  1.00  0.00     0.354 C
HETATM   24  O3  UNL     1       0.289  29.248   1.422  1.00  0.00    -0.283 OA
ENDBRANCH  21  23
ENDBRANCH  18  19
ENDBRANCH  16  17
ENDBRANCH  15  16
ENDBRANCH  13  14
ENDBRANCH  12  13
ENDBRANCH   1  12
BRANCH   1  25
HETATM   25  C14 UNL     1      -7.724  30.070  -6.176  1.00  0.00     0.046 C
BRANCH  25  26
HETATM   26  C15 UNL     1      -8.156  30.828  -7.355  1.00  0.00     0.141 C
BRANCH  26  27
HETATM   27  N5  UNL     1      -9.550  30.806  -7.677  1.00  0.00    -0.335 N
ATOM     28  H5  UNL     1     -10.139  30.037  -7.358  1.00  0.00     0.180 HD
BRANCH  27  29
HETATM   29  N6  UNL     1     -10.095  31.842  -8.430  1.00  0.00    -0.299 N
HETATM   30  C16 UNL     1     -11.303  32.206  -8.229  1.00  0.00     0.212 C
ATOM     31  H6  UNL     1      -9.531  32.309  -9.140  1.00  0.00     0.187 HD
BRANCH  30  32
HETATM   32  N7  UNL     1     -12.068  31.544  -7.238  1.00  0.00    -0.301 N
ATOM     33  H7  UNL     1     -12.005  30.532  -7.127  1.00  0.00     0.187 HD
BRANCH  32  34
HETATM   34  N8  UNL     1     -12.907  32.295  -6.417  1.00  0.00    -0.344 N
ATOM     35  H82 UNL     1     -12.660  32.430  -5.437  1.00  0.00     0.176 HD
ATOM     36  H81 UNL     1     -13.757  32.697  -6.812  1.00  0.00     0.176 HD
ENDBRANCH  32  34
ENDBRANCH  30  32
ENDBRANCH  27  29
ENDBRANCH  26  27
ENDBRANCH  25  26
ENDBRANCH   1  25
TORSDOF 17
ENDMDL