MODEL 5
REMARK VINA RESULT: -6.340687356      3.438      5.539
REMARK  16 active torsions:
REMARK  status: ('A' for Active; 'I' for Inactive)
REMARK    1  A    between atoms: N1_2  and  C2_3
REMARK    2  A    between atoms: N1_2  and  C15_26
REMARK    3  A    between atoms: C2_3  and  C3_4
REMARK    4  A    between atoms: C3_4  and  C4_5
REMARK    5  A    between atoms: C4_5  and  C5_6
REMARK    6  A    between atoms: C5_6  and  C6_7
REMARK    7  A    between atoms: C6_7  and  C7_8
REMARK    8  A    between atoms: C7_8  and  C8_9
REMARK    9  A    between atoms: C8_9  and  C9_10
REMARK   10  A    between atoms: C9_10  and  C10_11
REMARK   11  A    between atoms: C10_11  and  C11_12
REMARK   12  A    between atoms: C11_12  and  N2_13
REMARK   13  A    between atoms: N2_13  and  C12_15
REMARK   14  A    between atoms: C15_26  and  C16_27
REMARK   15  A    between atoms: C16_27  and  C17_28
REMARK   16  A    between atoms: C17_28  and  N6_29
ROOT
HETATM    1  C8  UNL     1      -7.210  30.419  -5.409  1.00  0.00     0.000 C
ENDROOT
BRANCH   1   2
HETATM    2  C7  UNL     1      -6.680  31.101  -6.694  1.00  0.00     0.000 C
BRANCH   2   3
HETATM    3  C6  UNL     1      -7.209  30.385  -7.879  1.00  0.00     0.000 C
BRANCH   3   4
HETATM    4  C5  UNL     1      -6.469  30.569  -9.136  1.00  0.00     0.000 C
BRANCH   4   5
HETATM    5  C4  UNL     1      -7.064  31.379 -10.198  1.00  0.00     0.002 C
BRANCH   5   6
HETATM    6  C3  UNL     1      -6.937  32.854 -10.202  1.00  0.00     0.020 C
BRANCH   6   7
HETATM    7  C2  UNL     1      -8.304  33.514  -9.880  1.00  0.00     0.121 C
BRANCH   7   8
HETATM    8  N1  UNL     1      -8.417  33.863  -8.535  1.00  0.00    -0.398 N
HETATM    9  C1  UNL     1      -7.327  34.487  -7.953  1.00  0.00     0.148 C
BRANCH   8  10
HETATM   10  C15 UNL     1      -9.529  33.417  -7.858  1.00  0.00     0.059 C
BRANCH  10  11
HETATM   11  C16 UNL     1     -10.403  32.422  -8.591  1.00  0.00     0.064 C
BRANCH  11  12
HETATM   12  C17 UNL     1     -11.289  31.642  -7.660  1.00  0.00     0.127 C
BRANCH  12  13
HETATM   13  N6  UNL     1     -12.608  32.170  -7.499  1.00  0.00    -0.367 N
HETATM   14  C18 UNL     1     -13.134  32.641  -6.438  1.00  0.00     0.196 C
HETATM   15  N7  UNL     1     -14.453  33.140  -6.388  1.00  0.00    -0.067 NA
HETATM   16  N8  UNL     1     -12.375  32.676  -5.236  1.00  0.00    -0.067 NA
ATOM     17  H6  UNL     1     -13.196  32.170  -8.332  1.00  0.00     0.161 HD
ENDBRANCH  12  13
ENDBRANCH  11  12
ENDBRANCH  10  11
ENDBRANCH   8  10
ENDBRANCH   7   8
ENDBRANCH   6   7
ENDBRANCH   5   6
ENDBRANCH   4   5
ENDBRANCH   3   4
ENDBRANCH   2   3
ENDBRANCH   1   2
BRANCH   1  18
HETATM   18  C9  UNL     1      -8.618  30.834  -5.200  1.00  0.00     0.002 C
BRANCH  18  19
HETATM   19  C10 UNL     1      -8.904  31.140  -3.731  1.00  0.00     0.020 C
BRANCH  19  20
HETATM   20  C11 UNL     1      -9.940  30.187  -3.156  1.00  0.00     0.138 C
BRANCH  20  21
HETATM   21  N2  UNL     1     -11.099  30.170  -3.970  1.00  0.00    -0.225 N
ATOM     22  H2  UNL     1     -11.161  30.925  -4.653  1.00  0.00     0.177 HD
BRANCH  21  23
HETATM   23  C12 UNL     1     -12.077  29.352  -3.975  1.00  0.00     0.695 A
HETATM   24  N3  UNL     1     -13.358  29.808  -3.921  1.00  0.00    -0.129 N
HETATM   25  N4  UNL     1     -14.388  28.986  -3.928  1.00  0.00    -0.247 N
ATOM     26  H3  UNL     1     -13.525  30.813  -3.873  1.00  0.00     0.205 HD
HETATM   27  C13 UNL     1     -14.245  27.652  -3.989  1.00  0.00     0.329 A
ATOM     28  H4  UNL     1     -15.329  29.378  -3.885  1.00  0.00     0.191 HD
HETATM   29  O1  UNL     1     -15.240  26.867  -3.995  1.00  0.00    -0.261 OA
HETATM   30  C14 UNL     1     -12.958  27.166  -4.045  1.00  0.00     0.329 A
HETATM   31  O2  UNL     1     -12.808  25.920  -4.102  1.00  0.00    -0.261 OA
HETATM   32  N5  UNL     1     -11.901  28.031  -4.037  1.00  0.00    -0.150 N
ATOM     33  H5  UNL     1     -10.954  27.657  -4.080  1.00  0.00     0.188 HD
ENDBRANCH  21  23
ENDBRANCH  20  21
ENDBRANCH  19  20
ENDBRANCH  18  19
ENDBRANCH   1  18
TORSDOF 16
ENDMDL