MODEL 5
REMARK VINA RESULT: -6.698351993      2.085      4.154
REMARK  15 active torsions:
REMARK  status: ('A' for Active; 'I' for Inactive)
REMARK    1  A    between atoms: N1_1  and  C1_5
REMARK    2  A    between atoms: C1_5  and  C2_6
REMARK    3  A    between atoms: C2_6  and  C3_7
REMARK    4  A    between atoms: C3_7  and  N2_8
REMARK    5  A    between atoms: C5_11  and  C6_12
REMARK    6  A    between atoms: C6_12  and  C7_13
REMARK    7  A    between atoms: C7_13  and  C8_14
REMARK    8  A    between atoms: C8_14  and  C9_15
REMARK    9  A    between atoms: C9_15  and  C10_16
REMARK   10  A    between atoms: C10_16  and  C11_17
REMARK   11  A    between atoms: C11_17  and  C12_18
REMARK   12  A    between atoms: C12_18  and  C13_19
REMARK   13  A    between atoms: C13_19  and  N3_20
REMARK   14  A    between atoms: N3_20  and  C14_22
REMARK   15  A    between atoms: C15_27  and  C16_28
ROOT
HETATM    1  N2  UNL     1     -10.393  30.128  -3.893  1.00  0.00    -0.321 N
HETATM    2  C4  UNL     1      -9.307  30.857  -3.265  1.00  0.00     0.252 C
HETATM    3  O1  UNL     1      -9.289  32.107  -3.084  1.00  0.00    -0.271 OA
HETATM    4  C5  UNL     1      -8.305  29.840  -2.920  1.00  0.00     0.279 C
HETATM    5  N4  UNL     1      -9.005  28.605  -2.914  1.00  0.00    -0.040 N
ATOM      6  H41 UNL     1      -8.953  28.142  -2.006  1.00  0.00     0.280 HD
ATOM      7  H42 UNL     1      -8.531  27.894  -3.470  1.00  0.00     0.280 HD
HETATM    8  C15 UNL     1     -10.368  28.806  -3.341  1.00  0.00     0.303 C
ENDROOT
BRANCH   4   9
HETATM    9  C6  UNL     1      -7.166  29.761  -3.903  1.00  0.00     0.043 C
BRANCH   9  10
HETATM   10  C7  UNL     1      -7.587  29.932  -5.322  1.00  0.00     0.002 C
BRANCH  10  11
HETATM   11  C8  UNL     1      -6.781  30.936  -6.089  1.00  0.00     0.000 C
BRANCH  11  12
HETATM   12  C9  UNL     1      -6.400  32.147  -5.311  1.00  0.00     0.000 C
BRANCH  12  13
HETATM   13  C10 UNL     1      -4.868  32.363  -5.382  1.00  0.00     0.000 C
BRANCH  13  14
HETATM   14  C11 UNL     1      -4.369  32.871  -4.081  1.00  0.00     0.002 C
BRANCH  14  15
HETATM   15  C12 UNL     1      -4.306  31.866  -2.999  1.00  0.00     0.020 C
BRANCH  15  16
HETATM   16  C13 UNL     1      -5.096  32.181  -1.788  1.00  0.00     0.122 C
BRANCH  16  17
HETATM   17  N3  UNL     1      -5.458  31.101  -0.924  1.00  0.00    -0.368 N
ATOM     18  H3  UNL     1      -6.246  31.235  -0.290  1.00  0.00     0.161 HD
BRANCH  17  19
HETATM   19  C14 UNL     1      -4.786  29.859  -0.899  1.00  0.00     0.348 C
HETATM   20  O2  UNL     1      -5.423  28.792  -0.993  1.00  0.00    -0.284 OA
ENDBRANCH  17  19
ENDBRANCH  16  17
ENDBRANCH  15  16
ENDBRANCH  14  15
ENDBRANCH  13  14
ENDBRANCH  12  13
ENDBRANCH  11  12
ENDBRANCH  10  11
ENDBRANCH   9  10
ENDBRANCH   4   9
BRANCH   1  21
HETATM   21  C3  UNL     1     -11.230  30.778  -4.865  1.00  0.00     0.130 C
BRANCH  21  22
HETATM   22  C2  UNL     1     -10.664  30.642  -6.287  1.00  0.00     0.047 C
BRANCH  22  23
HETATM   23  C1  UNL     1     -10.648  32.075  -6.835  1.00  0.00     0.231 C
BRANCH  23  24
HETATM   24  N1  UNL     1      -9.911  32.973  -6.002  1.00  0.00    -0.079 N
ATOM     25  H13 UNL     1     -10.132  32.823  -5.017  1.00  0.00     0.274 HD
ATOM     26  H12 UNL     1      -8.920  32.730  -5.986  1.00  0.00     0.274 HD
ATOM     27  H11 UNL     1     -10.045  33.949  -6.264  1.00  0.00     0.274 HD
ENDBRANCH  23  24
ENDBRANCH  22  23
ENDBRANCH  21  22
ENDBRANCH   1  21
BRANCH   8  28
HETATM   28  C16 UNL     1     -10.905  27.711  -4.176  1.00  0.00     0.137 C
HETATM   29  C17 UNL     1     -12.402  27.834  -4.327  1.00  0.00     0.121 C
HETATM   30  C18 UNL     1     -12.934  26.449  -4.122  1.00  0.00     0.225 C
HETATM   31  O3  UNL     1     -14.140  26.159  -4.118  1.00  0.00    -0.273 OA
HETATM   32  N5  UNL     1     -11.819  25.602  -3.945  1.00  0.00    -0.297 N
HETATM   33  C19 UNL     1     -10.660  26.368  -3.599  1.00  0.00     0.232 C
ATOM     34  H5  UNL     1     -11.836  24.587  -4.049  1.00  0.00     0.171 HD
HETATM   35  O4  UNL     1      -9.684  25.925  -2.945  1.00  0.00    -0.273 OA
ENDBRANCH   8  28
TORSDOF 15
ENDMDL