MODEL 1
REMARK VINA RESULT: -6.854002096      0.000      0.000
REMARK  16 active torsions:
REMARK  status: ('A' for Active; 'I' for Inactive)
REMARK    1  A    between atoms: C2_2  and  C3_3
REMARK    2  A    between atoms: C3_3  and  N1_4
REMARK    3  A    between atoms: N1_4  and  C4_7
REMARK    4  A    between atoms: C4_7  and  C5_8
REMARK    5  A    between atoms: C5_8  and  C6_9
REMARK    6  A    between atoms: C5_8  and  N2_12
REMARK    7  A    between atoms: C6_9  and  C7_10
REMARK    8  A    between atoms: N2_12  and  N3_13
REMARK       I    between atoms: N2_12  and  C10_17
REMARK    9  A    between atoms: C10_17  and  C11_19
REMARK   10  A    between atoms: C11_19  and  C12_20
REMARK   11  A    between atoms: C12_20  and  N5_21
REMARK   12  A    between atoms: N5_21  and  C13_23
REMARK   13  A    between atoms: C13_23  and  C14_24
REMARK   14  A    between atoms: C14_24  and  C15_25
REMARK   15  A    between atoms: C15_25  and  N6_26
REMARK   16  A    between atoms: N6_26  and  C16_28
ROOT
HETATM    1  N2  UNL     1      -8.812  31.338  -4.863  1.00  0.00    -0.230 N
HETATM    2  C10 UNL     1      -9.099  30.546  -3.748  1.00  0.00     0.244 C
HETATM    3  O1  UNL     1     -10.213  30.754  -3.139  1.00  0.00    -0.271 OA
ENDROOT
BRANCH   2   4
HETATM    4  C11 UNL     1      -8.266  29.473  -3.155  1.00  0.00     0.124 C
BRANCH   4   5
HETATM    5  C12 UNL     1      -8.734  28.101  -3.611  1.00  0.00     0.123 C
BRANCH   5   6
HETATM    6  N5  UNL     1      -9.886  27.648  -2.928  1.00  0.00    -0.421 N
ATOM      7  H5  UNL     1     -10.043  27.890  -1.949  1.00  0.00     0.153 HD
BRANCH   6   8
HETATM    8  C13 UNL     1     -10.816  26.848  -3.635  1.00  0.00     0.115 C
BRANCH   8   9
HETATM    9  C14 UNL     1     -12.083  27.594  -4.013  1.00  0.00     0.039 C
BRANCH   9  10
HETATM   10  C15 UNL     1     -13.265  26.648  -3.764  1.00  0.00     0.123 C
BRANCH  10  11
HETATM   11  N6  UNL     1     -14.486  27.374  -3.827  1.00  0.00    -0.376 N
ATOM     12  H6  UNL     1     -14.821  27.646  -4.752  1.00  0.00     0.161 HD
BRANCH  11  13
HETATM   13  C16 UNL     1     -15.206  27.719  -2.817  1.00  0.00     0.100 A
HETATM   14  C17 UNL     1     -16.506  28.133  -3.045  1.00  0.00     0.048 A
HETATM   15  C18 UNL     1     -17.356  28.520  -2.021  1.00  0.00     0.005 A
HETATM   16  C19 UNL     1     -16.907  28.498  -0.731  1.00  0.00     0.017 A
HETATM   17  C20 UNL     1     -15.607  28.081  -0.527  1.00  0.00     0.089 A
HETATM   18  N7  UNL     1     -14.782  27.704  -1.538  1.00  0.00    -0.353 N
ATOM     19  H7  UNL     1     -13.830  27.404  -1.327  1.00  0.00     0.166 HD
ENDBRANCH  11  13
ENDBRANCH  10  11
ENDBRANCH   9  10
ENDBRANCH   8   9
ENDBRANCH   6   8
ENDBRANCH   5   6
ENDBRANCH   4   5
ENDBRANCH   2   4
BRANCH   1  20
HETATM   20  C5  UNL     1      -7.685  31.305  -5.738  1.00  0.00     0.044 C
BRANCH  20  21
HETATM   21  C4  UNL     1      -7.793  30.179  -6.750  1.00  0.00     0.287 C
BRANCH  21  22
HETATM   22  N1  UNL     1      -7.841  30.625  -8.111  1.00  0.00    -0.067 N
ATOM     23  H12 UNL     1      -7.599  31.613  -8.177  1.00  0.00     0.277 HD
ATOM     24  H11 UNL     1      -8.804  30.664  -8.446  1.00  0.00     0.277 HD
BRANCH  22  25
HETATM   25  C3  UNL     1      -7.035  29.848  -8.984  1.00  0.00     0.259 C
BRANCH  25  26
HETATM   26  C2  UNL     1      -6.276  30.698  -9.917  1.00  0.00    -0.010 C
HETATM   27  C1  UNL     1      -5.330  30.136 -10.672  1.00  0.00     0.008 C
ENDBRANCH  25  26
ENDBRANCH  22  25
ENDBRANCH  21  22
ENDBRANCH  20  21
BRANCH  20  28
HETATM   28  C6  UNL     1      -6.355  31.510  -5.132  1.00  0.00     0.083 C
BRANCH  28  29
HETATM   29  C7  UNL     1      -5.320  32.124  -5.982  1.00  0.00    -0.031 C
HETATM   30  C8  UNL     1      -4.346  32.892  -5.450  1.00  0.00     0.007 C
ENDBRANCH  28  29
ENDBRANCH  20  28
ENDBRANCH   1  20
BRANCH   1  31
HETATM   31  N3  UNL     1      -9.810  32.321  -5.168  1.00  0.00    -0.289 N
HETATM   32  C9  UNL     1      -9.428  33.541  -5.123  1.00  0.00     0.207 C
HETATM   33  N4  UNL     1     -10.410  34.529  -5.424  1.00  0.00    -0.095 NA
ATOM     34  H3  UNL     1     -10.767  32.063  -5.405  1.00  0.00     0.188 HD
ENDBRANCH   1  31
TORSDOF 16
ENDMDL