MODEL 4
REMARK VINA RESULT: -6.718703467      3.594      8.886
REMARK  17 active torsions:
REMARK  status: ('A' for Active; 'I' for Inactive)
REMARK    1  A    between atoms: N1_2  and  C2_4
REMARK    2  A    between atoms: N1_2  and  C4_8
REMARK    3  A    between atoms: C2_4  and  C3_5
REMARK    4  A    between atoms: C3_5  and  O2_6
REMARK    5  A    between atoms: C4_8  and  C5_9
REMARK    6  A    between atoms: C5_9  and  C6_10
REMARK    7  A    between atoms: C6_10  and  C7_11
REMARK    8  A    between atoms: C7_11  and  C8_12
REMARK    9  A    between atoms: C8_12  and  N2_13
REMARK   10  A    between atoms: N2_13  and  C9_15
REMARK   11  A    between atoms: C9_15  and  C10_16
REMARK   12  A    between atoms: C9_15  and  C13_28
REMARK   13  A    between atoms: C10_16  and  C11_17
REMARK   14  A    between atoms: C12_22  and  N5_23
REMARK   15  A    between atoms: C13_28  and  N7_29
REMARK   16  A    between atoms: C17_33  and  C18_34
REMARK   17  A    between atoms: C18_34  and  O3_35
ROOT
HETATM    1  C9  UNL     1     -10.073  29.157  -4.299  1.00  0.00     0.106 C
ENDROOT
BRANCH   1   2
HETATM    2  N2  UNL     1     -10.660  27.918  -3.993  1.00  0.00    -0.396 N
ATOM      3  H2  UNL     1     -10.144  27.076  -4.247  1.00  0.00     0.159 HD
BRANCH   2   4
HETATM    4  C8  UNL     1     -11.887  27.757  -3.370  1.00  0.00     0.056 C
BRANCH   4   5
HETATM    5  C7  UNL     1     -12.753  26.577  -3.627  1.00  0.00     0.044 C
BRANCH   5   6
HETATM    6  C6  UNL     1     -14.151  26.906  -4.015  1.00  0.00     0.007 C
BRANCH   6   7
HETATM    7  C5  UNL     1     -14.680  28.034  -3.168  1.00  0.00     0.037 C
BRANCH   7   8
HETATM    8  C4  UNL     1     -15.977  27.629  -2.532  1.00  0.00     0.311 C
BRANCH   8   9
HETATM    9  N1  UNL     1     -16.153  28.184  -1.191  1.00  0.00     0.011 N
HETATM   10  C1  UNL     1     -17.404  28.890  -1.103  1.00  0.00     0.356 C
HETATM   11  O1  UNL     1     -16.261  27.078  -0.382  1.00  0.00    -0.065 OA
BRANCH   9  12
HETATM   12  C2  UNL     1     -15.039  28.973  -0.777  1.00  0.00     0.337 C
BRANCH  12  13
HETATM   13  C3  UNL     1     -14.397  28.504   0.521  1.00  0.00     0.200 C
BRANCH  13  14
HETATM   14  O2  UNL     1     -13.250  27.772   0.250  1.00  0.00    -0.399 OA
ATOM     15  H2  UNL     1     -13.123  27.105   0.914  1.00  0.00     0.209 HD
ENDBRANCH  13  14
ENDBRANCH  12  13
ENDBRANCH   9  12
ENDBRANCH   8   9
ENDBRANCH   7   8
ENDBRANCH   6   7
ENDBRANCH   5   6
ENDBRANCH   4   5
ENDBRANCH   2   4
ENDBRANCH   1   2
BRANCH   1  16
HETATM   16  C10 UNL     1     -10.859  30.391  -4.042  1.00  0.00     0.105 C
BRANCH  16  17
HETATM   17  C11 UNL     1     -11.354  31.023  -5.291  1.00  0.00     0.114 A
HETATM   18  N3  UNL     1     -12.491  31.708  -5.427  1.00  0.00    -0.274 N
HETATM   19  N4  UNL     1     -12.576  32.144  -6.656  1.00  0.00    -0.131 N
ATOM     20  H3  UNL     1     -13.181  31.865  -4.693  1.00  0.00     0.189 HD
HETATM   21  C12 UNL     1     -11.489  31.746  -7.340  1.00  0.00     0.691 A
ATOM     22  H4  UNL     1     -13.344  32.699  -7.034  1.00  0.00     0.205 HD
HETATM   23  N6  UNL     1     -10.723  31.047  -6.498  1.00  0.00    -0.178 N
ATOM     24  H6  UNL     1      -9.828  30.610  -6.720  1.00  0.00     0.185 HD
BRANCH  21  25
HETATM   25  N5  UNL     1     -11.165  31.951  -8.583  1.00  0.00    -0.233 N
ATOM     26  H52 UNL     1     -11.858  32.110  -9.316  1.00  0.00     0.174 HD
ATOM     27  H51 UNL     1     -10.245  31.991  -9.021  1.00  0.00     0.174 HD
ENDBRANCH  21  25
ENDBRANCH  16  17
ENDBRANCH   1  16
BRANCH   1  28
HETATM   28  C13 UNL     1      -8.723  29.273  -3.581  1.00  0.00     0.153 C
BRANCH  28  29
HETATM   29  N7  UNL     1      -7.783  30.019  -4.419  1.00  0.00    -0.364 N
HETATM   30  C14 UNL     1      -6.836  30.748  -3.809  1.00  0.00     0.090 A
HETATM   31  C15 UNL     1      -5.908  31.485  -4.557  1.00  0.00     0.018 A
HETATM   32  C16 UNL     1      -5.965  31.463  -5.921  1.00  0.00     0.012 A
HETATM   33  C17 UNL     1      -6.937  30.712  -6.540  1.00  0.00    -0.019 A
HETATM   34  C19 UNL     1      -7.841  29.992  -5.742  1.00  0.00     0.099 A
BRANCH  33  35
HETATM   35  C18 UNL     1      -7.029  30.673  -8.021  1.00  0.00     0.204 C
BRANCH  35  36
HETATM   36  O3  UNL     1      -8.325  30.408  -8.482  1.00  0.00    -0.396 OA
ATOM     37  H3  UNL     1      -8.869  29.975  -7.834  1.00  0.00     0.209 HD
ENDBRANCH  35  36
ENDBRANCH  33  35
ENDBRANCH  28  29
ENDBRANCH   1  28
TORSDOF 17
ENDMDL