MODEL 5
REMARK VINA RESULT: -6.776931545      1.805      2.437
REMARK  16 active torsions:
REMARK  status: ('A' for Active; 'I' for Inactive)
REMARK    1  A    between atoms: N1_1  and  C1_5
REMARK    2  A    between atoms: C1_5  and  C2_6
REMARK    3  A    between atoms: C2_6  and  C3_7
REMARK    4  A    between atoms: C3_7  and  N2_8
REMARK       I    between atoms: C4_10  and  N4_12
REMARK    5  A    between atoms: N6_19  and  C8_20
REMARK    6  A    between atoms: C8_20  and  C9_21
REMARK    7  A    between atoms: C9_21  and  C10_22
REMARK    8  A    between atoms: C10_22  and  C11_23
REMARK    9  A    between atoms: C11_23  and  C12_24
REMARK   10  A    between atoms: C12_24  and  C13_25
REMARK   11  A    between atoms: C13_25  and  N7_26
REMARK   12  A    between atoms: N7_26  and  C14_29
REMARK   13  A    between atoms: C14_29  and  C15_30
REMARK   14  A    between atoms: C15_30  and  C16_31
REMARK   15  A    between atoms: C16_31  and  N8_32
REMARK   16  A    between atoms: N8_32  and  C17_34
ROOT
HETATM    1  N2  UNL     1     -12.561  26.990  -2.817  1.00  0.00    -0.364 N
ATOM      2  H2  UNL     1     -12.462  26.170  -2.219  1.00  0.00     0.162 HD
HETATM    3  C4  UNL     1     -12.058  26.985  -4.001  1.00  0.00     0.189 C
HETATM    4  N3  UNL     1     -11.356  25.820  -4.486  1.00  0.00    -0.063 NA
HETATM    5  N4  UNL     1     -12.211  28.131  -4.814  1.00  0.00    -0.312 N
ATOM      6  H4  UNL     1     -13.095  28.239  -5.311  1.00  0.00     0.170 HD
HETATM    7  C5  UNL     1     -11.334  29.039  -4.977  1.00  0.00     0.173 C
HETATM    8  N5  UNL     1     -11.557  30.177  -5.821  1.00  0.00    -0.370 N
ATOM      9  H5  UNL     1     -12.102  30.088  -6.678  1.00  0.00     0.161 HD
HETATM   10  C6  UNL     1     -11.002  31.437  -5.438  1.00  0.00     0.141 C
HETATM   11  C7  UNL     1      -9.629  31.402  -4.869  1.00  0.00     0.145 C
HETATM   12  N6  UNL     1      -9.120  30.077  -4.585  1.00  0.00    -0.344 N
HETATM   13  C18 UNL     1     -10.018  28.994  -4.315  1.00  0.00     0.287 C
HETATM   14  O2  UNL     1      -9.665  28.084  -3.554  1.00  0.00    -0.264 OA
ENDROOT
BRANCH  12  15
HETATM   15  C8  UNL     1      -7.697  29.872  -4.570  1.00  0.00     0.126 C
BRANCH  15  16
HETATM   16  C9  UNL     1      -6.914  31.039  -4.032  1.00  0.00     0.020 C
BRANCH  16  17
HETATM   17  C10 UNL     1      -5.843  31.545  -4.940  1.00  0.00     0.002 C
BRANCH  17  18
HETATM   18  C11 UNL     1      -4.825  32.261  -4.075  1.00  0.00     0.002 C
BRANCH  18  19
HETATM   19  C12 UNL     1      -5.415  32.386  -2.682  1.00  0.00     0.027 C
BRANCH  19  20
HETATM   20  C13 UNL     1      -4.279  32.375  -1.710  1.00  0.00     0.232 C
BRANCH  20  21
HETATM   21  N7  UNL     1      -4.510  31.370  -0.710  1.00  0.00    -0.075 N
ATOM     22  H72 UNL     1      -5.108  31.720   0.039  1.00  0.00     0.277 HD
ATOM     23  H71 UNL     1      -5.115  30.628  -1.062  1.00  0.00     0.277 HD
BRANCH  21  24
HETATM   24  C14 UNL     1      -3.277  30.841  -0.193  1.00  0.00     0.234 C
BRANCH  24  25
HETATM   25  C15 UNL     1      -2.481  30.306  -1.394  1.00  0.00     0.047 C
BRANCH  25  26
HETATM   26  C16 UNL     1      -1.063  30.052  -0.978  1.00  0.00     0.123 C
BRANCH  26  27
HETATM   27  N8  UNL     1      -0.139  30.862  -1.727  1.00  0.00    -0.368 N
ATOM     28  H8  UNL     1       0.664  30.411  -2.165  1.00  0.00     0.161 HD
BRANCH  27  29
HETATM   29  C17 UNL     1      -0.302  32.270  -1.880  1.00  0.00     0.348 C
HETATM   30  O1  UNL     1       0.224  33.092  -1.088  1.00  0.00    -0.284 OA
ENDBRANCH  27  29
ENDBRANCH  26  27
ENDBRANCH  25  26
ENDBRANCH  24  25
ENDBRANCH  21  24
ENDBRANCH  20  21
ENDBRANCH  19  20
ENDBRANCH  18  19
ENDBRANCH  17  18
ENDBRANCH  16  17
ENDBRANCH  15  16
ENDBRANCH  12  15
BRANCH   1  31
HETATM   31  C3  UNL     1     -13.260  28.147  -2.334  1.00  0.00     0.124 C
BRANCH  31  32
HETATM   32  C2  UNL     1     -14.741  27.798  -2.285  1.00  0.00     0.047 C
BRANCH  32  33
HETATM   33  C1  UNL     1     -15.480  28.386  -3.468  1.00  0.00     0.231 C
BRANCH  33  34
HETATM   34  N1  UNL     1     -15.742  27.304  -4.396  1.00  0.00    -0.079 N
ATOM     35  H13 UNL     1     -16.456  27.535  -5.087  1.00  0.00     0.274 HD
ATOM     36  H12 UNL     1     -14.974  27.142  -5.046  1.00  0.00     0.274 HD
ATOM     37  H11 UNL     1     -15.976  26.479  -3.842  1.00  0.00     0.274 HD
ENDBRANCH  33  34
ENDBRANCH  32  33
ENDBRANCH  31  32
ENDBRANCH   1  31
TORSDOF 16
ENDMDL