MODEL 5
REMARK VINA RESULT: -7.309818200      2.402      3.463
REMARK  17 active torsions:
REMARK  status: ('A' for Active; 'I' for Inactive)
REMARK    1  A    between atoms: C2_2  and  N1_3
REMARK    2  A    between atoms: N1_3  and  C3_6
REMARK    3  A    between atoms: C3_6  and  C4_7
REMARK    4  A    between atoms: C4_7  and  N2_8
REMARK    5  A    between atoms: N2_8  and  C5_11
REMARK    6  A    between atoms: C6_12  and  O1_13
REMARK    7  A    between atoms: O1_13  and  C7_14
REMARK    8  A    between atoms: C8_15  and  O2_16
REMARK    9  A    between atoms: C9_18  and  C10_19
REMARK   10  A    between atoms: C10_19  and  N3_20
REMARK   11  A    between atoms: C11_25  and  O4_26
REMARK   12  A    between atoms: O4_26  and  C12_27
REMARK   13  A    between atoms: C17_35  and  O5_36
REMARK   14  A    between atoms: C18_38  and  O6_39
REMARK   15  A    between atoms: C19_42  and  C20_43
REMARK   16  A    between atoms: C20_43  and  N5_44
REMARK   17  A    between atoms: C21_48  and  O8_49
ROOT
HETATM    1  C7  UNL     1     -21.806   2.570   3.119  1.00  0.00     0.189 C
HETATM    2  C8  UNL     1     -22.505   1.341   2.637  1.00  0.00     0.180 C
HETATM    3  C9  UNL     1     -22.684   0.384   3.778  1.00  0.00     0.181 C
HETATM    4  O3  UNL     1     -23.477   0.898   4.787  1.00  0.00    -0.349 OA
HETATM    5  C11 UNL     1     -23.137   2.143   5.227  1.00  0.00     0.292 C
HETATM    6  C18 UNL     1     -22.709   3.141   4.223  1.00  0.00     0.205 C
ENDROOT
BRANCH   1   7
HETATM    7  O1  UNL     1     -21.731   3.567   2.147  1.00  0.00    -0.348 OA
BRANCH   7   8
HETATM    8  C6  UNL     1     -20.454   3.852   1.749  1.00  0.00     0.294 C
HETATM    9  C5  UNL     1     -20.315   3.840   0.218  1.00  0.00     0.271 C
HETATM   10  C21 UNL     1     -18.799   3.814   0.131  1.00  0.00     0.184 C
HETATM   11  C19 UNL     1     -18.483   2.887   1.286  1.00  0.00     0.181 C
HETATM   12  O7  UNL     1     -19.596   2.797   2.077  1.00  0.00    -0.349 OA
BRANCH   9  13
HETATM   13  N2  UNL     1     -20.832   2.604  -0.322  1.00  0.00    -0.062 N
ATOM     14  H22 UNL     1     -21.551   2.200   0.279  1.00  0.00     0.277 HD
ATOM     15  H21 UNL     1     -20.146   1.851  -0.268  1.00  0.00     0.277 HD
BRANCH  13  16
HETATM   16  C4  UNL     1     -21.305   2.793  -1.657  1.00  0.00     0.260 C
BRANCH  16  17
HETATM   17  C3  UNL     1     -22.806   2.648  -1.776  1.00  0.00     0.259 C
BRANCH  17  18
HETATM   18  N1  UNL     1     -23.479   2.694  -0.516  1.00  0.00    -0.074 N
ATOM     19  H12 UNL     1     -23.752   3.639  -0.246  1.00  0.00     0.277 HD
ATOM     20  H11 UNL     1     -22.860   2.504   0.272  1.00  0.00     0.277 HD
BRANCH  18  21
HETATM   21  C2  UNL     1     -24.606   1.778  -0.584  1.00  0.00     0.228 C
HETATM   22  C1  UNL     1     -24.224   0.440  -1.163  1.00  0.00     0.034 C
ENDBRANCH  18  21
ENDBRANCH  17  18
ENDBRANCH  16  17
ENDBRANCH  13  16
ENDBRANCH   9  13
BRANCH  10  23
HETATM   23  O8  UNL     1     -18.354   5.095   0.489  1.00  0.00    -0.391 OA
ATOM     24  H8  UNL     1     -19.124   5.650   0.523  1.00  0.00     0.210 HD
ENDBRANCH  10  23
BRANCH  11  25
HETATM   25  C20 UNL     1     -17.228   3.272   2.004  1.00  0.00     0.264 C
BRANCH  25  26
HETATM   26  N5  UNL     1     -16.385   2.107   2.150  1.00  0.00    -0.077 N
ATOM     27  H53 UNL     1     -16.518   1.437   1.393  1.00  0.00     0.274 HD
ATOM     28  H52 UNL     1     -15.401   2.318   1.986  1.00  0.00     0.274 HD
ATOM     29  H51 UNL     1     -16.543   1.689   3.067  1.00  0.00     0.274 HD
ENDBRANCH  25  26
ENDBRANCH  11  25
ENDBRANCH   7   8
ENDBRANCH   1   7
BRANCH   2  30
HETATM   30  O2  UNL     1     -21.887   0.671   1.600  1.00  0.00    -0.390 OA
ATOM     31  H2  UNL     1     -21.928  -0.277   1.641  1.00  0.00     0.210 HD
ENDBRANCH   2  30
BRANCH   6  32
HETATM   32  O6  UNL     1     -23.858   3.600   3.552  1.00  0.00    -0.388 OA
ATOM     33  H6  UNL     1     -24.557   3.538   4.192  1.00  0.00     0.210 HD
ENDBRANCH   6  32
BRANCH   3  34
HETATM   34  C10 UNL     1     -21.338  -0.060   4.288  1.00  0.00     0.264 C
BRANCH  34  35
HETATM   35  N3  UNL     1     -20.655  -1.014   3.471  1.00  0.00    -0.077 N
ATOM     36  H33 UNL     1     -21.114  -1.922   3.536  1.00  0.00     0.274 HD
ATOM     37  H32 UNL     1     -20.810  -0.803   2.485  1.00  0.00     0.274 HD
ATOM     38  H31 UNL     1     -19.656  -1.113   3.653  1.00  0.00     0.274 HD
ENDBRANCH  34  35
ENDBRANCH   3  34
BRANCH   5  39
HETATM   39  O4  UNL     1     -24.215   2.672   5.937  1.00  0.00    -0.351 OA
BRANCH  39  40
HETATM   40  C12 UNL     1     -24.744   1.809   6.861  1.00  0.00     0.157 C
HETATM   41  C13 UNL     1     -23.927   1.750   8.139  1.00  0.00     0.062 C
HETATM   42  C14 UNL     1     -23.964   3.070   8.859  1.00  0.00     0.235 C
HETATM   43  N4  UNL     1     -25.320   3.365   9.215  1.00  0.00    -0.069 N
HETATM   44  C15 UNL     1     -26.183   3.469   8.069  1.00  0.00     0.212 C
ATOM     45  H42 UNL     1     -25.680   2.683   9.883  1.00  0.00     0.277 HD
ATOM     46  H41 UNL     1     -25.373   4.205   9.792  1.00  0.00     0.277 HD
HETATM   47  C16 UNL     1     -27.599   3.679   8.566  1.00  0.00     0.043 C
HETATM   48  C17 UNL     1     -26.172   2.253   7.200  1.00  0.00     0.177 C
BRANCH  48  49
HETATM   49  O5  UNL     1     -26.774   1.210   7.900  1.00  0.00    -0.391 OA
ATOM     50  H5  UNL     1     -26.738   1.433   8.822  1.00  0.00     0.210 HD
ENDBRANCH  48  49
ENDBRANCH  39  40
ENDBRANCH   5  39
TORSDOF 17
ENDMDL