MODEL 2
REMARK VINA RESULT: -7.208142235      1.167      1.350
REMARK  16 active torsions:
REMARK  status: ('A' for Active; 'I' for Inactive)
REMARK    1  A    between atoms: O1_2  and  C2_3
REMARK    2  A    between atoms: C4_6  and  S1_7
REMARK    3  A    between atoms: C6_9  and  N1_10
REMARK    4  A    between atoms: C7_14  and  O3_15
REMARK    5  A    between atoms: C8_17  and  O4_18
REMARK    6  A    between atoms: O4_18  and  C9_19
REMARK    7  A    between atoms: C10_20  and  N2_21
REMARK    8  A    between atoms: C11_25  and  N3_26
REMARK    9  A    between atoms: C12_30  and  N4_31
REMARK       I    between atoms: N4_31  and  C13_33
REMARK       I    between atoms: C13_33  and  N5_34
REMARK       I    between atoms: C13_33  and  N6_38
REMARK   10  A    between atoms: N6_38  and  C14_41
REMARK   11  A    between atoms: C14_41  and  C15_42
REMARK   12  A    between atoms: C15_42  and  C16_43
REMARK   13  A    between atoms: C16_43  and  C17_44
REMARK   14  A    between atoms: C17_44  and  C18_45
REMARK   15  A    between atoms: C18_45  and  N7_46
REMARK   16  A    between atoms: C19_50  and  O5_51
ROOT
HETATM    1  C9  UNL     1     -22.120   1.169   3.009  1.00  0.00     0.185 C
HETATM    2  C10 UNL     1     -21.010   0.248   3.509  1.00  0.00     0.247 C
HETATM    3  C11 UNL     1     -21.733  -0.704   4.433  1.00  0.00     0.241 C
HETATM    4  C12 UNL     1     -23.013  -0.096   4.844  1.00  0.00     0.144 C
HETATM    5  C19 UNL     1     -22.958   1.312   4.245  1.00  0.00     0.173 C
ENDROOT
BRANCH   4   6
HETATM    6  N4  UNL     1     -23.349   0.013   6.196  1.00  0.00    -0.365 N
HETATM    7  C13 UNL     1     -24.588  -0.436   6.682  1.00  0.00     0.478 C
HETATM    8  N5  UNL     1     -24.760  -1.843   6.558  1.00  0.00    -0.033 N
HETATM    9  N6  UNL     1     -24.755  -0.133   8.119  1.00  0.00    -0.029 N
ATOM     10  H53 UNL     1     -24.618  -2.143   5.593  1.00  0.00     0.278 HD
ATOM     11  H52 UNL     1     -23.992  -2.343   7.004  1.00  0.00     0.278 HD
ATOM     12  H51 UNL     1     -25.660  -2.168   6.910  1.00  0.00     0.278 HD
ATOM     13  H62 UNL     1     -25.612  -0.528   8.504  1.00  0.00     0.281 HD
ATOM     14  H61 UNL     1     -24.091  -0.640   8.704  1.00  0.00     0.281 HD
ATOM     15  H4  UNL     1     -22.679   0.428   6.844  1.00  0.00     0.157 HD
BRANCH   9  16
HETATM   16  C14 UNL     1     -24.674   1.291   8.300  1.00  0.00     0.237 C
BRANCH  16  17
HETATM   17  C15 UNL     1     -25.754   1.754   9.230  1.00  0.00     0.028 C
BRANCH  17  18
HETATM   18  C16 UNL     1     -25.707   3.219   9.514  1.00  0.00     0.003 C
BRANCH  18  19
HETATM   19  C17 UNL     1     -27.047   3.891   9.300  1.00  0.00     0.027 C
BRANCH  19  20
HETATM   20  C18 UNL     1     -27.255   4.053   7.795  1.00  0.00     0.229 C
BRANCH  20  21
HETATM   21  N7  UNL     1     -28.482   3.369   7.424  1.00  0.00    -0.079 N
ATOM     22  H73 UNL     1     -28.918   2.891   8.213  1.00  0.00     0.274 HD
ATOM     23  H72 UNL     1     -29.243   4.015   7.214  1.00  0.00     0.274 HD
ATOM     24  H71 UNL     1     -28.279   2.738   6.648  1.00  0.00     0.274 HD
ENDBRANCH  20  21
ENDBRANCH  19  20
ENDBRANCH  18  19
ENDBRANCH  17  18
ENDBRANCH  16  17
ENDBRANCH   9  16
ENDBRANCH   4   6
BRANCH   3  25
HETATM   25  N3  UNL     1     -22.053  -1.905   3.637  1.00  0.00    -0.071 N
ATOM     26  H33 UNL     1     -21.699  -1.862   2.681  1.00  0.00     0.274 HD
ATOM     27  H32 UNL     1     -21.532  -2.733   3.928  1.00  0.00     0.274 HD
ATOM     28  H31 UNL     1     -23.065  -2.028   3.686  1.00  0.00     0.274 HD
ENDBRANCH   3  25
BRANCH   5  29
HETATM   29  O5  UNL     1     -22.267   2.142   5.127  1.00  0.00    -0.391 OA
ATOM     30  H5  UNL     1     -21.594   1.618   5.546  1.00  0.00     0.210 HD
ENDBRANCH   5  29
BRANCH   2  31
HETATM   31  N2  UNL     1     -20.022   0.954   4.282  1.00  0.00    -0.070 N
ATOM     32  H23 UNL     1     -20.154   1.963   4.216  1.00  0.00     0.274 HD
ATOM     33  H22 UNL     1     -20.182   0.834   5.282  1.00  0.00     0.274 HD
ATOM     34  H21 UNL     1     -19.070   0.689   4.027  1.00  0.00     0.274 HD
ENDBRANCH   2  31
BRANCH   1  35
HETATM   35  O4  UNL     1     -21.640   2.390   2.651  1.00  0.00    -0.368 OA
BRANCH  35  36
HETATM   36  C8  UNL     1     -21.472   2.708   1.342  1.00  0.00     0.214 C
HETATM   37  C2  UNL     1     -20.065   3.145   1.093  1.00  0.00     0.190 C
HETATM   38  C3  UNL     1     -19.761   4.359   1.977  1.00  0.00     0.082 C
HETATM   39  O2  UNL     1     -19.932   3.597  -0.197  1.00  0.00    -0.335 OA
HETATM   40  C4  UNL     1     -20.038   2.524  -1.069  1.00  0.00     0.219 C
HETATM   41  C6  UNL     1     -21.463   2.022  -1.029  1.00  0.00     0.253 C
HETATM   42  C7  UNL     1     -21.847   1.593   0.390  1.00  0.00     0.186 C
BRANCH  37  43
HETATM   43  O1  UNL     1     -19.129   2.137   1.341  1.00  0.00    -0.358 OA
HETATM   44  C1  UNL     1     -17.996   2.624   1.968  1.00  0.00     0.205 C
ENDBRANCH  37  43
BRANCH  40  45
HETATM   45  S1  UNL     1     -19.803   3.219  -2.753  1.00  0.00    -0.140 SA
HETATM   46  C5  UNL     1     -21.149   4.333  -3.193  1.00  0.00     0.092 C
ENDBRANCH  40  45
BRANCH  41  47
HETATM   47  N1  UNL     1     -21.659   0.981  -1.990  1.00  0.00    -0.069 N
ATOM     48  H13 UNL     1     -22.347   1.244  -2.696  1.00  0.00     0.275 HD
ATOM     49  H12 UNL     1     -20.848   0.871  -2.599  1.00  0.00     0.275 HD
ATOM     50  H11 UNL     1     -21.907   0.107  -1.528  1.00  0.00     0.275 HD
ENDBRANCH  41  47
BRANCH  42  51
HETATM   51  O3  UNL     1     -23.230   1.402   0.321  1.00  0.00    -0.391 OA
ATOM     52  H3  UNL     1     -23.342   0.477   0.505  1.00  0.00     0.210 HD
ENDBRANCH  42  51
ENDBRANCH  35  36
ENDBRANCH   1  35
TORSDOF 16
ENDMDL