MODEL 1
REMARK VINA RESULT: -7.714334222      0.000      0.000
REMARK  18 active torsions:
REMARK  status: ('A' for Active; 'I' for Inactive)
REMARK    1  A    between atoms: N1_2  and  C2_5
REMARK    2  A    between atoms: C2_5  and  C3_6
REMARK    3  A    between atoms: C3_6  and  N2_7
REMARK    4  A    between atoms: N2_7  and  C4_9
REMARK    5  A    between atoms: C5_10  and  C6_11
REMARK    6  A    between atoms: C6_11  and  O1_12
REMARK    7  A    between atoms: C7_15  and  O3_16
REMARK    8  A    between atoms: O3_16  and  C8_17
REMARK    9  A    between atoms: C8_17  and  C9_18
REMARK   10  A    between atoms: C10_20  and  S1_21
REMARK   11  A    between atoms: S1_21  and  C11_22
REMARK   12  A    between atoms: C12_24  and  C13_25
REMARK   13  A    between atoms: C13_25  and  O6_26
REMARK   14  A    between atoms: C14_28  and  N3_29
REMARK   15  A    between atoms: C15_33  and  O7_34
REMARK   16  A    between atoms: C16_36  and  N4_37
REMARK   17  A    between atoms: C17_41  and  O8_42
REMARK   18  A    between atoms: C18_44  and  N5_45
ROOT
HETATM    1  C9  UNL     1     -21.177  -1.014   3.145  1.00  0.00     0.177 C
HETATM    2  O4  UNL     1     -20.420   0.100   3.465  1.00  0.00    -0.363 OA
HETATM    3  C10 UNL     1     -19.992   0.540   2.218  1.00  0.00     0.219 C
HETATM    4  C16 UNL     1     -21.326   0.662   1.506  1.00  0.00     0.253 C
HETATM    5  C17 UNL     1     -21.842  -0.762   1.794  1.00  0.00     0.183 C
ENDROOT
BRANCH   1   6
HETATM    6  C8  UNL     1     -22.260  -1.307   4.185  1.00  0.00     0.205 C
BRANCH   6   7
HETATM    7  O3  UNL     1     -23.004  -0.152   4.260  1.00  0.00    -0.356 OA
BRANCH   7   8
HETATM    8  C7  UNL     1     -23.099   0.413   5.530  1.00  0.00     0.292 C
HETATM    9  O2  UNL     1     -22.923  -0.531   6.523  1.00  0.00    -0.350 OA
HETATM   10  C5  UNL     1     -24.070  -0.594   7.291  1.00  0.00     0.172 C
HETATM   11  C4  UNL     1     -24.698   0.778   7.193  1.00  0.00     0.143 C
HETATM   12  C18 UNL     1     -24.420   1.094   5.739  1.00  0.00     0.263 C
BRANCH  10  13
HETATM   13  C6  UNL     1     -24.982  -1.614   6.599  1.00  0.00     0.198 C
BRANCH  13  14
HETATM   14  O1  UNL     1     -24.479  -2.904   6.675  1.00  0.00    -0.398 OA
ATOM     15  H1  UNL     1     -24.866  -3.398   7.388  1.00  0.00     0.209 HD
ENDBRANCH  13  14
ENDBRANCH  10  13
BRANCH  11  16
HETATM   16  N2  UNL     1     -23.995   1.745   7.968  1.00  0.00    -0.411 N
ATOM     17  H2  UNL     1     -22.985   1.860   7.889  1.00  0.00     0.153 HD
BRANCH  16  18
HETATM   18  C3  UNL     1     -24.771   2.544   8.861  1.00  0.00     0.142 C
BRANCH  18  19
HETATM   19  C2  UNL     1     -26.142   1.887   8.958  1.00  0.00     0.251 C
BRANCH  19  20
HETATM   20  N1  UNL     1     -27.161   2.760   9.454  1.00  0.00    -0.077 N
HETATM   21  C1  UNL     1     -27.029   4.043   8.799  1.00  0.00     0.267 C
ATOM     22  H12 UNL     1     -27.149   2.837  10.471  1.00  0.00     0.276 HD
ATOM     23  H11 UNL     1     -28.097   2.365   9.355  1.00  0.00     0.276 HD
ENDBRANCH  19  20
ENDBRANCH  18  19
ENDBRANCH  16  18
ENDBRANCH  11  16
BRANCH  12  24
HETATM   24  N5  UNL     1     -24.283   2.523   5.522  1.00  0.00    -0.068 N
ATOM     25  H53 UNL     1     -24.541   3.053   6.354  1.00  0.00     0.275 HD
ATOM     26  H52 UNL     1     -23.303   2.798   5.457  1.00  0.00     0.275 HD
ATOM     27  H51 UNL     1     -24.813   2.829   4.705  1.00  0.00     0.275 HD
ENDBRANCH  12  24
ENDBRANCH   7   8
ENDBRANCH   6   7
ENDBRANCH   1   6
BRANCH   5  28
HETATM   28  O8  UNL     1     -21.364  -1.681   0.894  1.00  0.00    -0.391 OA
ATOM     29  H8  UNL     1     -20.752  -1.245   0.313  1.00  0.00     0.210 HD
ENDBRANCH   5  28
BRANCH   3  30
HETATM   30  S1  UNL     1     -18.982   1.995   2.200  1.00  0.00    -0.101 SA
BRANCH  30  31
HETATM   31  C11 UNL     1     -19.928   3.421   2.642  1.00  0.00     0.216 C
HETATM   32  O5  UNL     1     -21.240   3.195   3.021  1.00  0.00    -0.363 OA
HETATM   33  C12 UNL     1     -21.835   4.451   3.104  1.00  0.00     0.179 C
HETATM   34  C14 UNL     1     -21.037   5.397   2.226  1.00  0.00     0.246 C
HETATM   35  C15 UNL     1     -20.160   4.389   1.478  1.00  0.00     0.190 C
BRANCH  33  36
HETATM   36  C13 UNL     1     -23.264   4.336   2.627  1.00  0.00     0.198 C
BRANCH  36  37
HETATM   37  O6  UNL     1     -24.144   4.774   3.619  1.00  0.00    -0.398 OA
ATOM     38  H6  UNL     1     -24.705   5.462   3.282  1.00  0.00     0.209 HD
ENDBRANCH  36  37
ENDBRANCH  33  36
BRANCH  34  39
HETATM   39  N3  UNL     1     -20.183   6.175   3.072  1.00  0.00    -0.070 N
ATOM     40  H33 UNL     1     -19.704   6.922   2.569  1.00  0.00     0.274 HD
ATOM     41  H32 UNL     1     -20.703   6.761   3.725  1.00  0.00     0.274 HD
ATOM     42  H31 UNL     1     -19.537   5.540   3.541  1.00  0.00     0.274 HD
ENDBRANCH  34  39
BRANCH  35  43
HETATM   43  O7  UNL     1     -18.995   5.000   1.081  1.00  0.00    -0.390 OA
ATOM     44  H7  UNL     1     -19.124   5.541   0.311  1.00  0.00     0.210 HD
ENDBRANCH  35  43
ENDBRANCH  30  31
ENDBRANCH   3  30
BRANCH   4  45
HETATM   45  N4  UNL     1     -21.216   0.939   0.111  1.00  0.00    -0.069 N
ATOM     46  H43 UNL     1     -20.838   1.874  -0.040  1.00  0.00     0.275 HD
ATOM     47  H42 UNL     1     -20.471   0.382  -0.307  1.00  0.00     0.275 HD
ATOM     48  H41 UNL     1     -22.087   0.816  -0.406  1.00  0.00     0.275 HD
ENDBRANCH   4  45
TORSDOF 18
ENDMDL