MODEL 2
REMARK VINA RESULT: -6.287414554      1.153      1.649
REMARK  20 active torsions:
REMARK  status: ('A' for Active; 'I' for Inactive)
REMARK    1  A    between atoms: C1_4  and  S1_5
REMARK    2  A    between atoms: C1_4  and  C7_20
REMARK    3  A    between atoms: S1_5  and  S2_6
REMARK    4  A    between atoms: S2_6  and  C2_7
REMARK    5  A    between atoms: C2_7  and  C3_8
REMARK    6  A    between atoms: C3_8  and  N2_9
REMARK    7  A    between atoms: C3_8  and  C4_13
REMARK    8  A    between atoms: C4_13  and  C5_14
REMARK    9  A    between atoms: C5_14  and  C6_15
REMARK   10  A    between atoms: C6_15  and  N3_16
REMARK   11  A    between atoms: C8_22  and  N4_23
REMARK       I    between atoms: N4_23  and  C9_25
REMARK   12  A    between atoms: C9_25  and  C10_27
REMARK   13  A    between atoms: C10_27  and  N5_28
REMARK   14  A    between atoms: C10_27  and  C11_32
REMARK   15  A    between atoms: C11_32  and  N6_33
REMARK   16  A    between atoms: C12_37  and  O3_38
REMARK   17  A    between atoms: C13_40  and  O4_41
REMARK   18  A    between atoms: C14_43  and  N7_44
REMARK   19  A    between atoms: N7_44  and  C15_46
REMARK   20  A    between atoms: C16_48  and  N8_49
ROOT
HETATM    1  C7  UNL     1     -23.174   2.735   4.458  1.00  0.00     0.213 C
HETATM    2  O1  UNL     1     -24.329   2.608   5.225  1.00  0.00    -0.350 OA
HETATM    3  C8  UNL     1     -24.149   1.827   6.366  1.00  0.00     0.255 C
HETATM    4  C12 UNL     1     -24.052   0.372   5.991  1.00  0.00     0.197 C
HETATM    5  C13 UNL     1     -22.643  -0.089   5.779  1.00  0.00     0.176 C
HETATM    6  C14 UNL     1     -21.908   0.651   4.701  1.00  0.00     0.148 C
HETATM    7  C16 UNL     1     -22.824   1.461   3.800  1.00  0.00     0.243 C
ENDROOT
BRANCH   1   8
HETATM    8  C1  UNL     1     -23.265   3.927   3.591  1.00  0.00     0.082 C
HETATM    9  N1  UNL     1     -24.164   4.140   2.732  1.00  0.00    -0.394 N
ATOM     10  H12 UNL     1     -24.227   4.964   2.134  1.00  0.00     0.156 HD
ATOM     11  H11 UNL     1     -24.888   3.429   2.631  1.00  0.00     0.156 HD
BRANCH   8  12
HETATM   12  S1  UNL     1     -21.984   5.186   3.769  1.00  0.00    -0.042 SA
BRANCH  12  13
HETATM   13  S2  UNL     1     -20.683   5.221   2.139  1.00  0.00    -0.089 SA
BRANCH  13  14
HETATM   14  C2  UNL     1     -21.263   4.296   0.684  1.00  0.00     0.119 C
BRANCH  14  15
HETATM   15  C3  UNL     1     -20.227   4.119  -0.338  1.00  0.00     0.193 C
BRANCH  15  16
HETATM   16  N2  UNL     1     -20.764   3.966  -1.693  1.00  0.00    -0.074 N
ATOM     17  H23 UNL     1     -21.515   4.636  -1.862  1.00  0.00     0.274 HD
ATOM     18  H22 UNL     1     -20.091   4.289  -2.388  1.00  0.00     0.274 HD
ATOM     19  H21 UNL     1     -21.073   3.017  -1.902  1.00  0.00     0.274 HD
ENDBRANCH  15  16
BRANCH  15  20
HETATM   20  C4  UNL     1     -18.968   3.400  -0.101  1.00  0.00     0.035 C
BRANCH  20  21
HETATM   21  C5  UNL     1     -18.873   2.347   0.931  1.00  0.00     0.029 C
BRANCH  21  22
HETATM   22  C6  UNL     1     -18.134   2.550   2.187  1.00  0.00     0.229 C
BRANCH  22  23
HETATM   23  N3  UNL     1     -16.739   2.847   2.014  1.00  0.00    -0.079 N
ATOM     24  H33 UNL     1     -16.166   2.082   2.370  1.00  0.00     0.274 HD
ATOM     25  H32 UNL     1     -16.488   2.808   1.026  1.00  0.00     0.274 HD
ATOM     26  H31 UNL     1     -16.442   3.733   2.423  1.00  0.00     0.274 HD
ENDBRANCH  22  23
ENDBRANCH  21  22
ENDBRANCH  20  21
ENDBRANCH  15  20
ENDBRANCH  14  15
ENDBRANCH  13  14
ENDBRANCH  12  13
ENDBRANCH   8  12
ENDBRANCH   1   8
BRANCH   7  27
HETATM   27  N8  UNL     1     -22.092   1.622   2.550  1.00  0.00    -0.070 N
ATOM     28  H83 UNL     1     -22.395   2.466   2.063  1.00  0.00     0.274 HD
ATOM     29  H82 UNL     1     -21.119   1.869   2.733  1.00  0.00     0.274 HD
ATOM     30  H81 UNL     1     -22.145   0.813   1.931  1.00  0.00     0.274 HD
ENDBRANCH   7  27
BRANCH   3  31
HETATM   31  N4  UNL     1     -25.336   1.980   7.183  1.00  0.00    -0.330 N
HETATM   32  C9  UNL     1     -25.376   2.770   8.351  1.00  0.00     0.252 C
HETATM   33  O2  UNL     1     -24.367   3.394   8.749  1.00  0.00    -0.271 OA
ATOM     34  H4  UNL     1     -26.185   1.492   6.900  1.00  0.00     0.165 HD
BRANCH  32  35
HETATM   35  C10 UNL     1     -26.619   2.884   9.143  1.00  0.00     0.299 C
BRANCH  35  36
HETATM   36  N5  UNL     1     -26.824   4.266   9.513  1.00  0.00    -0.065 N
ATOM     37  H53 UNL     1     -26.407   4.490  10.416  1.00  0.00     0.275 HD
ATOM     38  H52 UNL     1     -26.276   4.906   8.938  1.00  0.00     0.275 HD
ATOM     39  H51 UNL     1     -27.822   4.478   9.484  1.00  0.00     0.275 HD
ENDBRANCH  35  36
BRANCH  35  40
HETATM   40  C11 UNL     1     -27.761   2.487   8.202  1.00  0.00     0.272 C
BRANCH  40  41
HETATM   41  N6  UNL     1     -28.298   3.641   7.540  1.00  0.00    -0.077 N
ATOM     42  H63 UNL     1     -27.568   4.312   7.299  1.00  0.00     0.274 HD
ATOM     43  H62 UNL     1     -28.620   3.419   6.598  1.00  0.00     0.274 HD
ATOM     44  H61 UNL     1     -29.035   4.069   8.100  1.00  0.00     0.274 HD
ENDBRANCH  40  41
ENDBRANCH  35  40
ENDBRANCH  32  35
ENDBRANCH   3  31
BRANCH   6  45
HETATM   45  N7  UNL     1     -21.043  -0.211   3.936  1.00  0.00    -0.359 N
ATOM     46  H7  UNL     1     -21.446  -0.879   3.279  1.00  0.00     0.162 HD
BRANCH  45  47
HETATM   47  C15 UNL     1     -19.639  -0.137   4.088  1.00  0.00     0.348 C
HETATM   48  O5  UNL     1     -19.165   0.732   4.859  1.00  0.00    -0.284 OA
ENDBRANCH  45  47
ENDBRANCH   6  45
BRANCH   4  49
HETATM   49  O3  UNL     1     -24.552  -0.381   7.079  1.00  0.00    -0.389 OA
ATOM     50  H3  UNL     1     -25.472  -0.550   6.912  1.00  0.00     0.210 HD
ENDBRANCH   4  49
BRANCH   5  51
HETATM   51  O4  UNL     1     -22.675  -1.439   5.431  1.00  0.00    -0.391 OA
ATOM     52  H4  UNL     1     -23.567  -1.662   5.195  1.00  0.00     0.210 HD
ENDBRANCH   5  51
TORSDOF 20
ENDMDL