MODEL 4
REMARK VINA RESULT: -7.854919439      2.692      4.569
REMARK  18 active torsions:
REMARK  status: ('A' for Active; 'I' for Inactive)
REMARK    1  A    between atoms: C2_2  and  N2_6
REMARK    2  A    between atoms: N2_6  and  C3_8
REMARK    3  A    between atoms: C4_9  and  O1_10
REMARK    4  A    between atoms: O1_10  and  C5_11
REMARK    5  A    between atoms: C5_11  and  C6_12
REMARK    6  A    between atoms: C6_12  and  O2_14
REMARK    7  A    between atoms: C6_12  and  C8_16
REMARK    8  A    between atoms: C8_16  and  O3_17
REMARK    9  A    between atoms: C9_20  and  C10_21
REMARK   10  A    between atoms: C10_21  and  S1_22
REMARK   11  A    between atoms: S1_22  and  C11_23
REMARK   12  A    between atoms: C11_23  and  N3_24
REMARK   13  A    between atoms: C12_29  and  O6_30
REMARK   14  A    between atoms: O6_30  and  C13_31
REMARK   15  A    between atoms: C14_33  and  C15_34
REMARK   16  A    between atoms: C15_34  and  N4_35
REMARK   17  A    between atoms: C16_39  and  O8_40
REMARK   18  A    between atoms: C17_42  and  O9_43
ROOT
HETATM    1  C3  UNL     1     -23.271   1.191   4.372  1.00  0.00     0.193 C
HETATM    2  C4  UNL     1     -22.890   1.744   2.985  1.00  0.00     0.290 C
HETATM    3  O4  UNL     1     -21.837   2.622   3.210  1.00  0.00    -0.328 OA
HETATM    4  C9  UNL     1     -22.307   3.774   3.769  1.00  0.00     0.275 C
HETATM    5  O5  UNL     1     -23.388   3.538   4.558  1.00  0.00    -0.328 OA
HETATM    6  C12 UNL     1     -23.355   2.344   5.287  1.00  0.00     0.293 C
ENDROOT
BRANCH   6   7
HETATM    7  O6  UNL     1     -24.413   2.371   6.151  1.00  0.00    -0.326 OA
BRANCH   7   8
HETATM    8  C13 UNL     1     -24.188   2.073   7.450  1.00  0.00     0.294 C
HETATM    9  O7  UNL     1     -24.623   3.169   8.209  1.00  0.00    -0.349 OA
HETATM   10  C14 UNL     1     -25.156   2.697   9.375  1.00  0.00     0.181 C
HETATM   11  C16 UNL     1     -25.711   1.329   9.138  1.00  0.00     0.182 C
HETATM   12  C17 UNL     1     -24.887   0.856   7.967  1.00  0.00     0.204 C
BRANCH  10  13
HETATM   13  C15 UNL     1     -26.271   3.580   9.890  1.00  0.00     0.264 C
BRANCH  13  14
HETATM   14  N4  UNL     1     -26.766   4.474   8.886  1.00  0.00    -0.077 N
ATOM     15  H43 UNL     1     -26.382   5.411   9.007  1.00  0.00     0.274 HD
ATOM     16  H42 UNL     1     -26.374   4.252   7.971  1.00  0.00     0.274 HD
ATOM     17  H41 UNL     1     -27.785   4.495   8.854  1.00  0.00     0.274 HD
ENDBRANCH  13  14
ENDBRANCH  10  13
BRANCH  11  18
HETATM   18  O8  UNL     1     -27.074   1.327   8.833  1.00  0.00    -0.390 OA
ATOM     19  H8  UNL     1     -27.275   1.733   7.998  1.00  0.00     0.210 HD
ENDBRANCH  11  18
BRANCH  12  20
HETATM   20  O9  UNL     1     -25.741   0.269   7.055  1.00  0.00    -0.388 OA
ATOM     21  H9  UNL     1     -26.660   0.447   7.216  1.00  0.00     0.210 HD
ENDBRANCH  12  20
ENDBRANCH   7   8
ENDBRANCH   6   7
BRANCH   1  22
HETATM   22  N2  UNL     1     -22.360   0.151   4.679  1.00  0.00    -0.366 N
ATOM     23  H2  UNL     1     -21.469   0.455   5.070  1.00  0.00     0.161 HD
BRANCH  22  24
HETATM   24  C2  UNL     1     -22.504  -1.227   4.524  1.00  0.00     0.067 C
HETATM   25  C1  UNL     1     -23.293  -1.994   5.511  1.00  0.00     0.088 C
HETATM   26  N1  UNL     1     -21.960  -1.832   3.545  1.00  0.00    -0.389 N
ATOM     27  H12 UNL     1     -22.065  -2.840   3.432  1.00  0.00     0.157 HD
ATOM     28  H11 UNL     1     -21.415  -1.303   2.865  1.00  0.00     0.157 HD
ENDBRANCH  22  24
ENDBRANCH   1  22
BRANCH   2  29
HETATM   29  O1  UNL     1     -22.425   0.746   2.161  1.00  0.00    -0.356 OA
BRANCH  29  30
HETATM   30  C5  UNL     1     -21.879   1.303   1.008  1.00  0.00     0.210 C
BRANCH  30  31
HETATM   31  C6  UNL     1     -20.661   0.519   0.553  1.00  0.00     0.097 C
HETATM   32  C7  UNL     1     -20.327   0.792  -0.883  1.00  0.00     0.050 C
BRANCH  31  33
HETATM   33  O2  UNL     1     -20.947  -0.825   0.707  1.00  0.00    -0.386 OA
ATOM     34  H2  UNL     1     -21.126  -1.181  -0.155  1.00  0.00     0.210 HD
ENDBRANCH  31  33
BRANCH  31  35
HETATM   35  C8  UNL     1     -19.528   0.883   1.486  1.00  0.00     0.203 C
BRANCH  35  36
HETATM   36  O3  UNL     1     -19.769   0.253   2.693  1.00  0.00    -0.398 OA
ATOM     37  H3  UNL     1     -20.643   0.502   2.972  1.00  0.00     0.209 HD
ENDBRANCH  35  36
ENDBRANCH  31  35
ENDBRANCH  30  31
ENDBRANCH  29  30
ENDBRANCH   2  29
BRANCH   4  38
HETATM   38  C10 UNL     1     -22.708   4.811   2.716  1.00  0.00     0.136 C
BRANCH  38  39
HETATM   39  S1  UNL     1     -21.497   6.162   2.671  1.00  0.00    -0.137 SA
BRANCH  39  40
HETATM   40  C11 UNL     1     -19.870   5.440   2.329  1.00  0.00     0.303 C
BRANCH  40  41
HETATM   41  N3  UNL     1     -20.030   4.479   1.247  1.00  0.00    -0.071 N
ATOM     42  H33 UNL     1     -19.457   3.644   1.370  1.00  0.00     0.275 HD
ATOM     43  H32 UNL     1     -20.941   4.020   1.256  1.00  0.00     0.275 HD
ATOM     44  H31 UNL     1     -19.840   4.964   0.370  1.00  0.00     0.275 HD
ENDBRANCH  40  41
ENDBRANCH  39  40
ENDBRANCH  38  39
ENDBRANCH   4  38
TORSDOF 18
ENDMDL