MODEL 5
REMARK VINA RESULT: -7.278709406      1.519      2.520
REMARK  19 active torsions:
REMARK  status: ('A' for Active; 'I' for Inactive)
REMARK    1  A    between atoms: N1_2  and  C2_5
REMARK    2  A    between atoms: C3_6  and  O1_7
REMARK    3  A    between atoms: C6_12  and  O3_13
REMARK    4  A    between atoms: O3_13  and  C7_14
REMARK    5  A    between atoms: C8_15  and  N2_16
REMARK    6  A    between atoms: C10_21  and  C11_22
REMARK    7  A    between atoms: C11_22  and  N3_23
REMARK    8  A    between atoms: C12_27  and  O4_28
REMARK    9  A    between atoms: O4_28  and  C13_29
REMARK   10  A    between atoms: C13_29  and  C14_30
REMARK   11  A    between atoms: C14_30  and  O5_31
REMARK   12  A    between atoms: C14_30  and  C15_33
REMARK   13  A    between atoms: C15_33  and  N4_34
REMARK   14  A    between atoms: N4_34  and  C16_37
REMARK   15  A    between atoms: C16_37  and  C18_39
REMARK   16  A    between atoms: C18_39  and  C19_40
REMARK   17  A    between atoms: C19_40  and  N5_41
REMARK   18  A    between atoms: C20_45  and  N6_46
REMARK   19  A    between atoms: C21_50  and  O6_51
ROOT
HETATM    1  C7  UNL     1     -22.190   0.580   3.279  1.00  0.00     0.188 C
HETATM    2  C8  UNL     1     -21.826  -0.887   3.276  1.00  0.00     0.215 C
HETATM    3  C9  UNL     1     -22.674  -1.609   4.254  1.00  0.00     0.044 C
HETATM    4  C10 UNL     1     -22.524  -1.056   5.656  1.00  0.00     0.044 C
HETATM    5  C12 UNL     1     -22.899   0.401   5.709  1.00  0.00     0.160 C
HETATM    6  C20 UNL     1     -22.326   1.228   4.586  1.00  0.00     0.243 C
ENDROOT
BRANCH   5   7
HETATM    7  O4  UNL     1     -24.299   0.429   5.661  1.00  0.00    -0.381 OA
BRANCH   7   8
HETATM    8  C13 UNL     1     -24.832   1.462   6.413  1.00  0.00     0.201 C
BRANCH   8   9
HETATM    9  C14 UNL     1     -24.198   1.548   7.786  1.00  0.00     0.167 C
BRANCH   9  10
HETATM   10  O5  UNL     1     -23.439   2.741   7.887  1.00  0.00    -0.392 OA
ATOM     11  H5  UNL     1     -22.630   2.566   8.352  1.00  0.00     0.210 HD
ENDBRANCH   9  10
BRANCH   9  12
HETATM   12  C15 UNL     1     -25.301   1.705   8.813  1.00  0.00     0.266 C
BRANCH  12  13
HETATM   13  N4  UNL     1     -25.348   3.023   9.397  1.00  0.00    -0.069 N
ATOM     14  H42 UNL     1     -25.210   3.023  10.408  1.00  0.00     0.277 HD
ATOM     15  H41 UNL     1     -24.542   3.599   9.159  1.00  0.00     0.277 HD
BRANCH  13  16
HETATM   16  C16 UNL     1     -26.623   3.610   8.986  1.00  0.00     0.183 C
HETATM   17  C17 UNL     1     -27.219   4.304  10.198  1.00  0.00     0.040 C
BRANCH  16  18
HETATM   18  C18 UNL     1     -27.555   2.533   8.479  1.00  0.00     0.059 C
BRANCH  18  19
HETATM   19  C19 UNL     1     -28.289   3.108   7.264  1.00  0.00     0.231 C
BRANCH  19  20
HETATM   20  N5  UNL     1     -27.392   3.993   6.550  1.00  0.00    -0.079 N
ATOM     21  H53 UNL     1     -27.360   4.927   6.958  1.00  0.00     0.274 HD
ATOM     22  H52 UNL     1     -26.412   3.745   6.685  1.00  0.00     0.274 HD
ATOM     23  H51 UNL     1     -27.658   4.007   5.565  1.00  0.00     0.274 HD
ENDBRANCH  19  20
ENDBRANCH  18  19
ENDBRANCH  16  18
ENDBRANCH  13  16
ENDBRANCH  12  13
ENDBRANCH   9  12
ENDBRANCH   8   9
ENDBRANCH   7   8
ENDBRANCH   5   7
BRANCH   4  24
HETATM   24  C11 UNL     1     -23.322  -1.879   6.639  1.00  0.00     0.236 C
BRANCH  24  25
HETATM   25  N3  UNL     1     -23.691  -3.126   5.953  1.00  0.00    -0.079 N
ATOM     26  H33 UNL     1     -22.898  -3.749   5.800  1.00  0.00     0.274 HD
ATOM     27  H32 UNL     1     -24.241  -3.757   6.535  1.00  0.00     0.274 HD
ATOM     28  H31 UNL     1     -24.166  -2.860   5.090  1.00  0.00     0.274 HD
ENDBRANCH  24  25
ENDBRANCH   4  24
BRANCH   6  29
HETATM   29  N6  UNL     1     -23.271   2.371   4.502  1.00  0.00    -0.070 N
ATOM     30  H63 UNL     1     -23.569   2.547   3.542  1.00  0.00     0.274 HD
ATOM     31  H62 UNL     1     -24.181   2.142   4.902  1.00  0.00     0.274 HD
ATOM     32  H61 UNL     1     -22.865   3.202   4.933  1.00  0.00     0.274 HD
ENDBRANCH   6  29
BRANCH   1  33
HETATM   33  O3  UNL     1     -21.354   1.166   2.364  1.00  0.00    -0.349 OA
BRANCH  33  34
HETATM   34  C6  UNL     1     -21.855   1.641   1.201  1.00  0.00     0.291 C
HETATM   35  O2  UNL     1     -21.101   1.016   0.187  1.00  0.00    -0.351 OA
HETATM   36  C4  UNL     1     -21.386   1.512  -1.063  1.00  0.00     0.151 C
HETATM   37  C3  UNL     1     -21.113   2.984  -1.204  1.00  0.00     0.180 C
HETATM   38  C5  UNL     1     -20.517   0.791  -2.067  1.00  0.00     0.042 C
HETATM   39  C2  UNL     1     -20.660   3.545   0.097  1.00  0.00     0.249 C
HETATM   40  C21 UNL     1     -21.674   3.137   1.162  1.00  0.00     0.206 C
BRANCH  37  41
HETATM   41  O1  UNL     1     -20.187   3.253  -2.210  1.00  0.00    -0.391 OA
ATOM     42  H1  UNL     1     -20.234   4.162  -2.479  1.00  0.00     0.210 HD
ENDBRANCH  37  41
BRANCH  39  43
HETATM   43  N1  UNL     1     -19.356   3.148   0.508  1.00  0.00    -0.070 N
HETATM   44  C1  UNL     1     -18.373   4.185   0.413  1.00  0.00     0.267 C
ATOM     45  H12 UNL     1     -19.054   2.320  -0.007  1.00  0.00     0.277 HD
ATOM     46  H11 UNL     1     -19.380   2.763   1.452  1.00  0.00     0.277 HD
ENDBRANCH  39  43
BRANCH  40  47
HETATM   47  O6  UNL     1     -21.215   3.678   2.363  1.00  0.00    -0.388 OA
ATOM     48  H6  UNL     1     -20.989   2.940   2.917  1.00  0.00     0.210 HD
ENDBRANCH  40  47
ENDBRANCH  33  34
ENDBRANCH   1  33
BRANCH   2  49
HETATM   49  N2  UNL     1     -20.415  -1.115   3.421  1.00  0.00    -0.072 N
ATOM     50  H23 UNL     1     -20.215  -1.632   4.277  1.00  0.00     0.274 HD
ATOM     51  H22 UNL     1     -20.083  -1.793   2.735  1.00  0.00     0.274 HD
ATOM     52  H21 UNL     1     -19.867  -0.255   3.377  1.00  0.00     0.274 HD
ENDBRANCH   2  49
TORSDOF 19
ENDMDL