MODEL 4
REMARK VINA RESULT: -7.146824444      1.996      3.534
REMARK  18 active torsions:
REMARK  status: ('A' for Active; 'I' for Inactive)
REMARK    1  A    between atoms: N1_1  and  C1_5
REMARK    2  A    between atoms: C3_7  and  N2_8
REMARK    3  A    between atoms: C4_12  and  O1_13
REMARK    4  A    between atoms: C5_15  and  O2_16
REMARK    5  A    between atoms: O2_16  and  C6_17
REMARK    6  A    between atoms: C7_18  and  N3_19
REMARK    7  A    between atoms: C9_24  and  N4_25
REMARK    8  A    between atoms: C10_29  and  O3_30
REMARK    9  A    between atoms: O3_30  and  C11_31
REMARK   10  A    between atoms: C13_33  and  C14_34
REMARK   11  A    between atoms: C14_34  and  O4_35
REMARK   12  A    between atoms: O4_35  and  C15_36
REMARK   13  A    between atoms: C15_36  and  O5_37
REMARK   14  A    between atoms: C15_36  and  N5_39
REMARK   15  A    between atoms: N5_39  and  C16_42
REMARK   16  A    between atoms: C16_42  and  C17_43
REMARK   17  A    between atoms: C17_43  and  C18_44
REMARK   18  A    between atoms: C19_48  and  N6_49
ROOT
HETATM    1  C6  UNL     1     -21.400   3.110   2.556  1.00  0.00     0.183 C
HETATM    2  C7  UNL     1     -21.430   4.591   2.961  1.00  0.00     0.217 C
HETATM    3  C8  UNL     1     -22.631   4.775   3.859  1.00  0.00     0.071 C
HETATM    4  C9  UNL     1     -23.534   3.651   3.446  1.00  0.00     0.217 C
HETATM    5  C10 UNL     1     -22.508   2.504   3.435  1.00  0.00     0.186 C
ENDROOT
BRANCH   1   6
HETATM    6  O2  UNL     1     -20.230   2.595   2.833  1.00  0.00    -0.371 OA
BRANCH   6   7
HETATM    7  C5  UNL     1     -19.366   2.099   1.928  1.00  0.00     0.185 C
HETATM    8  C4  UNL     1     -19.623   0.723   1.426  1.00  0.00     0.179 C
HETATM    9  C3  UNL     1     -20.485   0.598   0.229  1.00  0.00     0.216 C
HETATM   10  C2  UNL     1     -20.414   1.652  -0.795  1.00  0.00     0.070 C
HETATM   11  C1  UNL     1     -19.891   2.986  -0.373  1.00  0.00     0.218 C
HETATM   12  C19 UNL     1     -18.940   2.946   0.775  1.00  0.00     0.245 C
BRANCH   8  13
HETATM   13  O1  UNL     1     -20.205  -0.000   2.493  1.00  0.00    -0.391 OA
ATOM     14  H1  UNL     1     -19.599  -0.676   2.777  1.00  0.00     0.210 HD
ENDBRANCH   8  13
BRANCH   9  15
HETATM   15  N2  UNL     1     -21.859   0.393   0.674  1.00  0.00    -0.072 N
ATOM     16  H23 UNL     1     -22.270   1.253   1.037  1.00  0.00     0.274 HD
ATOM     17  H22 UNL     1     -22.490   0.239  -0.112  1.00  0.00     0.274 HD
ATOM     18  H21 UNL     1     -21.914  -0.366   1.354  1.00  0.00     0.274 HD
ENDBRANCH   9  15
BRANCH  11  19
HETATM   19  N1  UNL     1     -19.136   3.587  -1.491  1.00  0.00    -0.073 N
ATOM     20  H13 UNL     1     -18.131   3.438  -1.403  1.00  0.00     0.274 HD
ATOM     21  H12 UNL     1     -19.279   3.088  -2.368  1.00  0.00     0.274 HD
ATOM     22  H11 UNL     1     -19.375   4.576  -1.564  1.00  0.00     0.274 HD
ENDBRANCH  11  19
BRANCH  12  23
HETATM   23  N6  UNL     1     -18.511   4.265   1.119  1.00  0.00    -0.070 N
ATOM     24  H63 UNL     1     -17.617   4.498   0.685  1.00  0.00     0.274 HD
ATOM     25  H62 UNL     1     -19.088   4.978   0.675  1.00  0.00     0.274 HD
ATOM     26  H61 UNL     1     -18.481   4.379   2.133  1.00  0.00     0.274 HD
ENDBRANCH  12  23
ENDBRANCH   6   7
ENDBRANCH   1   6
BRANCH   2  27
HETATM   27  N3  UNL     1     -21.610   5.446   1.802  1.00  0.00    -0.072 N
ATOM     28  H33 UNL     1     -22.146   4.979   1.071  1.00  0.00     0.274 HD
ATOM     29  H32 UNL     1     -22.252   6.214   1.998  1.00  0.00     0.274 HD
ATOM     30  H31 UNL     1     -20.714   5.785   1.453  1.00  0.00     0.274 HD
ENDBRANCH   2  27
BRANCH   5  31
HETATM   31  O3  UNL     1     -22.083   2.330   4.727  1.00  0.00    -0.351 OA
BRANCH  31  32
HETATM   32  C11 UNL     1     -22.053   0.968   5.003  1.00  0.00     0.263 C
HETATM   33  C12 UNL     1     -23.229   0.162   4.567  1.00  0.00     0.095 C
HETATM   34  C13 UNL     1     -23.588   0.328   6.017  1.00  0.00     0.153 C
HETATM   35  O8  UNL     1     -22.289   0.685   6.339  1.00  0.00    -0.354 OA
BRANCH  34  36
HETATM   36  C14 UNL     1     -24.609   1.411   6.201  1.00  0.00     0.205 C
BRANCH  36  37
HETATM   37  O4  UNL     1     -25.553   1.021   7.117  1.00  0.00    -0.337 OA
BRANCH  37  38
HETATM   38  C15 UNL     1     -25.206   1.137   8.435  1.00  0.00     0.466 C
BRANCH  38  39
HETATM   39  O5  UNL     1     -24.907  -0.115   9.019  1.00  0.00    -0.350 OA
ATOM     40  H5  UNL     1     -24.024  -0.403   8.816  1.00  0.00     0.214 HD
ENDBRANCH  38  39
BRANCH  38  41
HETATM   41  N5  UNL     1     -26.296   1.709   9.209  1.00  0.00    -0.025 N
ATOM     42  H52 UNL     1     -27.187   1.668   8.713  1.00  0.00     0.283 HD
ATOM     43  H51 UNL     1     -26.552   1.128  10.008  1.00  0.00     0.283 HD
BRANCH  41  44
HETATM   44  C16 UNL     1     -25.937   3.077   9.603  1.00  0.00     0.249 C
BRANCH  44  45
HETATM   45  C17 UNL     1     -27.121   3.997   9.446  1.00  0.00     0.141 C
BRANCH  45  46
HETATM   46  C18 UNL     1     -27.404   4.133   7.994  1.00  0.00     0.174 C
HETATM   47  O6  UNL     1     -26.976   5.088   7.322  1.00  0.00    -0.648 OA
HETATM   48  O7  UNL     1     -28.172   3.180   7.323  1.00  0.00    -0.648 OA
ENDBRANCH  45  46
ENDBRANCH  44  45
ENDBRANCH  41  44
ENDBRANCH  38  41
ENDBRANCH  37  38
ENDBRANCH  36  37
ENDBRANCH  34  36
ENDBRANCH  31  32
ENDBRANCH   5  31
BRANCH   4  49
HETATM   49  N4  UNL     1     -24.053   3.848   2.117  1.00  0.00    -0.072 N
ATOM     50  H43 UNL     1     -23.640   3.193   1.454  1.00  0.00     0.274 HD
ATOM     51  H42 UNL     1     -25.026   3.550   2.049  1.00  0.00     0.274 HD
ATOM     52  H41 UNL     1     -23.936   4.812   1.807  1.00  0.00     0.274 HD
ENDBRANCH   4  49
TORSDOF 18
ENDMDL