MODEL 1
REMARK VINA RESULT: -7.711987115      0.000      0.000
REMARK  19 active torsions:
REMARK  status: ('A' for Active; 'I' for Inactive)
REMARK    1  A    between atoms: C2_2  and  C3_3
REMARK    2  A    between atoms: C3_3  and  N1_5
REMARK    3  A    between atoms: N1_5  and  C5_7
REMARK    4  A    between atoms: C6_8  and  N2_9
REMARK    5  A    between atoms: C7_13  and  C8_14
REMARK    6  A    between atoms: C8_14  and  O1_15
REMARK    7  A    between atoms: O1_15  and  C9_16
REMARK    8  A    between atoms: C10_18  and  C11_19
REMARK    9  A    between atoms: C11_19  and  O3_20
REMARK   10  A    between atoms: C12_22  and  N3_23
REMARK   11  A    between atoms: C13_27  and  O4_28
REMARK   12  A    between atoms: C14_30  and  O5_31
REMARK   13  A    between atoms: C15_34  and  C16_35
REMARK   14  A    between atoms: C16_35  and  C17_36
REMARK   15  A    between atoms: C16_35  and  C18_39
REMARK   16  A    between atoms: C16_35  and  O9_42
REMARK   17  A    between atoms: C17_36  and  O7_37
REMARK   18  A    between atoms: C18_39  and  O8_40
REMARK   19  A    between atoms: O9_42  and  C19_43
ROOT
HETATM    1  C5  UNL     1     -21.468   3.380   2.551  1.00  0.00     0.142 C
HETATM    2  C6  UNL     1     -22.121   3.172   3.887  1.00  0.00     0.239 C
HETATM    3  C7  UNL     1     -21.969   1.644   4.110  1.00  0.00     0.178 C
HETATM    4  O6  UNL     1     -21.656   1.104   2.897  1.00  0.00    -0.371 OA
HETATM    5  C15 UNL     1     -21.840   2.058   1.880  1.00  0.00     0.186 C
ENDROOT
BRANCH   3   6
HETATM    6  C8  UNL     1     -23.288   1.143   4.629  1.00  0.00     0.205 C
BRANCH   6   7
HETATM    7  O1  UNL     1     -23.594   1.558   5.888  1.00  0.00    -0.356 OA
BRANCH   7   8
HETATM    8  C9  UNL     1     -24.936   1.473   6.249  1.00  0.00     0.291 C
HETATM    9  O2  UNL     1     -25.399   2.767   6.370  1.00  0.00    -0.349 OA
HETATM   10  C10 UNL     1     -26.596   2.894   7.032  1.00  0.00     0.181 C
HETATM   11  C12 UNL     1     -26.358   2.505   8.476  1.00  0.00     0.245 C
HETATM   12  C13 UNL     1     -26.127   1.003   8.440  1.00  0.00     0.184 C
HETATM   13  C14 UNL     1     -25.027   0.654   7.511  1.00  0.00     0.204 C
BRANCH  10  14
HETATM   14  C11 UNL     1     -27.093   4.316   6.906  1.00  0.00     0.198 C
BRANCH  14  15
HETATM   15  O3  UNL     1     -26.562   5.134   7.889  1.00  0.00    -0.398 OA
ATOM     16  H3  UNL     1     -26.111   5.883   7.518  1.00  0.00     0.209 HD
ENDBRANCH  14  15
ENDBRANCH  10  14
BRANCH  11  17
HETATM   17  N3  UNL     1     -27.427   2.848   9.352  1.00  0.00    -0.070 N
ATOM     18  H33 UNL     1     -28.015   3.569   8.934  1.00  0.00     0.274 HD
ATOM     19  H32 UNL     1     -28.102   2.086   9.409  1.00  0.00     0.274 HD
ATOM     20  H31 UNL     1     -27.125   3.129  10.285  1.00  0.00     0.274 HD
ENDBRANCH  11  17
BRANCH  12  21
HETATM   21  O4  UNL     1     -25.780   0.586   9.724  1.00  0.00    -0.391 OA
ATOM     22  H4  UNL     1     -25.375  -0.271   9.658  1.00  0.00     0.210 HD
ENDBRANCH  12  21
BRANCH  13  23
HETATM   23  O5  UNL     1     -23.820   0.724   8.208  1.00  0.00    -0.388 OA
ATOM     24  H5  UNL     1     -23.966   0.525   9.126  1.00  0.00     0.210 HD
ENDBRANCH  13  23
ENDBRANCH   7   8
ENDBRANCH   6   7
ENDBRANCH   3   6
BRANCH   2  25
HETATM   25  N2  UNL     1     -23.541   3.465   3.832  1.00  0.00    -0.070 N
ATOM     26  H23 UNL     1     -23.838   4.033   4.627  1.00  0.00     0.274 HD
ATOM     27  H22 UNL     1     -23.760   4.120   3.081  1.00  0.00     0.274 HD
ATOM     28  H21 UNL     1     -24.093   2.611   3.756  1.00  0.00     0.274 HD
ENDBRANCH   2  25
BRANCH   1  29
HETATM   29  N1  UNL     1     -21.853   4.507   1.859  1.00  0.00    -0.409 N
ATOM     30  H1  UNL     1     -22.573   4.382   1.148  1.00  0.00     0.154 HD
BRANCH  29  31
HETATM   31  C3  UNL     1     -21.369   5.787   2.026  1.00  0.00     0.072 C
HETATM   32  C4  UNL     1     -22.297   6.774   2.652  1.00  0.00     0.031 C
BRANCH  31  33
HETATM   33  C2  UNL     1     -20.007   5.897   2.696  1.00  0.00     0.020 C
HETATM   34  C1  UNL     1     -19.859   7.184   3.476  1.00  0.00     0.007 C
ENDBRANCH  31  33
ENDBRANCH  29  31
ENDBRANCH   1  29
BRANCH   5  35
HETATM   35  C16 UNL     1     -20.905   1.671   0.777  1.00  0.00     0.140 C
BRANCH  35  36
HETATM   36  C17 UNL     1     -21.061   0.148   0.617  1.00  0.00     0.207 C
BRANCH  36  37
HETATM   37  O7  UNL     1     -20.227  -0.356  -0.357  1.00  0.00    -0.398 OA
ATOM     38  H7  UNL     1     -20.593  -1.126  -0.776  1.00  0.00     0.209 HD
ENDBRANCH  36  37
ENDBRANCH  35  36
BRANCH  35  39
HETATM   39  C18 UNL     1     -19.440   1.849   1.185  1.00  0.00     0.207 C
BRANCH  39  40
HETATM   40  O8  UNL     1     -18.946   0.689   1.799  1.00  0.00    -0.398 OA
ATOM     41  H8  UNL     1     -18.990   0.760   2.744  1.00  0.00     0.209 HD
ENDBRANCH  39  40
ENDBRANCH  35  39
BRANCH  35  42
HETATM   42  O9  UNL     1     -21.065   2.332  -0.429  1.00  0.00    -0.303 OA
BRANCH  42  43
HETATM   43  C19 UNL     1     -20.157   3.150  -1.073  1.00  0.00     0.255 C
HETATM   44  C20 UNL     1     -19.512   2.655  -2.311  1.00  0.00     0.126 C
HETATM   45  O10 UNL     1     -19.934   4.275  -0.558  1.00  0.00    -0.266 OA
ENDBRANCH  42  43
ENDBRANCH  35  42
ENDBRANCH   5  35
TORSDOF 19
ENDMDL