MODEL 2
REMARK VINA RESULT: -7.447535524      2.489      3.607
REMARK  17 active torsions:
REMARK  status: ('A' for Active; 'I' for Inactive)
REMARK    1  A    between atoms: S1_2  and  N1_3
REMARK    2  A    between atoms: S1_2  and  O8_38
REMARK    3  A    between atoms: N1_3  and  C2_5
REMARK    4  A    between atoms: C3_6  and  O1_7
REMARK    5  A    between atoms: O1_7  and  C4_8
REMARK    6  A    between atoms: C5_9  and  N2_10
REMARK    7  A    between atoms: C8_16  and  O2_17
REMARK    8  A    between atoms: O2_17  and  C9_18
REMARK    9  A    between atoms: C9_18  and  C10_19
REMARK   10  A    between atoms: C10_19  and  N3_20
REMARK   11  A    between atoms: C11_24  and  O3_25
REMARK   12  A    between atoms: C12_28  and  C13_29
REMARK   13  A    between atoms: C13_29  and  O5_30
REMARK   14  A    between atoms: C14_32  and  O6_33
REMARK   15  A    between atoms: C15_35  and  O7_36
REMARK   16  A    between atoms: O8_38  and  C16_39
REMARK   17  A    between atoms: C16_39  and  C17_40
ROOT
HETATM    1  C2  UNL     1     -21.396   3.182   0.522  1.00  0.00     0.176 C
HETATM    2  C3  UNL     1     -20.856   2.172   1.546  1.00  0.00     0.286 C
HETATM    3  O4  UNL     1     -19.703   1.551   1.086  1.00  0.00    -0.349 OA
HETATM    4  C12 UNL     1     -18.605   2.399   1.072  1.00  0.00     0.179 C
HETATM    5  C14 UNL     1     -19.029   3.743   0.565  1.00  0.00     0.180 C
HETATM    6  C15 UNL     1     -20.216   3.501  -0.368  1.00  0.00     0.177 C
ENDROOT
BRANCH   2   7
HETATM    7  O1  UNL     1     -21.791   1.205   1.805  1.00  0.00    -0.349 OA
BRANCH   7   8
HETATM    8  C4  UNL     1     -21.333   0.212   2.678  1.00  0.00     0.186 C
HETATM    9  C5  UNL     1     -22.060  -1.083   2.533  1.00  0.00     0.215 C
HETATM   10  C6  UNL     1     -22.138  -1.916   3.766  1.00  0.00     0.038 C
HETATM   11  C7  UNL     1     -22.584  -1.197   4.990  1.00  0.00     0.036 C
HETATM   12  C8  UNL     1     -22.841   0.259   4.580  1.00  0.00     0.152 C
HETATM   13  C11 UNL     1     -21.522   0.771   4.073  1.00  0.00     0.178 C
BRANCH   9  14
HETATM   14  N2  UNL     1     -21.407  -1.928   1.515  1.00  0.00    -0.072 N
ATOM     15  H23 UNL     1     -21.621  -1.616   0.568  1.00  0.00     0.274 HD
ATOM     16  H22 UNL     1     -20.397  -1.787   1.496  1.00  0.00     0.274 HD
ATOM     17  H21 UNL     1     -21.651  -2.908   1.657  1.00  0.00     0.274 HD
ENDBRANCH   9  14
BRANCH  12  18
HETATM   18  O2  UNL     1     -23.408   0.991   5.570  1.00  0.00    -0.382 OA
BRANCH  18  19
HETATM   19  C9  UNL     1     -24.506   0.475   6.184  1.00  0.00     0.195 C
BRANCH  19  20
HETATM   20  C10 UNL     1     -24.932   1.261   7.421  1.00  0.00     0.255 C
BRANCH  20  21
HETATM   21  N3  UNL     1     -25.108   0.374   8.557  1.00  0.00    -0.077 N
ATOM     22  H33 UNL     1     -25.194  -0.600   8.266  1.00  0.00     0.274 HD
ATOM     23  H32 UNL     1     -24.254   0.293   9.109  1.00  0.00     0.274 HD
ATOM     24  H31 UNL     1     -25.901   0.671   9.126  1.00  0.00     0.274 HD
ENDBRANCH  20  21
ENDBRANCH  19  20
ENDBRANCH  18  19
ENDBRANCH  12  18
BRANCH  13  25
HETATM   25  O3  UNL     1     -20.440   0.307   4.828  1.00  0.00    -0.390 OA
ATOM     26  H3  UNL     1     -20.812  -0.087   5.608  1.00  0.00     0.210 HD
ENDBRANCH  13  25
ENDBRANCH   7   8
ENDBRANCH   2   7
BRANCH   1  27
HETATM   27  N1  UNL     1     -21.927   4.351   1.180  1.00  0.00    -0.341 N
ATOM     28  H1  UNL     1     -22.238   5.095   0.554  1.00  0.00     0.169 HD
BRANCH  27  29
HETATM   29  S1  UNL     1     -22.114   4.675   2.809  1.00  0.00     0.001 SA
HETATM   30  C1  UNL     1     -23.785   3.876   3.641  1.00  0.00     0.133 C
BRANCH  29  31
HETATM   31  O8  UNL     1     -21.457   5.739   3.848  1.00  0.00    -0.306 OA
BRANCH  31  32
HETATM   32  C16 UNL     1     -21.003   6.986   3.400  1.00  0.00     0.258 C
BRANCH  32  33
HETATM   33  C17 UNL     1     -19.534   7.015   3.320  1.00  0.00     0.111 C
HETATM   34  N4  UNL     1     -18.902   6.239   2.479  1.00  0.00    -0.389 N
ATOM     35  H42 UNL     1     -19.490   5.635   1.905  1.00  0.00     0.157 HD
ATOM     36  H41 UNL     1     -17.883   6.259   2.423  1.00  0.00     0.157 HD
HETATM   37  N5  UNL     1     -18.720   7.852   4.114  1.00  0.00    -0.086 NA
ENDBRANCH  32  33
ENDBRANCH  31  32
ENDBRANCH  29  31
ENDBRANCH  27  29
ENDBRANCH   1  27
BRANCH   6  38
HETATM   38  O7  UNL     1     -20.367   4.600  -1.164  1.00  0.00    -0.391 OA
ATOM     39  H7  UNL     1     -20.778   4.437  -2.004  1.00  0.00     0.210 HD
ENDBRANCH   6  38
BRANCH   4  40
HETATM   40  C13 UNL     1     -17.948   2.526   2.424  1.00  0.00     0.198 C
BRANCH  40  41
HETATM   41  O5  UNL     1     -16.623   2.936   2.294  1.00  0.00    -0.398 OA
ATOM     42  H5  UNL     1     -16.393   3.555   2.977  1.00  0.00     0.209 HD
ENDBRANCH  40  41
ENDBRANCH   4  40
BRANCH   5  43
HETATM   43  O6  UNL     1     -18.000   4.305  -0.186  1.00  0.00    -0.390 OA
ATOM     44  H6  UNL     1     -17.886   5.215   0.060  1.00  0.00     0.210 HD
ENDBRANCH   5  43
TORSDOF 17
ENDMDL