MODEL 3
REMARK VINA RESULT: -7.264773692      1.699      2.188
REMARK  18 active torsions:
REMARK  status: ('A' for Active; 'I' for Inactive)
REMARK    1  A    between atoms: C1_4  and  C2_5
REMARK    2  A    between atoms: C2_5  and  O1_6
REMARK    3  A    between atoms: O1_6  and  N2_7
REMARK    4  A    between atoms: N2_7  and  C3_8
REMARK    5  A    between atoms: C3_8  and  C4_9
REMARK    6  A    between atoms: C4_9  and  C5_10
REMARK    7  A    between atoms: C5_10  and  C6_11
REMARK       I    between atoms: C6_11  and  N3_13
REMARK    8  A    between atoms: N3_13  and  C7_15
REMARK    9  A    between atoms: C8_16  and  O3_17
REMARK   10  A    between atoms: C9_19  and  O4_20
REMARK   11  A    between atoms: C10_22  and  N4_23
REMARK   12  A    between atoms: C11_27  and  O5_28
REMARK   13  A    between atoms: O5_28  and  C12_29
REMARK   14  A    between atoms: C13_31  and  C14_32
REMARK   15  A    between atoms: C14_32  and  N5_33
REMARK   16  A    between atoms: C17_39  and  N6_40
REMARK   17  A    between atoms: C18_44  and  O7_45
REMARK   18  A    between atoms: C19_47  and  O8_48
ROOT
HETATM    1  C7  UNL     1     -21.194   0.011   2.661  1.00  0.00     0.147 C
HETATM    2  C8  UNL     1     -22.004   0.032   1.384  1.00  0.00     0.174 C
HETATM    3  C9  UNL     1     -21.168   0.518   0.202  1.00  0.00     0.182 C
HETATM    4  C10 UNL     1     -20.870   1.970   0.343  1.00  0.00     0.246 C
HETATM    5  C11 UNL     1     -19.503   2.249   0.946  1.00  0.00     0.189 C
HETATM    6  C18 UNL     1     -19.371   1.716   2.352  1.00  0.00     0.180 C
HETATM    7  C19 UNL     1     -20.652   1.365   3.028  1.00  0.00     0.174 C
ENDROOT
BRANCH   5   8
HETATM    8  O5  UNL     1     -19.254   3.604   1.030  1.00  0.00    -0.349 OA
BRANCH   8   9
HETATM    9  C12 UNL     1     -19.867   4.275   2.038  1.00  0.00     0.291 C
HETATM   10  O6  UNL     1     -19.355   5.573   2.079  1.00  0.00    -0.352 OA
HETATM   11  C13 UNL     1     -19.684   6.238   3.255  1.00  0.00     0.150 C
HETATM   12  C15 UNL     1     -21.166   6.290   3.456  1.00  0.00     0.036 C
HETATM   13  C16 UNL     1     -21.836   4.965   3.275  1.00  0.00     0.040 C
HETATM   14  C17 UNL     1     -21.357   4.385   1.949  1.00  0.00     0.238 C
BRANCH  11  15
HETATM   15  C14 UNL     1     -19.194   7.673   3.089  1.00  0.00     0.261 C
BRANCH  15  16
HETATM   16  N5  UNL     1     -17.849   7.799   3.595  1.00  0.00    -0.077 N
ATOM     17  H53 UNL     1     -17.820   8.309   4.477  1.00  0.00     0.274 HD
ATOM     18  H52 UNL     1     -17.481   6.908   3.925  1.00  0.00     0.274 HD
ATOM     19  H51 UNL     1     -17.247   8.223   2.888  1.00  0.00     0.274 HD
ENDBRANCH  15  16
ENDBRANCH  11  15
BRANCH  14  20
HETATM   20  N6  UNL     1     -21.788   5.308   0.915  1.00  0.00    -0.070 N
ATOM     21  H63 UNL     1     -21.176   6.123   0.873  1.00  0.00     0.274 HD
ATOM     22  H62 UNL     1     -21.614   4.924  -0.014  1.00  0.00     0.274 HD
ATOM     23  H61 UNL     1     -22.763   5.588   1.020  1.00  0.00     0.274 HD
ENDBRANCH  14  20
ENDBRANCH   8   9
ENDBRANCH   5   8
BRANCH   4  24
HETATM   24  N4  UNL     1     -20.984   2.570  -0.981  1.00  0.00    -0.070 N
ATOM     25  H43 UNL     1     -21.685   3.310  -1.024  1.00  0.00     0.274 HD
ATOM     26  H42 UNL     1     -20.176   3.139  -1.230  1.00  0.00     0.274 HD
ATOM     27  H41 UNL     1     -21.161   1.815  -1.644  1.00  0.00     0.274 HD
ENDBRANCH   4  24
BRANCH   6  28
HETATM   28  O7  UNL     1     -18.535   0.583   2.377  1.00  0.00    -0.390 OA
ATOM     29  H7  UNL     1     -18.932  -0.115   2.883  1.00  0.00     0.210 HD
ENDBRANCH   6  28
BRANCH   3  30
HETATM   30  O4  UNL     1     -20.076  -0.304   0.104  1.00  0.00    -0.391 OA
ATOM     31  H4  UNL     1     -20.380  -1.197   0.217  1.00  0.00     0.210 HD
ENDBRANCH   3  30
BRANCH   7  32
HETATM   32  O8  UNL     1     -20.349   1.286   4.411  1.00  0.00    -0.391 OA
ATOM     33  H8  UNL     1     -20.083   0.386   4.559  1.00  0.00     0.210 HD
ENDBRANCH   7  32
BRANCH   2  34
HETATM   34  O3  UNL     1     -22.403  -1.257   1.082  1.00  0.00    -0.391 OA
ATOM     35  H3  UNL     1     -22.433  -1.359   0.138  1.00  0.00     0.210 HD
ENDBRANCH   2  34
BRANCH   1  36
HETATM   36  N3  UNL     1     -22.087  -0.403   3.721  1.00  0.00    -0.351 N
HETATM   37  C6  UNL     1     -22.337  -1.777   4.032  1.00  0.00     0.218 C
HETATM   38  O2  UNL     1     -21.741  -2.626   3.339  1.00  0.00    -0.274 OA
ATOM     39  H3  UNL     1     -22.558   0.316   4.270  1.00  0.00     0.163 HD
BRANCH  37  40
HETATM   40  C5  UNL     1     -23.237  -2.209   5.100  1.00  0.00     0.104 C
BRANCH  40  41
HETATM   41  C4  UNL     1     -23.099  -1.427   6.345  1.00  0.00     0.027 C
BRANCH  41  42
HETATM   42  C3  UNL     1     -24.406  -1.088   6.995  1.00  0.00     0.143 C
BRANCH  42  43
HETATM   43  N2  UNL     1     -24.198  -0.764   8.412  1.00  0.00    -0.101 NA
BRANCH  43  44
HETATM   44  O1  UNL     1     -25.144  -0.009   8.938  1.00  0.00    -0.281 OA
BRANCH  44  45
HETATM   45  C2  UNL     1     -24.955   1.342   8.706  1.00  0.00     0.239 C
BRANCH  45  46
HETATM   46  C1  UNL     1     -26.223   2.114   8.895  1.00  0.00     0.081 C
HETATM   47  N1  UNL     1     -26.411   2.706  10.006  1.00  0.00    -0.409 N
ATOM     48  H12 UNL     1     -25.704   2.647  10.739  1.00  0.00     0.155 HD
ATOM     49  H11 UNL     1     -27.275   3.232  10.135  1.00  0.00     0.155 HD
ENDBRANCH  45  46
ENDBRANCH  44  45
ENDBRANCH  43  44
ENDBRANCH  42  43
ENDBRANCH  41  42
ENDBRANCH  40  41
ENDBRANCH  37  40
ENDBRANCH   1  36
TORSDOF 18
ENDMDL