MODEL 3
REMARK VINA RESULT: -8.699564238      2.093      2.745
REMARK  17 active torsions:
REMARK  status: ('A' for Active; 'I' for Inactive)
REMARK    1  A    between atoms: C2_7  and  C3_8
REMARK    2  A    between atoms: C3_8  and  N5_12
REMARK       I    between atoms: N5_12  and  C4_14
REMARK       I    between atoms: C4_14  and  N7_18
REMARK    3  A    between atoms: N7_18  and  C5_20
REMARK    4  A    between atoms: C5_20  and  C6_21
REMARK    5  A    between atoms: C6_21  and  N8_22
REMARK    6  A    between atoms: N8_22  and  C7_25
REMARK    7  A    between atoms: C7_25  and  C8_26
REMARK    8  A    between atoms: C8_26  and  C9_27
REMARK    9  A    between atoms: C9_27  and  N9_28
REMARK   10  A    between atoms: N9_28  and  C10_31
REMARK   11  A    between atoms: C10_31  and  C11_32
REMARK   12  A    between atoms: C12_33  and  O1_34
REMARK   13  A    between atoms: C13_36  and  N10_37
REMARK   14  A    between atoms: C14_41  and  O2_42
REMARK   15  A    between atoms: C15_44  and  O3_45
REMARK   16  A    between atoms: C16_47  and  C17_48
REMARK   17  A    between atoms: C17_48  and  C18_49
ROOT
HETATM    1  C7  UNL     1      42.534  -1.707   5.519  1.00  0.00     0.234 C
ENDROOT
BRANCH   1   2
HETATM    2  N8  UNL     1      41.925  -0.885   6.528  1.00  0.00    -0.074 N
ATOM      3  H82 UNL     1      42.491  -0.874   7.377  1.00  0.00     0.277 HD
ATOM      4  H81 UNL     1      41.081  -1.326   6.894  1.00  0.00     0.277 HD
BRANCH   2   5
HETATM    5  C6  UNL     1      41.651   0.448   6.084  1.00  0.00     0.252 C
BRANCH   5   6
HETATM    6  C5  UNL     1      42.192   1.521   7.023  1.00  0.00     0.165 C
BRANCH   6   7
HETATM    7  N7  UNL     1      41.080   2.285   7.543  1.00  0.00    -0.225 N
HETATM    8  C4  UNL     1      41.266   3.669   7.778  1.00  0.00     0.673 C
HETATM    9  N5  UNL     1      40.123   4.544   7.797  1.00  0.00    -0.174 N
HETATM   10  N6  UNL     1      42.433   4.159   7.975  1.00  0.00    -0.235 N
ATOM     11  H5  UNL     1      40.098   5.412   7.262  1.00  0.00     0.186 HD
ATOM     12  H62 UNL     1      42.568   5.156   8.144  1.00  0.00     0.174 HD
ATOM     13  H61 UNL     1      43.243   3.540   7.962  1.00  0.00     0.174 HD
ATOM     14  H7  UNL     1      40.183   1.838   7.736  1.00  0.00     0.177 HD
BRANCH   9  15
HETATM   15  C3  UNL     1      39.039   4.127   8.601  1.00  0.00     0.162 C
HETATM   16  N4  UNL     1      38.917   4.593   9.786  1.00  0.00    -0.382 N
ATOM     17  H42 UNL     1      38.134   4.293  10.366  1.00  0.00     0.157 HD
ATOM     18  H41 UNL     1      39.591   5.261  10.163  1.00  0.00     0.157 HD
BRANCH  15  19
HETATM   19  C2  UNL     1      38.084   3.182   8.066  1.00  0.00     0.182 A
HETATM   20  N3  UNL     1      37.888   1.901   8.436  1.00  0.00    -0.265 N
HETATM   21  N2  UNL     1      36.906   1.395   7.677  1.00  0.00    -0.225 N
ATOM     22  H3  UNL     1      38.398   1.403   9.165  1.00  0.00     0.190 HD
HETATM   23  N1  UNL     1      36.498   2.325   6.857  1.00  0.00    -0.223 N
ATOM     24  H2  UNL     1      36.541   0.444   7.730  1.00  0.00     0.210 HD
HETATM   25  C1  UNL     1      35.442   2.152   5.874  1.00  0.00     0.202 C
HETATM   26  N11 UNL     1      37.192   3.426   7.066  1.00  0.00    -0.264 N
ATOM     27  H11 UNL     1      37.081   4.308   6.565  1.00  0.00     0.190 HD
ENDBRANCH  15  19
ENDBRANCH   9  15
ENDBRANCH   6   7
ENDBRANCH   5   6
ENDBRANCH   2   5
ENDBRANCH   1   2
BRANCH   1  28
HETATM   28  C8  UNL     1      43.213  -0.912   4.429  1.00  0.00     0.055 C
BRANCH  28  29
HETATM   29  C9  UNL     1      44.061  -1.765   3.547  1.00  0.00     0.233 C
BRANCH  29  30
HETATM   30  N9  UNL     1      44.969  -1.030   2.696  1.00  0.00    -0.075 N
ATOM     31  H92 UNL     1      45.661  -0.519   3.244  1.00  0.00     0.277 HD
ATOM     32  H91 UNL     1      45.596  -1.657   2.192  1.00  0.00     0.277 HD
BRANCH  30  33
HETATM   33  C10 UNL     1      44.270  -0.165   1.804  1.00  0.00     0.239 C
BRANCH  33  34
HETATM   34  C11 UNL     1      44.978   1.136   1.500  1.00  0.00     0.049 C
HETATM   35  C12 UNL     1      45.465   1.098   0.094  1.00  0.00     0.157 C
HETATM   36  C13 UNL     1      46.078   2.485  -0.171  1.00  0.00     0.243 C
HETATM   37  C14 UNL     1      44.887   3.399  -0.336  1.00  0.00     0.180 C
HETATM   38  C15 UNL     1      43.870   3.271   0.733  1.00  0.00     0.153 C
HETATM   39  C16 UNL     1      44.167   2.344   1.843  1.00  0.00     0.030 C
BRANCH  35  40
HETATM   40  O1  UNL     1      46.480   0.120   0.030  1.00  0.00    -0.393 OA
ATOM     41  H1  UNL     1      46.732   0.036  -0.883  1.00  0.00     0.210 HD
ENDBRANCH  35  40
BRANCH  36  42
HETATM   42  N10 UNL     1      46.765   2.431  -1.461  1.00  0.00    -0.070 N
ATOM     43 3H10 UNL     1      47.775   2.325  -1.368  1.00  0.00     0.274 HD
ATOM     44 2H10 UNL     1      46.585   1.565  -1.969  1.00  0.00     0.274 HD
ATOM     45 1H10 UNL     1      46.501   3.262  -1.989  1.00  0.00     0.274 HD
ENDBRANCH  36  42
BRANCH  37  46
HETATM   46  O2  UNL     1      45.384   4.695  -0.486  1.00  0.00    -0.391 OA
ATOM     47  H2  UNL     1      44.666   5.291  -0.307  1.00  0.00     0.210 HD
ENDBRANCH  37  46
BRANCH  38  48
HETATM   48  O3  UNL     1      42.639   2.921   0.142  1.00  0.00    -0.393 OA
ATOM     49  H3  UNL     1      42.023   3.630   0.284  1.00  0.00     0.210 HD
ENDBRANCH  38  48
BRANCH  39  50
HETATM   50  C17 UNL     1      44.822   3.072   2.999  1.00  0.00     0.079 C
BRANCH  50  51
HETATM   51  C18 UNL     1      44.503   2.473   4.333  1.00  0.00     0.353 C
HETATM   52  F1  UNL     1      45.648   1.772   4.739  1.00  0.00    -0.214 F
HETATM   53  F2  UNL     1      44.373   3.516   5.237  1.00  0.00    -0.214 F
ENDBRANCH  50  51
ENDBRANCH  39  50
ENDBRANCH  33  34
ENDBRANCH  30  33
ENDBRANCH  29  30
ENDBRANCH  28  29
ENDBRANCH   1  28
TORSDOF 17
ENDMDL