MODEL 1
REMARK VINA RESULT: -8.639831001      0.000      0.000
REMARK  18 active torsions:
REMARK  status: ('A' for Active; 'I' for Inactive)
REMARK    1  A    between atoms: C4_4  and  C5_5
REMARK    2  A    between atoms: C5_5  and  N1_8
REMARK    3  A    between atoms: N1_8  and  C8_11
REMARK    4  A    between atoms: C8_11  and  C9_12
REMARK    5  A    between atoms: C9_12  and  O1_13
REMARK    6  A    between atoms: C9_12  and  C10_15
REMARK    7  A    between atoms: C10_15  and  C12_22
REMARK    8  A    between atoms: N2_16  and  O2_18
REMARK    9  A    between atoms: O2_18  and  C11_19
REMARK   10  A    between atoms: C12_22  and  N3_23
REMARK   11  A    between atoms: C12_22  and  C13_27
REMARK       I    between atoms: C13_27  and  N4_29
REMARK   12  A    between atoms: N4_29  and  C14_31
REMARK   13  A    between atoms: C15_32  and  O4_33
REMARK   14  A    between atoms: C16_35  and  O5_36
REMARK   15  A    between atoms: C17_38  and  O6_39
REMARK   16  A    between atoms: C18_41  and  O7_42
REMARK   17  A    between atoms: C19_44  and  N5_45
REMARK   18  A    between atoms: N5_45  and  N6_46
ROOT
HETATM    1  C12 UNL     1      44.247   1.447   4.745  1.00  0.00     0.324 C
ENDROOT
BRANCH   1   2
HETATM    2  C10 UNL     1      42.953   1.525   5.454  1.00  0.00     0.080 C
HETATM    3  N2  UNL     1      42.137   0.556   5.466  1.00  0.00    -0.264 N
ATOM      4  H2  UNL     1      41.261   0.678   5.975  1.00  0.00     0.194 HD
BRANCH   2   5
HETATM    5  C9  UNL     1      42.609   2.778   6.166  1.00  0.00     0.194 C
BRANCH   5   6
HETATM    6  C8  UNL     1      42.026   2.495   7.537  1.00  0.00     0.271 C
BRANCH   6   7
HETATM    7  N1  UNL     1      40.652   2.884   7.530  1.00  0.00    -0.061 N
ATOM      8  H12 UNL     1      40.261   2.828   6.589  1.00  0.00     0.278 HD
ATOM      9  H11 UNL     1      40.554   3.887   7.691  1.00  0.00     0.278 HD
BRANCH   7  10
HETATM   10  C5  UNL     1      39.849   2.127   8.473  1.00  0.00     0.136 C
HETATM   11  C6  UNL     1      39.768   2.839   9.803  1.00  0.00     0.050 C
HETATM   12  C7  UNL     1      40.593   0.817   8.698  1.00  0.00     0.050 C
BRANCH  10  13
HETATM   13  C4  UNL     1      38.503   1.808   7.948  1.00  0.00     0.013 C
HETATM   14  C2  UNL     1      37.731   2.628   7.276  1.00  0.00    -0.089 C
HETATM   15  C1  UNL     1      36.366   2.210   6.779  1.00  0.00     0.042 C
HETATM   16  C3  UNL     1      38.126   4.020   6.948  1.00  0.00     0.042 C
ENDBRANCH  10  13
ENDBRANCH   7  10
ENDBRANCH   6   7
ENDBRANCH   5   6
BRANCH   5  17
HETATM   17  O1  UNL     1      43.740   3.571   6.349  1.00  0.00    -0.388 OA
ATOM     18  H1  UNL     1      43.931   3.991   5.519  1.00  0.00     0.210 HD
ENDBRANCH   5  17
ENDBRANCH   2   5
BRANCH   3  19
HETATM   19  O2  UNL     1      42.352  -0.647   4.842  1.00  0.00    -0.212 OA
BRANCH  19  20
HETATM   20  C11 UNL     1      42.024  -1.889   5.382  1.00  0.00     0.522 C
HETATM   21  F1  UNL     1      41.023  -1.704   6.314  1.00  0.00    -0.183 F
HETATM   22  F2  UNL     1      43.119  -2.548   5.919  1.00  0.00    -0.183 F
ENDBRANCH  19  20
ENDBRANCH   3  19
ENDBRANCH   1   2
BRANCH   1  23
HETATM   23  N3  UNL     1      44.791   0.092   4.772  1.00  0.00    -0.061 N
ATOM     24  H33 UNL     1      44.125  -0.585   4.402  1.00  0.00     0.275 HD
ATOM     25  H32 UNL     1      45.535  -0.026   4.085  1.00  0.00     0.275 HD
ATOM     26  H31 UNL     1      45.103  -0.166   5.708  1.00  0.00     0.275 HD
ENDBRANCH   1  23
BRANCH   1  27
HETATM   27  C13 UNL     1      44.199   1.981   3.361  1.00  0.00     0.254 C
HETATM   28  O3  UNL     1      43.103   2.406   2.942  1.00  0.00    -0.271 OA
HETATM   29  N4  UNL     1      45.329   2.011   2.550  1.00  0.00    -0.350 N
ATOM     30  H4  UNL     1      46.192   1.645   2.953  1.00  0.00     0.163 HD
BRANCH  29  31
HETATM   31  C14 UNL     1      45.406   2.510   1.190  1.00  0.00     0.139 C
HETATM   32  C15 UNL     1      45.630   1.356   0.248  1.00  0.00     0.173 C
HETATM   33  C16 UNL     1      45.749   1.943  -1.151  1.00  0.00     0.180 C
HETATM   34  C17 UNL     1      47.094   2.631  -1.164  1.00  0.00     0.179 C
HETATM   35  C18 UNL     1      47.248   3.678  -0.121  1.00  0.00     0.172 C
HETATM   36  C19 UNL     1      46.334   3.643   1.038  1.00  0.00     0.155 C
BRANCH  32  37
HETATM   37  O4  UNL     1      46.769   0.640   0.519  1.00  0.00    -0.391 OA
ATOM     38  H4  UNL     1      47.560   1.041   0.179  1.00  0.00     0.210 HD
ENDBRANCH  32  37
BRANCH  33  39
HETATM   39  O5  UNL     1      44.710   2.786  -1.465  1.00  0.00    -0.390 OA
ATOM     40  H5  UNL     1      44.856   3.264  -2.273  1.00  0.00     0.210 HD
ENDBRANCH  33  39
BRANCH  34  41
HETATM   41  O6  UNL     1      47.349   3.138  -2.459  1.00  0.00    -0.390 OA
ATOM     42  H6  UNL     1      48.159   3.636  -2.449  1.00  0.00     0.210 HD
ENDBRANCH  34  41
BRANCH  35  43
HETATM   43  O7  UNL     1      48.614   3.653   0.268  1.00  0.00    -0.391 OA
ATOM     44  H7  UNL     1      48.691   4.245   1.007  1.00  0.00     0.210 HD
ENDBRANCH  35  43
BRANCH  36  45
HETATM   45  N5  UNL     1      45.643   4.924   1.126  1.00  0.00    -0.139 NA
BRANCH  45  46
HETATM   46  N6  UNL     1      44.278   4.851   0.991  1.00  0.00    -0.348 N
ATOM     47  H62 UNL     1      43.782   3.961   1.029  1.00  0.00     0.172 HD
ATOM     48  H61 UNL     1      43.814   5.749   0.852  1.00  0.00     0.172 HD
ENDBRANCH  45  46
ENDBRANCH  36  45
ENDBRANCH  29  31
ENDBRANCH   1  27
TORSDOF 18
ENDMDL