MODEL 2
REMARK VINA RESULT: -8.382315763      1.296      2.150
REMARK  16 active torsions:
REMARK  status: ('A' for Active; 'I' for Inactive)
REMARK    1  A    between atoms: N1_2  and  C2_5
REMARK    2  A    between atoms: C7_12  and  C8_13
REMARK    3  A    between atoms: C8_13  and  N2_14
REMARK    4  A    between atoms: N2_14  and  C9_17
REMARK    5  A    between atoms: C9_17  and  C10_18
REMARK    6  A    between atoms: C10_18  and  N3_19
REMARK    7  A    between atoms: N3_19  and  C11_21
REMARK    8  A    between atoms: C11_21  and  C12_22
REMARK    9  A    between atoms: C13_24  and  O2_25
REMARK   10  A    between atoms: O2_25  and  C14_26
REMARK   11  A    between atoms: C15_27  and  O3_28
REMARK   12  A    between atoms: C16_30  and  N4_31
REMARK   13  A    between atoms: C18_36  and  N5_37
REMARK   14  A    between atoms: C19_41  and  O4_42
REMARK   15  A    between atoms: C20_44  and  O5_45
REMARK   16  A    between atoms: C21_47  and  O6_48
ROOT
HETATM    1  C12 UNL     1      43.217  -0.421   4.414  1.00  0.00     0.173 C
HETATM    2  O1  UNL     1      44.061   0.631   4.680  1.00  0.00    -0.349 OA
HETATM    3  C13 UNL     1      45.323   0.298   4.223  1.00  0.00     0.292 C
HETATM    4  C20 UNL     1      45.159  -0.776   3.175  1.00  0.00     0.204 C
HETATM    5  C21 UNL     1      43.673  -0.999   3.089  1.00  0.00     0.182 C
ENDROOT
BRANCH   1   6
HETATM    6  C11 UNL     1      43.260  -1.509   5.473  1.00  0.00     0.148 C
BRANCH   6   7
HETATM    7  N3  UNL     1      41.955  -2.037   5.738  1.00  0.00    -0.417 N
ATOM      8  H3  UNL     1      41.616  -2.894   5.303  1.00  0.00     0.153 HD
BRANCH   7   9
HETATM    9  C10 UNL     1      41.157  -1.276   6.660  1.00  0.00     0.141 C
BRANCH   9  10
HETATM   10  C9  UNL     1      42.032  -0.910   7.834  1.00  0.00     0.251 C
BRANCH  10  11
HETATM   11  N2  UNL     1      41.596   0.250   8.566  1.00  0.00    -0.073 N
ATOM     12  H22 UNL     1      42.279   1.004   8.509  1.00  0.00     0.277 HD
ATOM     13  H21 UNL     1      41.622   0.087   9.573  1.00  0.00     0.277 HD
BRANCH  11  14
HETATM   14  C8  UNL     1      40.281   0.693   8.135  1.00  0.00     0.239 C
BRANCH  14  15
HETATM   15  C7  UNL     1      40.204   2.199   8.031  1.00  0.00     0.047 C
HETATM   16  C2  UNL     1      40.148   2.702   6.633  1.00  0.00     0.191 C
HETATM   17  C3  UNL     1      40.143   4.213   6.619  1.00  0.00     0.039 C
HETATM   18  C4  UNL     1      39.376   4.838   7.735  1.00  0.00     0.081 C
HETATM   19  C5  UNL     1      38.374   3.910   8.359  1.00  0.00     0.244 C
HETATM   20  F1  UNL     1      37.259   3.762   7.544  1.00  0.00    -0.206 F
HETATM   21  F2  UNL     1      37.895   4.533   9.520  1.00  0.00    -0.206 F
HETATM   22  C6  UNL     1      38.956   2.606   8.776  1.00  0.00     0.087 C
BRANCH  16  23
HETATM   23  N1  UNL     1      41.342   2.311   5.872  1.00  0.00    -0.074 N
HETATM   24  C1  UNL     1      42.484   3.046   6.369  1.00  0.00     0.267 C
ATOM     25  H12 UNL     1      41.215   2.426   4.866  1.00  0.00     0.277 HD
ATOM     26  H11 UNL     1      41.495   1.303   5.882  1.00  0.00     0.277 HD
ENDBRANCH  16  23
ENDBRANCH  14  15
ENDBRANCH  11  14
ENDBRANCH  10  11
ENDBRANCH   9  10
ENDBRANCH   7   9
ENDBRANCH   6   7
ENDBRANCH   1   6
BRANCH   5  27
HETATM   27  O6  UNL     1      43.475  -2.373   3.007  1.00  0.00    -0.390 OA
ATOM     28  H6  UNL     1      44.187  -2.869   3.393  1.00  0.00     0.210 HD
ENDBRANCH   5  27
BRANCH   3  29
HETATM   29  O2  UNL     1      45.983   1.345   3.654  1.00  0.00    -0.348 OA
BRANCH  29  30
HETATM   30  C14 UNL     1      45.658   1.661   2.368  1.00  0.00     0.186 C
HETATM   31  C15 UNL     1      44.932   2.946   2.162  1.00  0.00     0.180 C
HETATM   32  C16 UNL     1      45.087   3.374   0.714  1.00  0.00     0.216 C
HETATM   33  C17 UNL     1      46.520   3.733   0.443  1.00  0.00     0.071 C
HETATM   34  C18 UNL     1      47.416   3.048   1.448  1.00  0.00     0.216 C
HETATM   35  C19 UNL     1      46.924   1.611   1.543  1.00  0.00     0.180 C
BRANCH  31  36
HETATM   36  O3  UNL     1      43.554   2.686   2.328  1.00  0.00    -0.391 OA
ATOM     37  H3  UNL     1      43.294   3.047   3.168  1.00  0.00     0.210 HD
ENDBRANCH  31  36
BRANCH  32  38
HETATM   38  N4  UNL     1      44.538   2.424  -0.212  1.00  0.00    -0.072 N
ATOM     39  H43 UNL     1      44.825   2.638  -1.167  1.00  0.00     0.274 HD
ATOM     40  H42 UNL     1      44.981   1.512  -0.105  1.00  0.00     0.274 HD
ATOM     41  H41 UNL     1      43.522   2.345  -0.146  1.00  0.00     0.274 HD
ENDBRANCH  32  38
BRANCH  34  42
HETATM   42  N5  UNL     1      48.809   3.129   1.126  1.00  0.00    -0.072 N
ATOM     43  H53 UNL     1      48.969   2.866   0.153  1.00  0.00     0.274 HD
ATOM     44  H52 UNL     1      49.115   4.101   1.093  1.00  0.00     0.274 HD
ATOM     45  H51 UNL     1      49.406   2.584   1.749  1.00  0.00     0.274 HD
ENDBRANCH  34  42
BRANCH  35  46
HETATM   46  O4  UNL     1      47.939   0.894   2.210  1.00  0.00    -0.391 OA
ATOM     47  H4  UNL     1      47.725   0.771   3.127  1.00  0.00     0.210 HD
ENDBRANCH  35  46
ENDBRANCH  29  30
ENDBRANCH   3  29
BRANCH   4  48
HETATM   48  O5  UNL     1      45.888  -1.925   3.436  1.00  0.00    -0.388 OA
ATOM     49  H5  UNL     1      45.485  -2.717   3.101  1.00  0.00     0.210 HD
ENDBRANCH   4  48
TORSDOF 16
ENDMDL