MODEL 1
REMARK VINA RESULT: -7.683553130      0.000      0.000
REMARK  16 active torsions:
REMARK  status: ('A' for Active; 'I' for Inactive)
REMARK    1  A    between atoms: N1_2  and  C2_5
REMARK    2  A    between atoms: C2_5  and  C3_6
REMARK    3  A    between atoms: N2_9  and  O1_11
REMARK    4  A    between atoms: C6_13  and  O2_14
REMARK    5  A    between atoms: C7_16  and  O3_17
REMARK    6  A    between atoms: C8_19  and  O4_20
REMARK    7  A    between atoms: O4_20  and  C9_21
REMARK    8  A    between atoms: C10_23  and  C11_24
REMARK    9  A    between atoms: C11_24  and  O6_25
REMARK   10  A    between atoms: C12_27  and  O7_28
REMARK   11  A    between atoms: C13_30  and  N3_31
REMARK   12  A    between atoms: C14_33  and  C15_34
REMARK   13  A    between atoms: C14_33  and  C18_40
REMARK   14  A    between atoms: C15_34  and  C16_35
REMARK   15  A    between atoms: C16_35  and  N4_36
REMARK   16  A    between atoms: N4_36  and  C17_38
ROOT
HETATM    1  C9  UNL     1      43.027   0.921   5.006  1.00  0.00     0.415 C
HETATM    2  O5  UNL     1      43.014  -0.452   4.715  1.00  0.00    -0.329 OA
HETATM    3  C10 UNL     1      43.576  -0.643   3.448  1.00  0.00     0.183 C
HETATM    4  C12 UNL     1      44.915   0.145   3.528  1.00  0.00     0.198 C
HETATM    5  C13 UNL     1      44.636   1.605   3.573  1.00  0.00     0.258 C
HETATM    6  O9  UNL     1      43.224   1.685   3.888  1.00  0.00    -0.311 OA
ENDROOT
BRANCH   1   7
HETATM    7  O4  UNL     1      41.778   1.169   5.602  1.00  0.00    -0.330 OA
BRANCH   7   8
HETATM    8  C8  UNL     1      41.952   2.141   6.572  1.00  0.00     0.164 C
HETATM    9  C3  UNL     1      41.314   1.640   7.846  1.00  0.00     0.048 C
HETATM   10  C4  UNL     1      41.242   2.667   8.925  1.00  0.00     0.066 C
HETATM   11  C5  UNL     1      41.883   3.921   8.400  1.00  0.00     0.041 C
HETATM   12  N2  UNL     1      42.878   4.452   9.007  1.00  0.00    -0.275 N
HETATM   13  C6  UNL     1      41.297   4.487   7.157  1.00  0.00     0.196 C
ATOM     14  H2  UNL     1      43.249   4.029   9.858  1.00  0.00     0.193 HD
HETATM   15  C7  UNL     1      41.348   3.423   6.085  1.00  0.00     0.182 C
BRANCH   9  16
HETATM   16  C2  UNL     1      39.963   1.042   7.625  1.00  0.00     0.239 C
BRANCH  16  17
HETATM   17  N1  UNL     1      38.986   1.851   8.350  1.00  0.00    -0.079 N
HETATM   18  C1  UNL     1      37.705   1.868   7.673  1.00  0.00     0.267 C
ATOM     19  H12 UNL     1      39.333   2.795   8.517  1.00  0.00     0.276 HD
ATOM     20  H11 UNL     1      38.892   1.545   9.318  1.00  0.00     0.276 HD
ENDBRANCH  16  17
ENDBRANCH   9  16
BRANCH  12  21
HETATM   21  O1  UNL     1      43.438   5.595   8.502  1.00  0.00    -0.290 OA
ATOM     22  H1  UNL     1      44.366   5.753   8.632  1.00  0.00     0.244 HD
ENDBRANCH  12  21
BRANCH  13  23
HETATM   23  O2  UNL     1      39.945   4.765   7.436  1.00  0.00    -0.387 OA
ATOM     24  H2  UNL     1      39.562   3.959   7.762  1.00  0.00     0.210 HD
ENDBRANCH  13  23
BRANCH  15  25
HETATM   25  O3  UNL     1      40.103   3.172   5.541  1.00  0.00    -0.390 OA
ATOM     26  H3  UNL     1      39.908   3.748   4.811  1.00  0.00     0.210 HD
ENDBRANCH  15  25
ENDBRANCH   7   8
ENDBRANCH   1   7
BRANCH   3  27
HETATM   27  C11 UNL     1      43.932  -2.096   3.316  1.00  0.00     0.199 C
BRANCH  27  28
HETATM   28  O6  UNL     1      44.421  -2.418   2.064  1.00  0.00    -0.398 OA
ATOM     29  H6  UNL     1      45.305  -2.101   1.920  1.00  0.00     0.209 HD
ENDBRANCH  27  28
ENDBRANCH   3  27
BRANCH   5  30
HETATM   30  N3  UNL     1      44.956   2.447   2.550  1.00  0.00    -0.366 N
HETATM   31  C14 UNL     1      44.900   2.397   1.196  1.00  0.00     0.019 C
ATOM     32  H3  UNL     1      45.331   3.334   2.887  1.00  0.00     0.161 HD
BRANCH  31  33
HETATM   33  C15 UNL     1      45.491   3.630   0.497  1.00  0.00     0.075 C
BRANCH  33  34
HETATM   34  C16 UNL     1      46.826   4.060   0.912  1.00  0.00     0.128 C
BRANCH  34  35
HETATM   35  N4  UNL     1      47.953   3.215   0.704  1.00  0.00    -0.368 N
ATOM     36  H4  UNL     1      48.354   3.141  -0.230  1.00  0.00     0.161 HD
BRANCH  35  37
HETATM   37  C17 UNL     1      48.544   2.458   1.786  1.00  0.00     0.348 C
HETATM   38  O8  UNL     1      48.045   1.353   2.107  1.00  0.00    -0.284 OA
ENDBRANCH  35  37
ENDBRANCH  34  35
ENDBRANCH  33  34
ENDBRANCH  31  33
BRANCH  31  39
HETATM   39  C18 UNL     1      43.834   1.789   0.386  1.00  0.00     0.211 C
HETATM   40  C19 UNL     1      43.769   2.313  -1.037  1.00  0.00     0.051 C
HETATM   41  F1  UNL     1      43.856   0.412   0.280  1.00  0.00    -0.244 F
ENDBRANCH  31  39
ENDBRANCH   5  30
BRANCH   4  42
HETATM   42  O7  UNL     1      45.503  -0.245   4.757  1.00  0.00    -0.389 OA
ATOM     43  H7  UNL     1      46.414  -0.419   4.553  1.00  0.00     0.210 HD
ENDBRANCH   4  42
TORSDOF 16
ENDMDL