MODEL 1
REMARK VINA RESULT: -8.053155567      0.000      0.000
REMARK  18 active torsions:
REMARK  status: ('A' for Active; 'I' for Inactive)
REMARK    1  A    between atoms: C2_2  and  N1_3
REMARK    2  A    between atoms: N1_3  and  C3_5
REMARK    3  A    between atoms: C3_5  and  C4_6
REMARK    4  A    between atoms: C4_6  and  O1_7
REMARK    5  A    between atoms: C4_6  and  C5_9
REMARK    6  A    between atoms: C5_9  and  C6_10
REMARK    7  A    between atoms: C5_9  and  O2_21
REMARK    8  A    between atoms: C6_10  and  N2_11
REMARK    9  A    between atoms: N2_11  and  C7_14
REMARK   10  A    between atoms: C7_14  and  C9_16
REMARK   11  A    between atoms: C9_16  and  N3_17
REMARK   12  A    between atoms: O2_21  and  C10_22
REMARK   13  A    between atoms: C11_24  and  O4_25
REMARK   14  A    between atoms: O4_25  and  C12_26
REMARK   15  A    between atoms: C14_28  and  N4_29
REMARK   16  A    between atoms: C17_37  and  O5_38
REMARK   17  A    between atoms: C18_40  and  N5_41
REMARK   18  A    between atoms: C20_46  and  N6_47
ROOT
HETATM    1  C10 UNL     1      41.585   1.178   6.318  1.00  0.00     0.293 C
HETATM    2  O3  UNL     1      42.456   0.793   5.336  1.00  0.00    -0.327 OA
HETATM    3  C11 UNL     1      43.158  -0.358   5.699  1.00  0.00     0.293 C
HETATM    4  C18 UNL     1      42.175  -1.493   5.522  1.00  0.00     0.240 C
HETATM    5  C19 UNL     1      41.046  -1.277   6.489  1.00  0.00     0.075 C
HETATM    6  C20 UNL     1      40.983   0.063   7.116  1.00  0.00     0.240 C
ENDROOT
BRANCH   1   7
HETATM    7  O2  UNL     1      40.586   2.020   5.780  1.00  0.00    -0.349 OA
BRANCH   7   8
HETATM    8  C5  UNL     1      40.654   3.316   6.204  1.00  0.00     0.180 C
BRANCH   8   9
HETATM    9  C4  UNL     1      39.347   4.041   6.319  1.00  0.00     0.166 C
BRANCH   9  10
HETATM   10  C3  UNL     1      38.638   3.912   7.618  1.00  0.00     0.148 C
BRANCH  10  11
HETATM   11  N1  UNL     1      37.294   3.475   7.466  1.00  0.00    -0.419 N
ATOM     12  H1  UNL     1      36.528   4.138   7.584  1.00  0.00     0.153 HD
BRANCH  11  13
HETATM   13  C2  UNL     1      37.017   2.132   7.153  1.00  0.00     0.109 C
HETATM   14  C1  UNL     1      35.681   2.061   6.396  1.00  0.00     0.026 C
ENDBRANCH  11  13
ENDBRANCH  10  11
ENDBRANCH   9  10
BRANCH   9  15
HETATM   15  O1  UNL     1      39.473   5.343   5.924  1.00  0.00    -0.391 OA
ATOM     16  H1  UNL     1      39.408   5.442   4.981  1.00  0.00     0.210 HD
ENDBRANCH   9  15
ENDBRANCH   8   9
BRANCH   8  17
HETATM   17  C6  UNL     1      41.478   3.544   7.447  1.00  0.00     0.267 C
BRANCH  17  18
HETATM   18  N2  UNL     1      41.984   4.868   7.465  1.00  0.00    -0.067 N
ATOM     19  H22 UNL     1      41.488   5.447   6.786  1.00  0.00     0.277 HD
ATOM     20  H21 UNL     1      41.714   5.339   8.328  1.00  0.00     0.277 HD
BRANCH  18  21
HETATM   21  C7  UNL     1      43.406   4.967   7.262  1.00  0.00     0.207 C
HETATM   22  C8  UNL     1      43.989   3.775   6.544  1.00  0.00     0.041 C
BRANCH  21  23
HETATM   23  C9  UNL     1      44.059   5.025   8.639  1.00  0.00     0.262 C
BRANCH  23  24
HETATM   24  N3  UNL     1      44.489   6.360   8.966  1.00  0.00    -0.077 N
ATOM     25  H33 UNL     1      44.258   7.018   8.222  1.00  0.00     0.274 HD
ATOM     26  H32 UNL     1      43.923   6.761   9.713  1.00  0.00     0.274 HD
ATOM     27  H31 UNL     1      45.482   6.390   9.195  1.00  0.00     0.274 HD
ENDBRANCH  23  24
ENDBRANCH  21  23
ENDBRANCH  18  21
ENDBRANCH  17  18
ENDBRANCH   8  17
ENDBRANCH   7   8
ENDBRANCH   1   7
BRANCH   6  28
HETATM   28  N6  UNL     1      41.472   0.038   8.503  1.00  0.00    -0.070 N
ATOM     29  H63 UNL     1      41.392  -0.896   8.905  1.00  0.00     0.274 HD
ATOM     30  H62 UNL     1      42.487   0.143   8.537  1.00  0.00     0.274 HD
ATOM     31  H61 UNL     1      41.011   0.732   9.092  1.00  0.00     0.274 HD
ENDBRANCH   6  28
BRANCH   3  32
HETATM   32  O4  UNL     1      44.325  -0.512   4.971  1.00  0.00    -0.351 OA
BRANCH  32  33
HETATM   33  C12 UNL     1      44.373   0.274   3.835  1.00  0.00     0.161 C
HETATM   34  C13 UNL     1      45.455   1.293   3.797  1.00  0.00     0.067 C
HETATM   35  C14 UNL     1      45.224   2.218   2.597  1.00  0.00     0.191 C
HETATM   36  C15 UNL     1      44.332   1.559   1.578  1.00  0.00     0.114 C
HETATM   37  C16 UNL     1      44.668   0.107   1.378  1.00  0.00     0.273 C
HETATM   38  F1  UNL     1      45.936   0.055   0.805  1.00  0.00    -0.203 F
HETATM   39  F2  UNL     1      43.775  -0.390   0.444  1.00  0.00    -0.203 F
HETATM   40  C17 UNL     1      44.592  -0.656   2.661  1.00  0.00     0.219 C
BRANCH  35  41
HETATM   41  N4  UNL     1      44.549   3.399   3.090  1.00  0.00    -0.075 N
ATOM     42  H43 UNL     1      44.440   3.403   4.104  1.00  0.00     0.274 HD
ATOM     43  H42 UNL     1      45.116   4.243   3.016  1.00  0.00     0.274 HD
ATOM     44  H41 UNL     1      43.661   3.469   2.593  1.00  0.00     0.274 HD
ENDBRANCH  35  41
BRANCH  40  45
HETATM   45  O5  UNL     1      43.662  -1.688   2.632  1.00  0.00    -0.387 OA
ATOM     46  H5  UNL     1      43.705  -2.228   3.413  1.00  0.00     0.210 HD
ENDBRANCH  40  45
ENDBRANCH  32  33
ENDBRANCH   3  32
BRANCH   4  47
HETATM   47  N5  UNL     1      42.748  -2.795   5.635  1.00  0.00    -0.070 N
ATOM     48  H53 UNL     1      43.557  -2.881   5.020  1.00  0.00     0.274 HD
ATOM     49  H52 UNL     1      43.203  -2.906   6.540  1.00  0.00     0.274 HD
ATOM     50  H51 UNL     1      42.094  -3.561   5.470  1.00  0.00     0.274 HD
ENDBRANCH   4  47
TORSDOF 18
ENDMDL