MODEL 3
REMARK VINA RESULT: -8.923090775      1.024      1.187
REMARK  17 active torsions:
REMARK  status: ('A' for Active; 'I' for Inactive)
REMARK    1  A    between atoms: C1_4  and  C2_5
REMARK    2  A    between atoms: C1_4  and  C4_9
REMARK    3  A    between atoms: C2_5  and  C3_6
REMARK    4  A    between atoms: C4_9  and  N2_11
REMARK    5  A    between atoms: N2_11  and  C5_13
REMARK    6  A    between atoms: C6_16  and  O3_17
REMARK    7  A    between atoms: O3_17  and  C7_18
REMARK    8  A    between atoms: C7_18  and  C8_19
REMARK    9  A    between atoms: C8_19  and  N4_20
REMARK   10  A    between atoms: N4_20  and  C9_23
REMARK   11  A    between atoms: C9_23  and  C10_24
REMARK   12  A    between atoms: C11_25  and  N5_26
REMARK   13  A    between atoms: C13_31  and  N6_32
REMARK   14  A    between atoms: C14_36  and  O4_37
REMARK   15  A    between atoms: C15_39  and  O5_40
REMARK   16  A    between atoms: C16_43  and  C17_44
REMARK   17  A    between atoms: C18_46  and  O7_47
ROOT
HETATM    1  O3  UNL     1      41.132   0.567   8.069  1.00  0.00    -0.343 OA
ENDROOT
BRANCH   1   2
HETATM    2  C6  UNL     1      40.607   1.437   7.106  1.00  0.00     0.368 C
HETATM    3  N3  UNL     1      41.518   2.466   6.860  1.00  0.00    -0.352 N
HETATM    4  C5  UNL     1      41.263   3.799   7.239  1.00  0.00     0.210 C
ATOM      5  H3  UNL     1      42.397   2.246   6.391  1.00  0.00     0.160 HD
HETATM    6  C18 UNL     1      39.843   3.996   7.670  1.00  0.00     0.190 C
HETATM    7  C16 UNL     1      39.009   2.999   6.848  1.00  0.00     0.172 C
HETATM    8  O6  UNL     1      39.299   1.762   7.377  1.00  0.00    -0.335 OA
BRANCH   4   9
HETATM    9  N2  UNL     1      42.160   4.173   8.314  1.00  0.00    -0.366 N
ATOM     10  H2  UNL     1      41.829   4.377   9.258  1.00  0.00     0.158 HD
BRANCH   9  11
HETATM   11  C4  UNL     1      43.530   4.235   7.957  1.00  0.00     0.313 C
HETATM   12  F1  UNL     1      43.639   4.552   6.620  1.00  0.00    -0.221 F
BRANCH  11  13
HETATM   13  C1  UNL     1      44.359   5.201   8.723  1.00  0.00     0.043 C
HETATM   14  N1  UNL     1      44.132   6.447   8.760  1.00  0.00    -0.401 N
ATOM     15  H12 UNL     1      44.701   7.110   9.286  1.00  0.00     0.155 HD
ATOM     16  H11 UNL     1      43.334   6.819   8.246  1.00  0.00     0.155 HD
BRANCH  13  17
HETATM   17  C2  UNL     1      45.515   4.661   9.469  1.00  0.00     0.169 C
BRANCH  17  18
HETATM   18  C3  UNL     1      46.640   5.605   9.609  1.00  0.00     0.178 C
HETATM   19  O1  UNL     1      47.579   5.608   8.752  1.00  0.00    -0.648 OA
HETATM   20  O2  UNL     1      46.770   6.526  10.632  1.00  0.00    -0.648 OA
ENDBRANCH  17  18
ENDBRANCH  13  17
ENDBRANCH  11  13
ENDBRANCH   9  11
ENDBRANCH   4   9
BRANCH   6  21
HETATM   21  O7  UNL     1      39.690   3.687   9.037  1.00  0.00    -0.389 OA
ATOM     22  H7  UNL     1      38.853   3.265   9.194  1.00  0.00     0.210 HD
ENDBRANCH   6  21
BRANCH   7  23
HETATM   23  C17 UNL     1      37.538   3.345   6.951  1.00  0.00     0.149 C
HETATM   24 CL1  UNL     1      36.572   1.876   7.143  1.00  0.00    -0.128 Cl
ENDBRANCH   7  23
ENDBRANCH   1   2
BRANCH   1  25
HETATM   25  C7  UNL     1      42.023  -0.362   7.532  1.00  0.00     0.200 C
BRANCH  25  26
HETATM   26  C8  UNL     1      41.442  -1.104   6.374  1.00  0.00     0.258 C
BRANCH  26  27
HETATM   27  N4  UNL     1      42.391  -1.182   5.255  1.00  0.00    -0.073 N
ATOM     28  H42 UNL     1      42.731  -2.131   5.098  1.00  0.00     0.277 HD
ATOM     29  H41 UNL     1      41.941  -1.041   4.351  1.00  0.00     0.277 HD
BRANCH  27  30
HETATM   30  C9  UNL     1      43.470  -0.239   5.492  1.00  0.00     0.241 C
BRANCH  30  31
HETATM   31  C10 UNL     1      44.021   0.399   4.271  1.00  0.00     0.073 C
HETATM   32  C11 UNL     1      44.149  -0.476   3.074  1.00  0.00     0.193 C
HETATM   33  C12 UNL     1      44.255   0.441   1.866  1.00  0.00     0.068 C
HETATM   34  C13 UNL     1      44.838   1.779   2.189  1.00  0.00     0.216 C
HETATM   35  C14 UNL     1      45.827   1.786   3.316  1.00  0.00     0.177 C
HETATM   36  C15 UNL     1      45.360   1.056   4.530  1.00  0.00     0.156 C
BRANCH  32  37
HETATM   37  N5  UNL     1      45.290  -1.353   3.084  1.00  0.00    -0.074 N
ATOM     38  H53 UNL     1      46.081  -0.896   3.538  1.00  0.00     0.274 HD
ATOM     39  H52 UNL     1      45.135  -2.125   3.732  1.00  0.00     0.274 HD
ATOM     40  H51 UNL     1      45.565  -1.709   2.169  1.00  0.00     0.274 HD
ENDBRANCH  32  37
BRANCH  34  41
HETATM   41  N6  UNL     1      45.560   2.235   0.997  1.00  0.00    -0.072 N
ATOM     42  H63 UNL     1      45.145   3.063   0.570  1.00  0.00     0.274 HD
ATOM     43  H62 UNL     1      46.471   2.640   1.212  1.00  0.00     0.274 HD
ATOM     44  H61 UNL     1      45.616   1.442   0.358  1.00  0.00     0.274 HD
ENDBRANCH  34  41
BRANCH  35  45
HETATM   45  O4  UNL     1      47.109   1.408   2.906  1.00  0.00    -0.391 OA
ATOM     46  H4  UNL     1      47.792   1.902   3.344  1.00  0.00     0.210 HD
ENDBRANCH  35  45
BRANCH  36  47
HETATM   47  O5  UNL     1      46.329   0.151   4.914  1.00  0.00    -0.392 OA
ATOM     48  H5  UNL     1      47.081   0.152   4.333  1.00  0.00     0.210 HD
ENDBRANCH  36  47
ENDBRANCH  30  31
ENDBRANCH  27  30
ENDBRANCH  26  27
ENDBRANCH  25  26
ENDBRANCH   1  25
TORSDOF 17
ENDMDL