MODEL 1
REMARK VINA RESULT: -7.553067817      0.000      0.000
REMARK  17 active torsions:
REMARK  status: ('A' for Active; 'I' for Inactive)
REMARK    1  A    between atoms: C2_2  and  O1_3
REMARK    2  A    between atoms: O1_3  and  N1_4
REMARK    3  A    between atoms: N1_4  and  C3_5
REMARK    4  A    between atoms: C3_5  and  C4_6
REMARK    5  A    between atoms: C4_6  and  C5_7
REMARK    6  A    between atoms: C5_7  and  C6_8
REMARK    7  A    between atoms: C5_7  and  N2_10
REMARK    8  A    between atoms: N2_10  and  C7_12
REMARK    9  A    between atoms: C8_15  and  S1_16
REMARK   10  A    between atoms: S1_16  and  C9_17
REMARK   11  A    between atoms: C9_17  and  C10_18
REMARK   12  A    between atoms: C13_24  and  N4_25
REMARK   13  A    between atoms: C14_29  and  O4_30
REMARK   14  A    between atoms: C15_32  and  O5_33
REMARK   15  A    between atoms: C16_35  and  O6_36
REMARK   16  A    between atoms: C17_38  and  O7_39
REMARK   17  A    between atoms: C18_41  and  O8_42
ROOT
HETATM    1  C7  UNL     1      41.888   0.737   6.265  1.00  0.00     0.205 C
HETATM    2  N3  UNL     1      42.814   0.779   5.166  1.00  0.00    -0.384 N
ATOM      3  H3  UNL     1      43.405   1.589   4.982  1.00  0.00     0.156 HD
HETATM    4  C8  UNL     1      42.847  -0.399   4.345  1.00  0.00     0.173 C
HETATM    5  C16 UNL     1      42.995  -1.587   5.199  1.00  0.00     0.182 C
HETATM    6  C17 UNL     1      41.625  -1.767   5.868  1.00  0.00     0.182 C
HETATM    7  C18 UNL     1      41.241  -0.533   6.559  1.00  0.00     0.191 C
ENDROOT
BRANCH   4   8
HETATM    8  S1  UNL     1      43.935  -0.095   3.003  1.00  0.00    -0.117 SA
BRANCH   8   9
HETATM    9  C9  UNL     1      45.061   1.255   3.021  1.00  0.00     0.129 C
HETATM   10  C11 UNL     1      44.351   2.500   2.496  1.00  0.00     0.074 C
HETATM   11  C12 UNL     1      45.427   3.523   2.205  1.00  0.00     0.205 C
HETATM   12  F2  UNL     1      44.875   4.770   2.107  1.00  0.00    -0.247 F
HETATM   13  C13 UNL     1      46.053   3.109   0.885  1.00  0.00     0.248 C
HETATM   14  C14 UNL     1      46.349   1.634   0.866  1.00  0.00     0.182 C
HETATM   15  C15 UNL     1      46.315   0.989   2.196  1.00  0.00     0.178 C
BRANCH   9  16
HETATM   16  C10 UNL     1      45.523   1.537   4.384  1.00  0.00     0.195 C
HETATM   17  O2  UNL     1      46.150   0.590   4.993  1.00  0.00    -0.647 OA
HETATM   18  O3  UNL     1      45.387   2.680   5.128  1.00  0.00    -0.647 OA
ENDBRANCH   9  16
BRANCH  13  19
HETATM   19  N4  UNL     1      47.228   3.924   0.652  1.00  0.00    -0.070 N
ATOM     20  H43 UNL     1      47.008   4.918   0.590  1.00  0.00     0.274 HD
ATOM     21  H42 UNL     1      47.842   3.966   1.465  1.00  0.00     0.274 HD
ATOM     22  H41 UNL     1      47.706   3.578  -0.180  1.00  0.00     0.274 HD
ENDBRANCH  13  19
BRANCH  14  23
HETATM   23  O4  UNL     1      45.549   0.977  -0.068  1.00  0.00    -0.391 OA
ATOM     24  H4  UNL     1      45.737   0.046  -0.081  1.00  0.00     0.210 HD
ENDBRANCH  14  23
BRANCH  15  25
HETATM   25  O5  UNL     1      47.473   1.257   2.912  1.00  0.00    -0.391 OA
ATOM     26  H5  UNL     1      47.581   2.186   3.076  1.00  0.00     0.210 HD
ENDBRANCH  15  25
ENDBRANCH   8   9
ENDBRANCH   4   8
BRANCH   5  27
HETATM   27  O6  UNL     1      43.990  -1.426   6.137  1.00  0.00    -0.390 OA
ATOM     28  H6  UNL     1      44.836  -1.704   5.808  1.00  0.00     0.210 HD
ENDBRANCH   5  27
BRANCH   1  29
HETATM   29  N2  UNL     1      41.044   1.882   6.013  1.00  0.00    -0.393 N
ATOM     30  H2  UNL     1      40.182   1.793   5.474  1.00  0.00     0.155 HD
BRANCH  29  31
HETATM   31  C5  UNL     1      41.458   3.143   6.543  1.00  0.00     0.108 C
BRANCH  31  32
HETATM   32  C4  UNL     1      41.674   2.922   8.029  1.00  0.00     0.045 C
BRANCH  32  33
HETATM   33  C3  UNL     1      40.455   3.060   8.873  1.00  0.00     0.144 C
BRANCH  33  34
HETATM   34  N1  UNL     1      40.011   1.678   9.153  1.00  0.00    -0.101 NA
BRANCH  34  35
HETATM   35  O1  UNL     1      39.023   1.335   8.282  1.00  0.00    -0.287 OA
BRANCH  35  36
HETATM   36  C2  UNL     1      37.993   2.288   8.305  1.00  0.00     0.191 C
HETATM   37  C1  UNL     1      36.964   1.933   7.262  1.00  0.00     0.035 C
ENDBRANCH  35  36
ENDBRANCH  34  35
ENDBRANCH  33  34
ENDBRANCH  32  33
ENDBRANCH  31  32
BRANCH  31  38
HETATM   38  C6  UNL     1      40.281   4.100   6.376  1.00  0.00     0.246 C
HETATM   39  F1  UNL     1      39.334   3.555   5.531  1.00  0.00    -0.253 F
ENDBRANCH  31  38
ENDBRANCH  29  31
ENDBRANCH   1  29
BRANCH   6  40
HETATM   40  O7  UNL     1      41.686  -2.894   6.672  1.00  0.00    -0.390 OA
ATOM     41  H7  UNL     1      42.601  -3.112   6.804  1.00  0.00     0.210 HD
ENDBRANCH   6  40
BRANCH   7  42
HETATM   42  O8  UNL     1      41.339  -0.846   7.951  1.00  0.00    -0.389 OA
ATOM     43  H8  UNL     1      42.081  -1.415   8.119  1.00  0.00     0.210 HD
ENDBRANCH   7  42
TORSDOF 17
ENDMDL