MODEL 3
REMARK VINA RESULT: -7.870721897      0.975      1.045
REMARK  16 active torsions:
REMARK  status: ('A' for Active; 'I' for Inactive)
REMARK       I    between atoms: C1_4  and  N3_6
REMARK    1  A    between atoms: N3_6  and  C2_8
REMARK    2  A    between atoms: C2_8  and  C3_9
REMARK    3  A    between atoms: C3_9  and  C4_10
REMARK    4  A    between atoms: C4_10  and  S1_11
REMARK    5  A    between atoms: S1_11  and  C5_12
REMARK    6  A    between atoms: C5_12  and  C6_13
REMARK    7  A    between atoms: C7_17  and  C8_18
REMARK    8  A    between atoms: C8_18  and  N5_19
REMARK    9  A    between atoms: N5_19  and  C9_21
REMARK   10  A    between atoms: N6_22  and  O1_24
REMARK   11  A    between atoms: C10_27  and  O3_28
REMARK   12  A    between atoms: O3_28  and  C11_29
REMARK   13  A    between atoms: C12_31  and  C13_32
REMARK   14  A    between atoms: C13_32  and  O5_33
REMARK   15  A    between atoms: C14_35  and  N7_36
REMARK   16  A    between atoms: C16_41  and  N8_42
ROOT
HETATM    1  C6  UNL     1      43.344  -0.842   4.193  1.00  0.00     0.275 C
HETATM    2  N4  UNL     1      43.709   0.190   5.180  1.00  0.00    -0.036 N
ATOM      3  H41 UNL     1      44.584  -0.044   5.649  1.00  0.00     0.281 HD
ATOM      4  H42 UNL     1      43.082   0.167   5.985  1.00  0.00     0.281 HD
HETATM    5  C7  UNL     1      43.765   1.492   4.610  1.00  0.00     0.342 C
HETATM    6  O2  UNL     1      43.817   1.456   3.246  1.00  0.00    -0.321 OA
HETATM    7  C10 UNL     1      44.767   0.556   2.724  1.00  0.00     0.340 C
HETATM    8  C17 UNL     1      44.365  -0.875   3.110  1.00  0.00     0.321 C
HETATM    9  F1  UNL     1      43.761  -1.398   1.993  1.00  0.00    -0.198 F
HETATM   10  F2  UNL     1      45.472  -1.615   3.434  1.00  0.00    -0.198 F
ENDROOT
BRANCH   7  11
HETATM   11  O3  UNL     1      44.854   0.654   1.371  1.00  0.00    -0.323 OA
BRANCH  11  12
HETATM   12  C11 UNL     1      46.124   0.862   0.850  1.00  0.00     0.294 C
HETATM   13  O4  UNL     1      46.401   2.202   1.167  1.00  0.00    -0.350 OA
HETATM   14  C12 UNL     1      45.521   3.090   0.588  1.00  0.00     0.178 C
HETATM   15  C14 UNL     1      45.375   2.884  -0.903  1.00  0.00     0.216 C
HETATM   16  C15 UNL     1      44.962   1.433  -1.196  1.00  0.00     0.073 C
HETATM   17  C16 UNL     1      46.121   0.611  -0.606  1.00  0.00     0.240 C
BRANCH  14  18
HETATM   18  C13 UNL     1      45.832   4.523   0.952  1.00  0.00     0.198 C
BRANCH  18  19
HETATM   19  O5  UNL     1      44.634   5.219   1.035  1.00  0.00    -0.398 OA
ATOM     20  H5  UNL     1      44.616   5.680   1.866  1.00  0.00     0.209 HD
ENDBRANCH  18  19
ENDBRANCH  14  18
BRANCH  15  21
HETATM   21  N7  UNL     1      44.494   3.812  -1.536  1.00  0.00    -0.072 N
ATOM     22  H73 UNL     1      44.507   4.708  -1.048  1.00  0.00     0.274 HD
ATOM     23  H72 UNL     1      44.870   4.103  -2.440  1.00  0.00     0.274 HD
ATOM     24  H71 UNL     1      43.537   3.475  -1.639  1.00  0.00     0.274 HD
ENDBRANCH  15  21
BRANCH  17  25
HETATM   25  N8  UNL     1      46.029  -0.757  -0.983  1.00  0.00    -0.070 N
ATOM     26  H83 UNL     1      46.892  -1.054  -1.441  1.00  0.00     0.274 HD
ATOM     27  H82 UNL     1      46.053  -1.353  -0.156  1.00  0.00     0.274 HD
ATOM     28  H81 UNL     1      45.225  -0.995  -1.563  1.00  0.00     0.274 HD
ENDBRANCH  17  25
ENDBRANCH  11  12
ENDBRANCH   7  11
BRANCH   5  29
HETATM   29  C8  UNL     1      42.470   2.228   4.982  1.00  0.00     0.181 C
BRANCH  29  30
HETATM   30  N5  UNL     1      42.601   2.890   6.255  1.00  0.00    -0.381 N
ATOM     31  H5  UNL     1      41.907   2.743   6.988  1.00  0.00     0.160 HD
BRANCH  30  32
HETATM   32  C9  UNL     1      43.703   3.742   6.474  1.00  0.00     0.199 C
HETATM   33  N6  UNL     1      43.811   4.485   7.545  1.00  0.00    -0.265 N
ATOM     34  H6  UNL     1      44.624   5.088   7.668  1.00  0.00     0.194 HD
BRANCH  33  35
HETATM   35  O1  UNL     1      42.818   4.452   8.514  1.00  0.00    -0.289 OA
ATOM     36  H1  UNL     1      42.146   3.782   8.480  1.00  0.00     0.244 HD
ENDBRANCH  33  35
ENDBRANCH  30  32
ENDBRANCH  29  30
ENDBRANCH   5  29
BRANCH   1  37
HETATM   37  C5  UNL     1      43.010  -2.107   4.865  1.00  0.00     0.113 C
BRANCH  37  38
HETATM   38  S1  UNL     1      42.196  -2.179   6.403  1.00  0.00    -0.167 SA
BRANCH  38  39
HETATM   39  C4  UNL     1      40.990  -0.944   6.794  1.00  0.00     0.075 C
BRANCH  39  40
HETATM   40  C3  UNL     1      41.523  -0.125   7.978  1.00  0.00     0.030 C
BRANCH  40  41
HETATM   41  C2  UNL     1      40.431   0.562   8.736  1.00  0.00     0.123 C
BRANCH  41  42
HETATM   42  N3  UNL     1      40.725   1.961   8.956  1.00  0.00    -0.365 N
HETATM   43  C1  UNL     1      39.741   2.956   8.707  1.00  0.00     0.181 C
HETATM   44  N1  UNL     1      38.693   2.993   9.479  1.00  0.00    -0.374 N
HETATM   45  N2  UNL     1      39.909   3.867   7.652  1.00  0.00    -0.064 NA
ATOM     46  H12 UNL     1      37.987   3.708   9.301  1.00  0.00     0.158 HD
ATOM     47  H11 UNL     1      38.571   2.331  10.246  1.00  0.00     0.158 HD
ATOM     48  H3  UNL     1      41.648   2.236   9.294  1.00  0.00     0.162 HD
ENDBRANCH  41  42
ENDBRANCH  40  41
ENDBRANCH  39  40
ENDBRANCH  38  39
ENDBRANCH  37  38
ENDBRANCH   1  37
TORSDOF 16
ENDMDL