MODEL 2
REMARK VINA RESULT: -8.074598089      2.646      8.300
REMARK  16 active torsions:
REMARK  status: ('A' for Active; 'I' for Inactive)
REMARK    1  A    between atoms: C2_2  and  C3_3
REMARK    2  A    between atoms: C2_2  and  C14_31
REMARK    3  A    between atoms: C3_3  and  C4_4
REMARK    4  A    between atoms: C4_4  and  O1_5
REMARK    5  A    between atoms: O1_5  and  C5_6
REMARK    6  A    between atoms: C6_8  and  O3_9
REMARK    7  A    between atoms: O3_9  and  C7_10
REMARK    8  A    between atoms: C10_17  and  O4_18
REMARK    9  A    between atoms: C11_20  and  O5_21
REMARK   10  A    between atoms: C12_23  and  O6_24
REMARK   11  A    between atoms: C13_26  and  N2_27
REMARK   12  A    between atoms: C14_31  and  N3_32
REMARK   13  A    between atoms: C14_31  and  C16_37
REMARK       I    between atoms: N3_32  and  C15_34
REMARK   14  A    between atoms: C16_37  and  C17_39
REMARK   15  A    between atoms: C17_39  and  O9_40
REMARK   16  A    between atoms: O9_40  and  C18_41
ROOT
HETATM    1  C5  UNL     1      45.477   3.027   2.300  1.00  0.00     0.295 C
HETATM    2  O2  UNL     1      45.448   2.057   1.269  1.00  0.00    -0.327 OA
HETATM    3  C6  UNL     1      46.737   1.702   0.880  1.00  0.00     0.297 C
HETATM    4  C11 UNL     1      47.598   2.874   0.570  1.00  0.00     0.204 C
HETATM    5  C12 UNL     1      46.709   4.088   0.423  1.00  0.00     0.187 C
HETATM    6  C13 UNL     1      45.825   4.328   1.623  1.00  0.00     0.269 C
ENDROOT
BRANCH   1   7
HETATM    7  O1  UNL     1      44.253   2.992   2.878  1.00  0.00    -0.359 OA
BRANCH   7   8
HETATM    8  C4  UNL     1      43.747   1.778   3.276  1.00  0.00     0.171 C
BRANCH   8   9
HETATM    9  C3  UNL     1      43.815   1.540   4.754  1.00  0.00     0.033 C
BRANCH   9  10
HETATM   10  C2  UNL     1      42.840   2.210   5.603  1.00  0.00     0.013 C
HETATM   11  C1  UNL     1      43.534   3.405   6.281  1.00  0.00     0.012 C
BRANCH  10  12
HETATM   12  C14 UNL     1      41.927   1.520   6.516  1.00  0.00     0.151 C
BRANCH  12  13
HETATM   13  N3  UNL     1      41.460   0.210   6.090  1.00  0.00    -0.324 N
HETATM   14  C15 UNL     1      41.340  -0.822   7.063  1.00  0.00     0.284 C
HETATM   15  O7  UNL     1      41.629  -0.620   8.273  1.00  0.00    -0.630 OA
HETATM   16  O8  UNL     1      40.902  -2.095   6.733  1.00  0.00    -0.630 OA
ATOM     17  H3  UNL     1      41.222   0.035   5.114  1.00  0.00     0.166 HD
ENDBRANCH  12  13
BRANCH  12  18
HETATM   18  C16 UNL     1      40.721   2.279   6.991  1.00  0.00     0.118 C
HETATM   19  F2  UNL     1      40.874   2.766   8.248  1.00  0.00    -0.211 F
BRANCH  18  20
HETATM   20  C17 UNL     1      39.993   3.087   6.000  1.00  0.00     0.248 C
BRANCH  20  21
HETATM   21  O9  UNL     1      38.600   2.928   5.957  1.00  0.00    -0.300 OA
BRANCH  21  22
HETATM   22  C18 UNL     1      37.778   2.836   7.026  1.00  0.00     0.373 C
HETATM   23  N4  UNL     1      37.035   1.637   7.230  1.00  0.00    -0.032 NA
HETATM   24  O10 UNL     1      37.623   3.747   7.863  1.00  0.00    -0.242 OA
ENDBRANCH  21  22
ENDBRANCH  20  21
ENDBRANCH  18  20
ENDBRANCH  12  18
ENDBRANCH  10  12
ENDBRANCH   9  10
ENDBRANCH   8   9
ENDBRANCH   7   8
ENDBRANCH   1   7
BRANCH   6  25
HETATM   25  N2  UNL     1      44.601   4.935   1.136  1.00  0.00    -0.068 N
ATOM     26  H23 UNL     1      44.680   5.254   0.170  1.00  0.00     0.275 HD
ATOM     27  H22 UNL     1      43.854   4.254   0.997  1.00  0.00     0.275 HD
ATOM     28  H21 UNL     1      44.334   5.684   1.775  1.00  0.00     0.275 HD
ENDBRANCH   6  25
BRANCH   3  29
HETATM   29  O3  UNL     1      46.593   0.919  -0.264  1.00  0.00    -0.324 OA
BRANCH  29  30
HETATM   30  C7  UNL     1      45.310   0.482  -0.465  1.00  0.00     0.355 C
HETATM   31  N1  UNL     1      44.521   1.365  -1.296  1.00  0.00    -0.043 N
HETATM   32  C8  UNL     1      43.720   0.495  -2.143  1.00  0.00     0.275 C
ATOM     33  H12 UNL     1      43.971   2.042  -0.768  1.00  0.00     0.280 HD
ATOM     34  H11 UNL     1      45.079   2.042  -1.817  1.00  0.00     0.280 HD
HETATM   35  C9  UNL     1      44.554  -0.718  -2.376  1.00  0.00     0.228 C
HETATM   36  F1  UNL     1      43.783  -1.835  -2.633  1.00  0.00    -0.245 F
HETATM   37  C10 UNL     1      45.338  -0.871  -1.113  1.00  0.00     0.210 C
BRANCH  37  38
HETATM   38  O4  UNL     1      46.618  -1.304  -1.456  1.00  0.00    -0.388 OA
ATOM     39  H4  UNL     1      46.763  -2.230  -1.303  1.00  0.00     0.210 HD
ENDBRANCH  37  38
ENDBRANCH  29  30
ENDBRANCH   3  29
BRANCH   5  40
HETATM   40  O6  UNL     1      45.967   3.906  -0.752  1.00  0.00    -0.391 OA
ATOM     41  H6  UNL     1      45.267   3.298  -0.542  1.00  0.00     0.210 HD
ENDBRANCH   5  40
BRANCH   4  42
HETATM   42  O5  UNL     1      48.612   3.082   1.500  1.00  0.00    -0.388 OA
ATOM     43  H5  UNL     1      49.468   3.207   1.107  1.00  0.00     0.210 HD
ENDBRANCH   4  42
TORSDOF 16
ENDMDL