MODEL 2
REMARK VINA RESULT: -7.515143585      1.287      1.406
REMARK  9 active torsions:
REMARK  status: ('A' for Active; 'I' for Inactive)
REMARK    1  A    between atoms: O1_1  and  C1_3
REMARK    2  A    between atoms: C1_3  and  C2_4
REMARK    3  A    between atoms: C2_4  and  N1_5
REMARK    4  A    between atoms: N1_5  and  C3_8
REMARK    5  A    between atoms: C4_9  and  O2_10
REMARK    6  A    between atoms: O2_10  and  C5_11
REMARK    7  A    between atoms: C9_15  and  N2_16
REMARK    8  A    between atoms: N2_16  and  O3_17
REMARK    9  A    between atoms: C14_24  and  O4_25
ROOT
HETATM    1  C3  UNL     1     -21.001   1.198   1.971  1.00  0.00     0.250 C
HETATM    2  C4  UNL     1     -22.104   1.488   2.958  1.00  0.00     0.177 C
HETATM    3  C11 UNL     1     -23.139   2.327   2.237  1.00  0.00     0.006 C
HETATM    4  C12 UNL     1     -23.177   2.404   0.930  1.00  0.00     0.011 C
HETATM    5  C13 UNL     1     -22.279   1.729  -0.026  1.00  0.00     0.223 C
HETATM    6  F1  UNL     1     -22.911   1.308  -1.179  1.00  0.00    -0.242 F
HETATM    7  C14 UNL     1     -21.570   0.594   0.693  1.00  0.00     0.189 C
ENDROOT
BRANCH   2   8
HETATM    8  O2  UNL     1     -22.766   0.365   3.398  1.00  0.00    -0.374 OA
BRANCH   8   9
HETATM    9  C5  UNL     1     -22.582   0.071   4.747  1.00  0.00     0.127 C
HETATM   10  C6  UNL     1     -23.262  -1.210   5.044  1.00  0.00     0.059 C
HETATM   11  C7  UNL     1     -23.766  -1.361   6.408  1.00  0.00    -0.026 C
HETATM   12  C8  UNL     1     -24.206  -0.320   7.094  1.00  0.00    -0.007 C
HETATM   13  C9  UNL     1     -24.179   1.000   6.459  1.00  0.00     0.131 C
HETATM   14  C10 UNL     1     -22.983   1.236   5.588  1.00  0.00     0.059 C
BRANCH  13  15
HETATM   15  N2  UNL     1     -24.253   2.001   7.507  1.00  0.00    -0.095 NA
BRANCH  15  16
HETATM   16  O3  UNL     1     -23.285   2.940   7.390  1.00  0.00    -0.295 OA
ATOM     17  H3  UNL     1     -23.607   3.815   7.574  1.00  0.00     0.238 HD
ENDBRANCH  15  16
ENDBRANCH  13  15
ENDBRANCH   8   9
ENDBRANCH   2   8
BRANCH   1  18
HETATM   18  N1  UNL     1     -19.931   0.418   2.486  1.00  0.00    -0.064 N
ATOM     19  H12 UNL     1     -19.450  -0.086   1.742  1.00  0.00     0.277 HD
ATOM     20  H11 UNL     1     -20.279  -0.378   3.021  1.00  0.00     0.277 HD
BRANCH  18  21
HETATM   21  C2  UNL     1     -19.019   1.200   3.256  1.00  0.00     0.258 C
BRANCH  21  22
HETATM   22  C1  UNL     1     -18.358   2.298   2.457  1.00  0.00     0.191 C
BRANCH  22  23
HETATM   23  O1  UNL     1     -16.990   2.323   2.585  1.00  0.00    -0.399 OA
ATOM     24  H1  UNL     1     -16.530   2.181   1.766  1.00  0.00     0.209 HD
ENDBRANCH  22  23
ENDBRANCH  21  22
ENDBRANCH  18  21
ENDBRANCH   1  18
BRANCH   7  25
HETATM   25  O4  UNL     1     -22.518  -0.384   0.980  1.00  0.00    -0.390 OA
ATOM     26  H4  UNL     1     -22.585  -0.531   1.916  1.00  0.00     0.210 HD
ENDBRANCH   7  25
TORSDOF 9
ENDMDL