MODEL 1
REMARK VINA RESULT: -7.823738047      0.000      0.000
REMARK  10 active torsions:
REMARK  status: ('A' for Active; 'I' for Inactive)
REMARK    1  A    between atoms: C2_2  and  C3_3
REMARK    2  A    between atoms: C2_2  and  N1_11
REMARK    3  A    between atoms: C4_4  and  C5_5
REMARK    4  A    between atoms: C5_5  and  C7_7
REMARK    5  A    between atoms: C7_7  and  O1_9
REMARK    6  A    between atoms: N1_11  and  C9_14
REMARK    7  A    between atoms: C10_16  and  C11_18
REMARK    8  A    between atoms: C11_18  and  O3_19
REMARK    9  A    between atoms: C12_21  and  O4_22
REMARK   10  A    between atoms: C13_24  and  O5_25
ROOT
HETATM    1  C9  UNL     1     -21.144   3.050   2.761  1.00  0.00     0.356 C
HETATM    2  O2  UNL     1     -20.542   2.803   1.518  1.00  0.00    -0.311 OA
HETATM    3  C10 UNL     1     -19.721   3.931   1.408  1.00  0.00     0.256 C
HETATM    4  F1  UNL     1     -18.797   4.001   2.454  1.00  0.00    -0.206 F
HETATM    5  C12 UNL     1     -20.733   5.038   1.580  1.00  0.00     0.220 C
HETATM    6  C13 UNL     1     -21.574   4.496   2.749  1.00  0.00     0.209 C
ENDROOT
BRANCH   1   7
HETATM    7  N1  UNL     1     -22.160   2.121   3.120  1.00  0.00    -0.039 N
ATOM      8  H12 UNL     1     -22.239   1.365   2.440  1.00  0.00     0.281 HD
ATOM      9  H11 UNL     1     -23.092   2.521   3.014  1.00  0.00     0.281 HD
BRANCH   7  10
HETATM   10  C2  UNL     1     -21.945   1.627   4.437  1.00  0.00     0.207 C
HETATM   11  C1  UNL     1     -20.695   0.777   4.602  1.00  0.00     0.044 C
BRANCH  10  12
HETATM   12  C3  UNL     1     -23.077   0.862   4.999  1.00  0.00     0.002 C
HETATM   13  C4  UNL     1     -23.405   1.028   6.264  1.00  0.00    -0.022 C
BRANCH  13  14
HETATM   14  C5  UNL     1     -24.547   0.254   6.824  1.00  0.00     0.032 C
HETATM   15  C6  UNL     1     -24.252  -1.214   6.606  1.00  0.00     0.017 C
BRANCH  14  16
HETATM   16  C7  UNL     1     -24.616   0.495   8.333  1.00  0.00     0.121 C
HETATM   17  C8  UNL     1     -26.005   0.934   8.743  1.00  0.00     0.040 C
BRANCH  16  18
HETATM   18  O1  UNL     1     -24.234  -0.608   9.057  1.00  0.00    -0.395 OA
ATOM     19  H1  UNL     1     -24.972  -1.151   9.307  1.00  0.00     0.210 HD
ENDBRANCH  16  18
ENDBRANCH  14  16
ENDBRANCH  13  14
ENDBRANCH  10  12
ENDBRANCH   7  10
ENDBRANCH   1   7
BRANCH   6  20
HETATM   20  O5  UNL     1     -22.928   4.639   2.474  1.00  0.00    -0.388 OA
ATOM     21  H5  UNL     1     -23.297   5.414   2.880  1.00  0.00     0.210 HD
ENDBRANCH   6  20
BRANCH   3  22
HETATM   22  C11 UNL     1     -18.976   4.010   0.113  1.00  0.00     0.240 C
BRANCH  22  23
HETATM   23  O3  UNL     1     -17.774   4.687   0.175  1.00  0.00    -0.395 OA
ATOM     24  H3  UNL     1     -17.632   5.313  -0.525  1.00  0.00     0.209 HD
ENDBRANCH  22  23
ENDBRANCH   3  22
BRANCH   5  25
HETATM   25  O4  UNL     1     -21.528   5.204   0.450  1.00  0.00    -0.387 OA
ATOM     26  H4  UNL     1     -22.454   5.126   0.649  1.00  0.00     0.210 HD
ENDBRANCH   5  25
TORSDOF 10
ENDMDL