MODEL 4
REMARK VINA RESULT: -7.695187572      2.497      6.493
REMARK  7 active torsions:
REMARK  status: ('A' for Active; 'I' for Inactive)
REMARK    1  A    between atoms: C1_4  and  N2_5
REMARK    2  A    between atoms: C1_4  and  C10_23
REMARK    3  A    between atoms: N2_5  and  C2_7
REMARK    4  A    between atoms: C2_7  and  C3_8
REMARK    5  A    between atoms: C3_8  and  N3_9
REMARK    6  A    between atoms: N3_9  and  C4_11
REMARK    7  A    between atoms: C8_17  and  C9_18
ROOT
HETATM    1  C2  UNL     1     -21.365   0.625   4.888  1.00  0.00     0.141 C
ENDROOT
BRANCH   1   2
HETATM    2  N2  UNL     1     -22.813   0.613   4.893  1.00  0.00    -0.372 N
ATOM      3  H2  UNL     1     -23.279   1.187   4.189  1.00  0.00     0.161 HD
BRANCH   2   4
HETATM    4  C1  UNL     1     -23.641  -0.109   5.766  1.00  0.00     0.140 C
HETATM    5  N1  UNL     1     -23.753  -1.393   5.605  1.00  0.00    -0.383 N
ATOM      6  H12 UNL     1     -23.235  -1.839   4.849  1.00  0.00     0.157 HD
ATOM      7  H11 UNL     1     -24.355  -1.917   6.241  1.00  0.00     0.157 HD
BRANCH   4   8
HETATM    8  C10 UNL     1     -24.375   0.522   6.837  1.00  0.00     0.149 A
HETATM    9  N7  UNL     1     -24.347   1.890   6.889  1.00  0.00    -0.346 N
HETATM   10  C11 UNL     1     -24.978   2.595   7.822  1.00  0.00     0.133 A
ATOM     11  H7  UNL     1     -23.816   2.392   6.177  1.00  0.00     0.167 HD
HETATM   12  C12 UNL     1     -25.695   1.952   8.783  1.00  0.00     0.147 A
HETATM   13  F1  UNL     1     -26.355   2.626   9.753  1.00  0.00    -0.203 F
HETATM   14  C13 UNL     1     -25.717   0.568   8.722  1.00  0.00     0.133 A
HETATM   15  N8  UNL     1     -25.073  -0.121   7.772  1.00  0.00    -0.346 N
ATOM     16  H8  UNL     1     -25.116  -1.141   7.763  1.00  0.00     0.167 HD
ENDBRANCH   4   8
ENDBRANCH   2   4
ENDBRANCH   1   2
BRANCH   1  17
HETATM   17  C3  UNL     1     -20.829   0.882   3.494  1.00  0.00     0.139 C
BRANCH  17  18
HETATM   18  N3  UNL     1     -21.576   1.929   2.796  1.00  0.00    -0.386 N
ATOM     19  H3  UNL     1     -22.468   1.709   2.354  1.00  0.00     0.159 HD
BRANCH  18  20
HETATM   20  C4  UNL     1     -21.059   3.250   2.733  1.00  0.00     0.057 A
HETATM   21  C5  UNL     1     -19.709   3.413   2.342  1.00  0.00     0.117 A
HETATM   22  N4  UNL     1     -19.197   4.639   2.203  1.00  0.00    -0.373 N
HETATM   23  C6  UNL     1     -19.913   5.751   2.418  1.00  0.00     0.088 A
ATOM     24  H4  UNL     1     -18.220   4.732   1.923  1.00  0.00     0.164 HD
HETATM   25  C7  UNL     1     -21.217   5.627   2.795  1.00  0.00     0.034 A
HETATM   26  C8  UNL     1     -21.819   4.360   2.962  1.00  0.00     0.034 A
BRANCH  26  27
HETATM   27  C9  UNL     1     -23.186   4.301   3.414  1.00  0.00     0.122 C
HETATM   28  N5  UNL     1     -24.216   4.815   2.896  1.00  0.00    -0.387 N
ATOM     29  H52 UNL     1     -24.026   5.337   2.041  1.00  0.00     0.157 HD
ATOM     30  H51 UNL     1     -25.184   4.773   3.217  1.00  0.00     0.157 HD
HETATM   31  N6  UNL     1     -23.455   3.559   4.632  1.00  0.00    -0.082 NA
ENDBRANCH  26  27
ENDBRANCH  18  20
ENDBRANCH  17  18
ENDBRANCH   1  17
TORSDOF 7
ENDMDL