MODEL 3
REMARK VINA RESULT: -7.167132959      2.389      3.496
REMARK  10 active torsions:
REMARK  status: ('A' for Active; 'I' for Inactive)
REMARK    1  A    between atoms: N1_1  and  N2_4
REMARK    2  A    between atoms: N3_6  and  C1_8
REMARK    3  A    between atoms: C3_10  and  C4_11
REMARK    4  A    between atoms: C4_11  and  O1_12
REMARK    5  A    between atoms: C6_15  and  C7_16
REMARK    6  A    between atoms: C7_16  and  O2_17
REMARK    7  A    between atoms: C7_16  and  N4_19
REMARK    8  A    between atoms: N4_19  and  C8_22
REMARK    9  A    between atoms: C8_22  and  C9_23
REMARK   10  A    between atoms: C11_28  and  O3_29
ROOT
HETATM    1  C7  UNL     1     -22.680   2.009   5.895  1.00  0.00     0.324 C
ENDROOT
BRANCH   1   2
HETATM    2  C6  UNL     1     -22.862   0.673   6.527  1.00  0.00     0.067 C
HETATM    3  C1  UNL     1     -23.758   0.759   7.768  1.00  0.00     0.109 C
HETATM    4  C2  UNL     1     -24.068  -0.699   8.024  1.00  0.00     0.034 C
HETATM    5  C3  UNL     1     -23.757  -1.445   6.743  1.00  0.00     0.012 C
HETATM    6  C5  UNL     1     -23.670  -0.315   5.710  1.00  0.00     0.017 C
BRANCH   3   7
HETATM    7  N3  UNL     1     -25.007   1.383   7.359  1.00  0.00    -0.317 N
HETATM    8  N2  UNL     1     -25.533   2.283   8.013  1.00  0.00    -0.253 N
ATOM      9  H2  UNL     1     -25.555   1.860   8.941  1.00  0.00     0.207 HD
ATOM     10  H3  UNL     1     -25.461   1.065   6.503  1.00  0.00     0.182 HD
BRANCH   8  11
HETATM   11  N1  UNL     1     -26.046   3.369   8.244  1.00  0.00    -0.331 N
ATOM     12  H12 UNL     1     -25.824   3.820   7.357  1.00  0.00     0.178 HD
ATOM     13  H11 UNL     1     -26.549   4.087   8.764  1.00  0.00     0.178 HD
ENDBRANCH   8  11
ENDBRANCH   3   7
BRANCH   5  14
HETATM   14  C4  UNL     1     -24.790  -2.470   6.407  1.00  0.00     0.168 C
BRANCH  14  15
HETATM   15  O1  UNL     1     -24.304  -3.725   6.754  1.00  0.00    -0.400 OA
ATOM     16  H1  UNL     1     -24.024  -4.173   5.964  1.00  0.00     0.209 HD
ENDBRANCH  14  15
ENDBRANCH   5  14
ENDBRANCH   1   2
BRANCH   1  17
HETATM   17  O2  UNL     1     -23.221   3.053   6.623  1.00  0.00    -0.369 OA
ATOM     18  H2  UNL     1     -22.585   3.534   7.139  1.00  0.00     0.212 HD
ENDBRANCH   1  17
BRANCH   1  19
HETATM   19  N4  UNL     1     -23.041   2.055   4.507  1.00  0.00    -0.046 N
ATOM     20  H42 UNL     1     -23.339   1.138   4.174  1.00  0.00     0.280 HD
ATOM     21  H41 UNL     1     -23.911   2.569   4.371  1.00  0.00     0.280 HD
BRANCH  19  22
HETATM   22  C8  UNL     1     -21.977   2.595   3.675  1.00  0.00     0.271 C
BRANCH  22  23
HETATM   23  C9  UNL     1     -21.434   1.591   2.698  1.00  0.00     0.247 C
HETATM   24  N5  UNL     1     -21.020   0.365   3.363  1.00  0.00    -0.064 N
HETATM   25  C10 UNL     1     -19.644   0.621   3.787  1.00  0.00     0.267 C
ATOM     26  H52 UNL     1     -21.640   0.072   4.118  1.00  0.00     0.277 HD
ATOM     27  H51 UNL     1     -21.130  -0.474   2.794  1.00  0.00     0.277 HD
HETATM   28  C11 UNL     1     -19.055   1.224   2.512  1.00  0.00     0.179 C
HETATM   29  C12 UNL     1     -20.147   2.185   2.130  1.00  0.00     0.232 C
HETATM   30  F1  UNL     1     -19.833   3.387   2.755  1.00  0.00    -0.244 F
BRANCH  28  31
HETATM   31  O3  UNL     1     -17.874   1.896   2.819  1.00  0.00    -0.391 OA
ATOM     32  H3  UNL     1     -18.064   2.813   2.982  1.00  0.00     0.210 HD
ENDBRANCH  28  31
ENDBRANCH  22  23
ENDBRANCH  19  22
ENDBRANCH   1  19
TORSDOF 10
ENDMDL