MODEL 3
REMARK VINA RESULT: -6.756434954      4.558      7.086
REMARK  7 active torsions:
REMARK  status: ('A' for Active; 'I' for Inactive)
REMARK    1  A    between atoms: C1_4  and  C2_5
REMARK    2  A    between atoms: C1_4  and  N4_19
REMARK    3  A    between atoms: C2_5  and  N2_6
REMARK    4  A    between atoms: N2_6  and  C3_8
REMARK    5  A    between atoms: C3_8  and  C4_9
REMARK    6  A    between atoms: C4_9  and  O1_10
REMARK    7  A    between atoms: C4_9  and  C5_12
REMARK       I    between atoms: N4_19  and  C8_21
REMARK       I    between atoms: C8_21  and  N5_22
REMARK       I    between atoms: C8_21  and  N6_26
ROOT
HETATM    1  N1  UNL     1     -24.264   2.697   7.980  1.00  0.00    -0.388 N
ATOM      2  H11 UNL     1     -24.138   3.696   8.143  1.00  0.00     0.157 HD
ATOM      3  H12 UNL     1     -23.640   2.140   7.397  1.00  0.00     0.157 HD
HETATM    4  C1  UNL     1     -25.293   2.124   8.564  1.00  0.00     0.091 C
ENDROOT
BRANCH   4   5
HETATM    5  C2  UNL     1     -25.474   0.676   8.328  1.00  0.00     0.190 C
BRANCH   5   6
HETATM    6  N2  UNL     1     -24.780   0.138   7.203  1.00  0.00    -0.412 N
ATOM      7  H2  UNL     1     -24.677   0.671   6.340  1.00  0.00     0.153 HD
BRANCH   6   8
HETATM    8  C3  UNL     1     -24.241  -1.168   7.332  1.00  0.00     0.154 C
BRANCH   8   9
HETATM    9  C4  UNL     1     -24.176  -1.956   6.040  1.00  0.00     0.210 C
BRANCH   9  10
HETATM   10  O1  UNL     1     -23.898  -3.289   6.459  1.00  0.00    -0.386 OA
ATOM     11  H1  UNL     1     -22.953  -3.362   6.389  1.00  0.00     0.210 HD
ENDBRANCH   9  10
BRANCH   9  12
HETATM   12  C5  UNL     1     -23.053  -1.574   5.165  1.00  0.00     0.155 A
HETATM   13  N3  UNL     1     -22.656  -2.080   3.992  1.00  0.00    -0.345 N
HETATM   14  C6  UNL     1     -21.575  -1.407   3.559  1.00  0.00     0.135 A
ATOM     15  H3  UNL     1     -23.103  -2.855   3.503  1.00  0.00     0.167 HD
HETATM   16  C7  UNL     1     -21.321  -0.458   4.523  1.00  0.00     0.139 A
HETATM   17 BR1  UNL     1     -19.909   0.843   4.528  1.00  0.00    -0.021 Br
HETATM   18  O2  UNL     1     -22.226  -0.604   5.448  1.00  0.00    -0.286 OA
ENDBRANCH   9  12
ENDBRANCH   8   9
ENDBRANCH   6   8
ENDBRANCH   5   6
ENDBRANCH   4   5
BRANCH   4  19
HETATM   19  N4  UNL     1     -26.151   2.890   9.366  1.00  0.00    -0.330 N
HETATM   20  C8  UNL     1     -27.375   3.505   8.942  1.00  0.00     0.481 C
HETATM   21  N5  UNL     1     -27.984   4.223  10.058  1.00  0.00    -0.033 N
HETATM   22  N6  UNL     1     -27.133   4.468   7.860  1.00  0.00    -0.033 N
ATOM     23  H53 UNL     1     -28.119   3.623  10.872  1.00  0.00     0.278 HD
ATOM     24  H52 UNL     1     -27.342   4.896  10.475  1.00  0.00     0.278 HD
ATOM     25  H51 UNL     1     -28.855   4.660   9.756  1.00  0.00     0.278 HD
ATOM     26  H63 UNL     1     -26.435   5.163   8.124  1.00  0.00     0.278 HD
ATOM     27  H62 UNL     1     -26.636   4.040   7.078  1.00  0.00     0.278 HD
ATOM     28  H61 UNL     1     -28.003   4.906   7.558  1.00  0.00     0.278 HD
ATOM     29  H4  UNL     1     -25.879   3.021  10.341  1.00  0.00     0.164 HD
ENDBRANCH   4  19
TORSDOF 7
ENDMDL