MODEL 1
REMARK VINA RESULT: -6.935998632      0.000      0.000
REMARK  8 active torsions:
REMARK  status: ('A' for Active; 'I' for Inactive)
REMARK    1  A    between atoms: N1_1  and  C1_5
REMARK    2  A    between atoms: C2_6  and  N2_7
REMARK    3  A    between atoms: N2_7  and  C3_9
REMARK    4  A    between atoms: C4_11  and  O2_12
REMARK    5  A    between atoms: C5_14  and  O3_15
REMARK    6  A    between atoms: C7_19  and  N3_20
REMARK    7  A    between atoms: N3_20  and  C8_22
REMARK    8  A    between atoms: C8_22  and  C9_23
ROOT
HETATM    1  C1  UNL     1     -23.753   0.961   5.731  1.00  0.00     0.233 C
HETATM    2  C2  UNL     1     -24.722   0.716   6.863  1.00  0.00     0.147 C
HETATM    3  C4  UNL     1     -24.681  -0.741   7.212  1.00  0.00     0.174 C
HETATM    4  C5  UNL     1     -24.083  -1.613   6.174  1.00  0.00     0.184 C
HETATM    5  C6  UNL     1     -22.702  -1.216   5.724  1.00  0.00     0.226 C
HETATM    6  F1  UNL     1     -22.632  -1.561   4.400  1.00  0.00    -0.244 F
HETATM    7  C7  UNL     1     -22.448   0.208   6.034  1.00  0.00     0.150 C
ENDROOT
BRANCH   7   8
HETATM    8  N3  UNL     1     -21.393   0.888   5.483  1.00  0.00    -0.388 N
ATOM      9  H3  UNL     1     -21.464   1.905   5.454  1.00  0.00     0.159 HD
BRANCH   8  10
HETATM   10  C8  UNL     1     -20.245   0.327   4.965  1.00  0.00     0.095 C
BRANCH  10  11
HETATM   11  C9  UNL     1     -20.031   0.912   3.569  1.00  0.00    -0.014 A
HETATM   12  C10 UNL     1     -19.030   1.799   3.342  1.00  0.00     0.020 A
HETATM   13  C11 UNL     1     -18.900   2.279   2.067  1.00  0.00     0.050 A
HETATM   14  S1  UNL     1     -20.156   1.499   1.224  1.00  0.00    -0.113 SA
HETATM   15  C12 UNL     1     -20.816   0.585   2.496  1.00  0.00     0.062 A
ENDBRANCH  10  11
ENDBRANCH   8  10
ENDBRANCH   7   8
BRANCH   1  16
HETATM   16  N1  UNL     1     -23.509   2.366   5.509  1.00  0.00    -0.071 N
ATOM     17  H13 UNL     1     -22.747   2.703   6.097  1.00  0.00     0.274 HD
ATOM     18  H12 UNL     1     -23.092   2.526   4.592  1.00  0.00     0.274 HD
ATOM     19  H11 UNL     1     -24.349   2.932   5.634  1.00  0.00     0.274 HD
ENDBRANCH   1  16
BRANCH   2  20
HETATM   20  N2  UNL     1     -24.332   1.464   8.057  1.00  0.00    -0.359 N
ATOM     21  H2  UNL     1     -23.453   1.253   8.530  1.00  0.00     0.162 HD
BRANCH  20  22
HETATM   22  C3  UNL     1     -25.179   2.480   8.552  1.00  0.00     0.348 C
HETATM   23  O1  UNL     1     -25.530   3.475   7.873  1.00  0.00    -0.284 OA
ENDBRANCH  20  22
ENDBRANCH   2  20
BRANCH   4  24
HETATM   24  O3  UNL     1     -24.027  -2.917   6.694  1.00  0.00    -0.390 OA
ATOM     25  H3  UNL     1     -23.606  -3.468   6.045  1.00  0.00     0.210 HD
ENDBRANCH   4  24
BRANCH   3  26
HETATM   26  O2  UNL     1     -24.087  -0.995   8.446  1.00  0.00    -0.391 OA
ATOM     27  H2  UNL     1     -24.709  -1.257   9.115  1.00  0.00     0.210 HD
ENDBRANCH   3  26
TORSDOF 8
ENDMDL