MODEL 1
REMARK VINA RESULT: -7.161779246      0.000      0.000
REMARK  8 active torsions:
REMARK  status: ('A' for Active; 'I' for Inactive)
REMARK    1  A    between atoms: C2_2  and  S1_5
REMARK    2  A    between atoms: S1_5  and  C5_6
REMARK    3  A    between atoms: C7_8  and  C8_9
REMARK    4  A    between atoms: C8_9  and  N1_10
REMARK       I    between atoms: N1_10  and  C9_12
REMARK    5  A    between atoms: C10_15  and  C11_16
REMARK    6  A    between atoms: C10_15  and  N3_19
REMARK    7  A    between atoms: C11_16  and  O2_17
REMARK    8  A    between atoms: C12_21  and  O3_22
ROOT
HETATM    1  C5  UNL     1     -20.213   1.589   2.827  1.00  0.00     0.079 C
HETATM    2  C6  UNL     1     -20.807   2.969   3.116  1.00  0.00     0.026 C
HETATM    3  C7  UNL     1     -19.707   3.881   2.633  1.00  0.00     0.036 C
HETATM    4  C10 UNL     1     -18.883   3.213   1.632  1.00  0.00     0.115 C
HETATM    5  C12 UNL     1     -19.517   1.805   1.530  1.00  0.00     0.161 C
ENDROOT
BRANCH   3   6
HETATM    6  C8  UNL     1     -20.224   5.253   2.361  1.00  0.00     0.131 C
BRANCH   6   7
HETATM    7  N1  UNL     1     -19.282   6.306   2.583  1.00  0.00    -0.345 N
HETATM    8  C9  UNL     1     -19.425   7.314   3.571  1.00  0.00     0.328 C
HETATM    9  N2  UNL     1     -18.504   8.348   3.788  1.00  0.00    -0.040 NA
HETATM   10  O1  UNL     1     -20.467   7.259   4.301  1.00  0.00    -0.251 OA
ATOM     11  H1  UNL     1     -18.451   6.335   1.990  1.00  0.00     0.163 HD
ENDBRANCH   6   7
ENDBRANCH   3   6
BRANCH   4  12
HETATM   12  C11 UNL     1     -18.808   3.733   0.251  1.00  0.00     0.196 C
BRANCH  12  13
HETATM   13  O2  UNL     1     -17.822   4.693   0.047  1.00  0.00    -0.399 OA
ATOM     14  H2  UNL     1     -17.100   4.655   0.663  1.00  0.00     0.209 HD
ENDBRANCH  12  13
ENDBRANCH   4  12
BRANCH   4  15
HETATM   15  N3  UNL     1     -17.495   3.038   2.097  1.00  0.00    -0.037 NA
HETATM   16  F1  UNL     1     -17.364   1.807   2.585  1.00  0.00    -0.114 F
ENDBRANCH   4  15
BRANCH   1  17
HETATM   17  S1  UNL     1     -21.586   0.446   2.717  1.00  0.00    -0.153 SA
BRANCH  17  18
HETATM   18  C2  UNL     1     -22.167  -0.237   4.248  1.00  0.00    -0.003 C
HETATM   19  C1  UNL     1     -22.551  -1.702   4.056  1.00  0.00     0.026 C
HETATM   20  C3  UNL     1     -21.027  -0.238   5.268  1.00  0.00     0.026 C
HETATM   21  C4  UNL     1     -23.270   0.590   4.833  1.00  0.00     0.026 C
ENDBRANCH  17  18
ENDBRANCH   1  17
BRANCH   5  22
HETATM   22  O3  UNL     1     -20.486   1.815   0.514  1.00  0.00    -0.392 OA
ATOM     23  H3  UNL     1     -20.458   0.974   0.073  1.00  0.00     0.210 HD
ENDBRANCH   5  22
TORSDOF 8
ENDMDL