MODEL 1
REMARK VINA RESULT: -8.092654984      0.000      0.000
REMARK  9 active torsions:
REMARK  status: ('A' for Active; 'I' for Inactive)
REMARK    1  A    between atoms: C1_4  and  N2_5
REMARK    2  A    between atoms: C1_4  and  C8_15
REMARK    3  A    between atoms: N2_5  and  C2_7
REMARK    4  A    between atoms: C2_7  and  C3_8
REMARK    5  A    between atoms: C8_15  and  O1_16
REMARK    6  A    between atoms: C8_15  and  C9_18
REMARK    7  A    between atoms: C9_18  and  C10_20
REMARK    8  A    between atoms: C12_24  and  C13_25
REMARK    9  A    between atoms: C13_25  and  O2_26
ROOT
HETATM    1  C8  UNL     1     -22.529  -1.300   3.859  1.00  0.00     0.223 C
ENDROOT
BRANCH   1   2
HETATM    2  C1  UNL     1     -23.182  -1.233   5.175  1.00  0.00     0.103 C
HETATM    3  N1  UNL     1     -23.220  -2.240   5.959  1.00  0.00    -0.387 N
ATOM      4  H12 UNL     1     -23.673  -2.193   6.872  1.00  0.00     0.157 HD
ATOM      5  H11 UNL     1     -22.786  -3.114   5.664  1.00  0.00     0.157 HD
BRANCH   2   6
HETATM    6  N2  UNL     1     -23.785  -0.019   5.583  1.00  0.00    -0.372 N
ATOM      7  H2  UNL     1     -24.656   0.252   5.128  1.00  0.00     0.161 HD
BRANCH   6   8
HETATM    8  C2  UNL     1     -23.262   0.854   6.584  1.00  0.00     0.177 C
BRANCH   8   9
HETATM    9  C3  UNL     1     -24.353   1.308   7.473  1.00  0.00     0.026 A
HETATM   10  C4  UNL     1     -25.160   0.388   8.128  1.00  0.00     0.027 A
HETATM   11  C5  UNL     1     -26.183   0.770   8.960  1.00  0.00     0.003 A
HETATM   12  C6  UNL     1     -26.418   2.106   9.152  1.00  0.00     0.017 A
HETATM   13  C7  UNL     1     -25.612   3.010   8.498  1.00  0.00     0.088 A
HETATM   14  N3  UNL     1     -24.611   2.607   7.682  1.00  0.00    -0.368 N
ATOM     15  H3  UNL     1     -24.037   3.309   7.215  1.00  0.00     0.165 HD
ENDBRANCH   8   9
ENDBRANCH   6   8
ENDBRANCH   2   6
ENDBRANCH   1   2
BRANCH   1  16
HETATM   16  O1  UNL     1     -22.350  -2.638   3.437  1.00  0.00    -0.385 OA
ATOM     17  H1  UNL     1     -21.574  -2.732   2.897  1.00  0.00     0.210 HD
ENDBRANCH   1  16
BRANCH   1  18
HETATM   18  C9  UNL     1     -21.147  -0.684   3.870  1.00  0.00     0.254 C
HETATM   19  F1  UNL     1     -20.654  -0.462   5.115  1.00  0.00    -0.242 F
BRANCH  18  20
HETATM   20  C10 UNL     1     -21.215   0.617   3.078  1.00  0.00     0.253 C
HETATM   21  N4  UNL     1     -20.657   1.663   3.863  1.00  0.00    -0.394 N
HETATM   22  C11 UNL     1     -19.257   1.883   3.720  1.00  0.00     0.125 C
ATOM     23  H4  UNL     1     -21.228   2.224   4.494  1.00  0.00     0.155 HD
HETATM   24  C12 UNL     1     -18.792   1.762   2.305  1.00  0.00     0.051 C
HETATM   25  C14 UNL     1     -20.037   1.585   1.435  1.00  0.00     0.178 C
HETATM   26  O3  UNL     1     -20.632   0.403   1.860  1.00  0.00    -0.364 OA
BRANCH  24  27
HETATM   27  C13 UNL     1     -18.141   3.055   1.853  1.00  0.00     0.172 C
BRANCH  27  28
HETATM   28  O2  UNL     1     -16.764   3.010   1.975  1.00  0.00    -0.400 OA
ATOM     29  H2  UNL     1     -16.474   3.298   2.832  1.00  0.00     0.209 HD
ENDBRANCH  27  28
ENDBRANCH  24  27
ENDBRANCH  18  20
ENDBRANCH   1  18
TORSDOF 9
ENDMDL