MODEL 1
REMARK VINA RESULT: -7.149448475      0.000      0.000
REMARK  9 active torsions:
REMARK  status: ('A' for Active; 'I' for Inactive)
REMARK    1  A    between atoms: C1_2  and  N1_3
REMARK    2  A    between atoms: N1_3  and  C2_5
REMARK    3  A    between atoms: C2_5  and  C3_6
REMARK    4  A    between atoms: C3_6  and  C4_7
REMARK    5  A    between atoms: C4_7  and  N2_8
REMARK    6  A    between atoms: N2_8  and  C5_10
REMARK    7  A    between atoms: C5_10  and  C6_11
REMARK    8  A    between atoms: C6_11  and  C7_12
REMARK    9  A    between atoms: N3_13  and  C8_15
ROOT
HETATM    1  C8  UNL     1       4.875  13.493  45.089  1.00  0.00     0.139 A
HETATM    2  N4  UNL     1       4.556  12.789  46.242  1.00  0.00    -0.283 N
ATOM      3  H4  UNL     1       3.978  11.950  46.273  1.00  0.00     0.188 HD
HETATM    4  N5  UNL     1       5.101  13.354  47.276  1.00  0.00    -0.283 N
ATOM      5  H5  UNL     1       5.004  13.012  48.232  1.00  0.00     0.188 HD
HETATM    6  C9  UNL     1       5.816  14.456  46.933  1.00  0.00     0.143 A
HETATM    7  N6  UNL     1       6.532  15.342  47.628  1.00  0.00    -0.292 N
ATOM      8  H6  UNL     1       6.615  15.244  48.640  1.00  0.00     0.172 HD
HETATM    9  C10 UNL     1       7.146  16.361  47.006  1.00  0.00     0.328 A
HETATM   10  O2  UNL     1       7.832  17.217  47.639  1.00  0.00    -0.247 OA
HETATM   11  N7  UNL     1       6.999  16.434  45.671  1.00  0.00    -0.275 N
ATOM     12  H7  UNL     1       7.462  17.203  45.187  1.00  0.00     0.173 HD
HETATM   13  C11 UNL     1       6.292  15.571  44.931  1.00  0.00     0.267 A
HETATM   14  O3  UNL     1       6.174  15.671  43.692  1.00  0.00    -0.267 OA
HETATM   15  C12 UNL     1       5.660  14.525  45.552  1.00  0.00     0.123 A
ENDROOT
BRANCH   1  16
HETATM   16  N3  UNL     1       4.462  13.122  43.989  1.00  0.00    -0.354 N
HETATM   17  C7  UNL     1       3.552  13.199  42.993  1.00  0.00     0.068 C
ATOM     18  H3  UNL     1       5.130  12.416  43.681  1.00  0.00     0.166 HD
BRANCH  17  19
HETATM   19  C6  UNL     1       2.484  12.104  42.925  1.00  0.00     0.089 C
BRANCH  19  20
HETATM   20  C5  UNL     1       3.002  10.805  43.458  1.00  0.00     0.065 C
BRANCH  20  21
HETATM   21  N2  UNL     1       2.247  10.215  44.491  1.00  0.00    -0.382 N
ATOM     22  H2  UNL     1       2.597   9.384  44.969  1.00  0.00     0.164 HD
BRANCH  21  23
HETATM   23  C4  UNL     1       1.008  10.776  44.860  1.00  0.00     0.061 C
BRANCH  23  24
HETATM   24  C3  UNL     1      -0.035   9.759  45.282  1.00  0.00     0.064 C
BRANCH  24  25
HETATM   25  C2  UNL     1      -1.028  10.438  46.227  1.00  0.00     0.127 C
BRANCH  25  26
HETATM   26  N1  UNL     1      -1.148   9.739  47.471  1.00  0.00    -0.368 N
ATOM     27  H1  UNL     1      -0.753  10.182  48.300  1.00  0.00     0.161 HD
BRANCH  26  28
HETATM   28  C1  UNL     1      -1.776   8.474  47.640  1.00  0.00     0.348 C
HETATM   29  O1  UNL     1      -1.124   7.459  47.917  1.00  0.00    -0.284 OA
ENDBRANCH  26  28
ENDBRANCH  25  26
ENDBRANCH  24  25
ENDBRANCH  23  24
ENDBRANCH  21  23
ENDBRANCH  20  21
ENDBRANCH  19  20
ENDBRANCH  17  19
ENDBRANCH   1  16
TORSDOF 9
ENDMDL