MODEL 3
REMARK VINA RESULT: -6.896996197      2.314      2.815
REMARK  9 active torsions:
REMARK  status: ('A' for Active; 'I' for Inactive)
REMARK       I    between atoms: C1_4  and  N3_6
REMARK    1  A    between atoms: N3_6  and  C2_8
REMARK    2  A    between atoms: C2_8  and  C3_9
REMARK    3  A    between atoms: C3_9  and  C4_10
REMARK    4  A    between atoms: C4_10  and  C5_11
REMARK    5  A    between atoms: C5_11  and  N4_12
REMARK    6  A    between atoms: C6_14  and  C7_15
REMARK    7  A    between atoms: C7_15  and  C8_16
REMARK    8  A    between atoms: C8_16  and  C9_17
REMARK    9  A    between atoms: C9_17  and  N5_18
ROOT
HETATM    1  N4  UNL     1       4.996  13.582  43.692  1.00  0.00    -0.223 N
HETATM    2  O1  UNL     1       5.328  12.372  44.128  1.00  0.00    -0.241 OA
HETATM    3  C6  UNL     1       4.324  11.587  44.605  1.00  0.00     0.351 C
HETATM    4  N8  UNL     1       3.081  12.237  44.862  1.00  0.00    -0.038 N
ATOM      5  H81 UNL     1       3.148  12.823  45.695  1.00  0.00     0.280 HD
ATOM      6  H82 UNL     1       2.384  11.564  45.181  1.00  0.00     0.280 HD
HETATM    7  C11 UNL     1       2.575  12.998  43.749  1.00  0.00     0.340 C
HETATM    8  C12 UNL     1       3.685  13.856  43.260  1.00  0.00     0.269 C
HETATM    9  O2  UNL     1       3.486  14.812  42.477  1.00  0.00    -0.269 OA
ENDROOT
BRANCH   1  10
HETATM   10  C5  UNL     1       6.052  14.607  43.684  1.00  0.00     0.159 C
BRANCH  10  11
HETATM   11  C4  UNL     1       5.631  15.652  44.664  1.00  0.00     0.024 C
BRANCH  11  12
HETATM   12  C3  UNL     1       6.682  15.986  45.679  1.00  0.00     0.021 C
BRANCH  12  13
HETATM   13  C2  UNL     1       6.272  15.708  47.085  1.00  0.00     0.122 C
BRANCH  13  14
HETATM   14  N3  UNL     1       5.115  14.859  47.176  1.00  0.00    -0.365 N
HETATM   15  C1  UNL     1       5.340  13.537  47.719  1.00  0.00     0.181 C
HETATM   16  N1  UNL     1       4.458  12.974  48.466  1.00  0.00    -0.374 N
HETATM   17  N2  UNL     1       6.537  12.832  47.441  1.00  0.00    -0.064 NA
ATOM     18  H12 UNL     1       4.617  12.042  48.849  1.00  0.00     0.158 HD
ATOM     19  H11 UNL     1       3.597  13.482  48.666  1.00  0.00     0.158 HD
ATOM     20  H3  UNL     1       4.192  15.170  46.876  1.00  0.00     0.162 HD
ENDBRANCH  13  14
ENDBRANCH  12  13
ENDBRANCH  11  12
ENDBRANCH  10  11
ENDBRANCH   1  10
BRANCH   3  21
HETATM   21  C7  UNL     1       4.062  10.366  43.734  1.00  0.00     0.066 C
BRANCH  21  22
HETATM   22  C8  UNL     1       5.006  10.456  42.545  1.00  0.00     0.024 C
BRANCH  22  23
HETATM   23  C9  UNL     1       5.668   9.119  42.276  1.00  0.00     0.122 C
BRANCH  23  24
HETATM   24  N5  UNL     1       4.882   8.252  41.454  1.00  0.00    -0.367 N
HETATM   25  C10 UNL     1       5.148   8.117  40.210  1.00  0.00     0.196 C
HETATM   26  N6  UNL     1       4.333   7.235  39.412  1.00  0.00    -0.067 NA
HETATM   27  N7  UNL     1       6.224   8.828  39.649  1.00  0.00    -0.067 NA
ATOM     28  H5  UNL     1       4.102   7.737  41.863  1.00  0.00     0.161 HD
ENDBRANCH  23  24
ENDBRANCH  22  23
ENDBRANCH  21  22
ENDBRANCH   3  21
TORSDOF 9
ENDMDL