MODEL 3
REMARK VINA RESULT: -6.294305791      1.491      8.065
REMARK  13 active torsions:
REMARK  status: ('A' for Active; 'I' for Inactive)
REMARK    1  A    between atoms: C1_4  and  C2_5
REMARK    2  A    between atoms: C1_4  and  N3_10
REMARK    3  A    between atoms: C2_5  and  N2_6
REMARK    4  A    between atoms: N3_10  and  C3_12
REMARK    5  A    between atoms: C3_12  and  C4_13
REMARK    6  A    between atoms: C4_13  and  C5_14
REMARK    7  A    between atoms: C5_14  and  N4_15
REMARK    8  A    between atoms: N4_15  and  C6_17
REMARK    9  A    between atoms: C6_17  and  C7_21
REMARK   10  A    between atoms: N6_24  and  C10_25
REMARK   11  A    between atoms: C10_25  and  C11_26
REMARK   12  A    between atoms: C11_26  and  C12_27
REMARK   13  A    between atoms: C12_27  and  N7_28
ROOT
HETATM    1  C6  UNL     1       2.272  11.105  44.399  1.00  0.00     0.122 C
HETATM    2  N5  UNL     1       1.016  11.355  44.420  1.00  0.00    -0.384 N
ATOM      3  H51 UNL     1       0.664  12.311  44.456  1.00  0.00     0.157 HD
ATOM      4  H52 UNL     1       0.357  10.576  44.405  1.00  0.00     0.157 HD
ENDROOT
BRANCH   1   5
HETATM    5  N4  UNL     1       2.761   9.779  44.349  1.00  0.00    -0.375 N
ATOM      6  H4  UNL     1       3.737   9.581  44.575  1.00  0.00     0.161 HD
BRANCH   5   7
HETATM    7  C5  UNL     1       1.869   8.713  43.977  1.00  0.00     0.123 C
BRANCH   7   8
HETATM    8  C4  UNL     1       2.721   7.544  43.534  1.00  0.00     0.039 C
BRANCH   8   9
HETATM    9  C3  UNL     1       3.262   6.784  44.712  1.00  0.00     0.122 C
BRANCH   9  10
HETATM   10  N3  UNL     1       2.204   6.318  45.549  1.00  0.00    -0.379 N
ATOM     11  H3  UNL     1       1.266   6.669  45.358  1.00  0.00     0.160 HD
BRANCH  10  12
HETATM   12  C1  UNL     1       2.351   5.414  46.615  1.00  0.00     0.096 C
HETATM   13  N1  UNL     1       2.709   5.844  47.767  1.00  0.00    -0.388 N
ATOM     14  H12 UNL     1       2.816   5.187  48.541  1.00  0.00     0.157 HD
ATOM     15  H11 UNL     1       2.884   6.840  47.899  1.00  0.00     0.157 HD
BRANCH  12  16
HETATM   16  C2  UNL     1       2.097   3.973  46.424  1.00  0.00     0.304 C
BRANCH  16  17
HETATM   17  N2  UNL     1       2.796   3.265  47.482  1.00  0.00    -0.073 N
ATOM     18  H23 UNL     1       2.333   3.344  48.388  1.00  0.00     0.274 HD
ATOM     19  H22 UNL     1       2.735   2.251  47.391  1.00  0.00     0.274 HD
ATOM     20  H21 UNL     1       3.757   3.608  47.495  1.00  0.00     0.274 HD
ENDBRANCH  16  17
ENDBRANCH  12  16
ENDBRANCH  10  12
ENDBRANCH   9  10
ENDBRANCH   8   9
ENDBRANCH   7   8
ENDBRANCH   5   7
ENDBRANCH   1   5
BRANCH   1  21
HETATM   21  C7  UNL     1       3.214  12.216  44.421  1.00  0.00     0.078 A
HETATM   22  C8  UNL     1       3.263  13.160  43.403  1.00  0.00     0.050 A
HETATM   23  C9  UNL     1       4.150  14.208  43.421  1.00  0.00     0.094 A
HETATM   24  N6  UNL     1       5.000  14.330  44.450  1.00  0.00    -0.353 N
HETATM   25  C13 UNL     1       4.951  13.419  45.428  1.00  0.00     0.183 A
HETATM   26  N8  UNL     1       4.093  12.395  45.424  1.00  0.00    -0.349 N
ATOM     27  H8  UNL     1       4.104  11.733  46.199  1.00  0.00     0.166 HD
BRANCH  24  28
HETATM   28  C10 UNL     1       5.939  15.419  44.477  1.00  0.00     0.130 C
BRANCH  28  29
HETATM   29  C11 UNL     1       6.282  15.757  45.895  1.00  0.00     0.047 C
BRANCH  29  30
HETATM   30  C12 UNL     1       7.567  16.512  46.045  1.00  0.00     0.231 C
BRANCH  30  31
HETATM   31  N7  UNL     1       7.578  17.070  47.409  1.00  0.00    -0.079 N
ATOM     32  H73 UNL     1       7.114  16.471  48.092  1.00  0.00     0.274 HD
ATOM     33  H72 UNL     1       8.504  17.063  47.838  1.00  0.00     0.274 HD
ATOM     34  H71 UNL     1       7.170  18.003  47.350  1.00  0.00     0.274 HD
ENDBRANCH  30  31
ENDBRANCH  29  30
ENDBRANCH  28  29
ENDBRANCH  24  28
ENDBRANCH   1  21
TORSDOF 13
ENDMDL