MODEL 5
REMARK VINA RESULT: -5.579180667      2.799      7.037
REMARK  11 active torsions:
REMARK  status: ('A' for Active; 'I' for Inactive)
REMARK    1  A    between atoms: C2_5  and  N3_6
REMARK    2  A    between atoms: C2_5  and  C8_18
REMARK    3  A    between atoms: N3_6  and  C3_8
REMARK    4  A    between atoms: C3_8  and  C4_9
REMARK    5  A    between atoms: C4_9  and  O1_10
REMARK    6  A    between atoms: O1_10  and  C5_11
REMARK    7  A    between atoms: C5_11  and  C6_12
REMARK    8  A    between atoms: C6_12  and  N4_13
REMARK    9  A    between atoms: C8_18  and  N7_19
REMARK   10  A    between atoms: C8_18  and  C9_23
REMARK   11  A    between atoms: C9_23  and  C10_24
ROOT
HETATM    1  N1  UNL     1       6.239   7.924  44.308  1.00  0.00    -0.172 NA
HETATM    2  C1  UNL     1       5.313   8.586  44.342  1.00  0.00     0.183 C
HETATM    3  N2  UNL     1       4.164   9.380  44.376  1.00  0.00    -0.281 N
ATOM      4  H2  UNL     1       4.248  10.369  44.613  1.00  0.00     0.179 HD
HETATM    5  C2  UNL     1       3.005   8.894  44.116  1.00  0.00     0.117 C
ENDROOT
BRANCH   5   6
HETATM    6  N3  UNL     1       1.886   9.744  44.167  1.00  0.00    -0.375 N
ATOM      7  H3  UNL     1       0.955   9.382  43.962  1.00  0.00     0.160 HD
BRANCH   6   8
HETATM    8  C3  UNL     1       2.067  11.125  44.511  1.00  0.00     0.147 C
BRANCH   8   9
HETATM    9  C4  UNL     1       1.914  12.057  43.341  1.00  0.00     0.187 C
BRANCH   9  10
HETATM   10  O1  UNL     1       2.445  13.301  43.543  1.00  0.00    -0.388 OA
BRANCH  10  11
HETATM   11  C5  UNL     1       3.802  13.348  43.371  1.00  0.00     0.187 C
BRANCH  11  12
HETATM   12  C6  UNL     1       4.555  14.225  44.313  1.00  0.00     0.148 C
BRANCH  12  13
HETATM   13  N4  UNL     1       4.877  13.429  45.488  1.00  0.00    -0.365 N
HETATM   14  C7  UNL     1       5.756  13.826  46.355  1.00  0.00     0.197 C
HETATM   15  N5  UNL     1       6.027  13.012  47.476  1.00  0.00    -0.067 NA
HETATM   16  N6  UNL     1       6.402  15.050  46.139  1.00  0.00    -0.067 NA
ATOM     17  H4  UNL     1       4.400  12.540  45.633  1.00  0.00     0.161 HD
ENDBRANCH  12  13
ENDBRANCH  11  12
ENDBRANCH  10  11
ENDBRANCH   9  10
ENDBRANCH   8   9
ENDBRANCH   6   8
ENDBRANCH   5   6
BRANCH   5  18
HETATM   18  C8  UNL     1       2.874   7.460  43.771  1.00  0.00     0.256 C
BRANCH  18  19
HETATM   19  N7  UNL     1       2.617   7.255  42.371  1.00  0.00    -0.068 N
ATOM     20  H73 UNL     1       3.242   7.819  41.796  1.00  0.00     0.275 HD
ATOM     21  H72 UNL     1       2.916   6.326  42.075  1.00  0.00     0.275 HD
ATOM     22  H71 UNL     1       1.642   7.423  42.127  1.00  0.00     0.275 HD
ENDBRANCH  18  19
BRANCH  18  23
HETATM   23  C9  UNL     1       1.769   6.812  44.617  1.00  0.00     0.099 C
BRANCH  23  24
HETATM   24  C10 UNL     1       2.358   5.878  45.608  1.00  0.00     0.028 A
HETATM   25  C11 UNL     1       3.229   4.829  45.413  1.00  0.00     0.114 A
HETATM   26  N8  UNL     1       3.479   4.273  46.625  1.00  0.00    -0.360 N
HETATM   27  C12 UNL     1       2.790   4.942  47.571  1.00  0.00     0.180 A
ATOM     28  H8  UNL     1       4.090   3.474  46.793  1.00  0.00     0.166 HD
HETATM   29  N9  UNL     1       2.110   5.918  46.947  1.00  0.00    -0.355 N
ATOM     30  H9  UNL     1       1.497   6.591  47.408  1.00  0.00     0.166 HD
ENDBRANCH  23  24
ENDBRANCH  18  23
ENDBRANCH   5  18
TORSDOF 11
ENDMDL