MODEL 5
REMARK VINA RESULT: -6.127119782      2.588      4.006
REMARK  12 active torsions:
REMARK  status: ('A' for Active; 'I' for Inactive)
REMARK    1  A    between atoms: N3_4  and  C2_6
REMARK    2  A    between atoms: C2_6  and  C3_7
REMARK    3  A    between atoms: C3_7  and  N4_8
REMARK    4  A    between atoms: C3_7  and  C4_12
REMARK    5  A    between atoms: C4_12  and  C5_13
REMARK    6  A    between atoms: C5_13  and  C6_14
REMARK    7  A    between atoms: C6_14  and  C7_15
REMARK    8  A    between atoms: C7_15  and  C8_16
REMARK    9  A    between atoms: C8_16  and  N5_17
REMARK   10  A    between atoms: C10_19  and  O1_20
REMARK   11  A    between atoms: C11_22  and  O2_23
REMARK   12  A    between atoms: C12_25  and  O3_26
ROOT
HETATM    1  C6  UNL     1       4.676   4.174  40.997  1.00  0.00     0.005 C
ENDROOT
BRANCH   1   2
HETATM    2  C5  UNL     1       3.706   5.139  40.337  1.00  0.00     0.002 C
BRANCH   2   3
HETATM    3  C4  UNL     1       3.876   6.564  40.802  1.00  0.00     0.034 C
BRANCH   3   4
HETATM    4  C3  UNL     1       5.303   6.952  40.479  1.00  0.00     0.201 C
BRANCH   4   5
HETATM    5  C2  UNL     1       5.966   7.674  41.626  1.00  0.00     0.154 C
BRANCH   5   6
HETATM    6  N3  UNL     1       5.109   8.606  42.280  1.00  0.00    -0.365 N
HETATM    7  C1  UNL     1       5.197   8.785  43.539  1.00  0.00     0.197 C
HETATM    8  N1  UNL     1       6.142   8.062  44.292  1.00  0.00    -0.067 NA
HETATM    9  N2  UNL     1       4.351   9.705  44.191  1.00  0.00    -0.067 NA
ATOM     10  H3  UNL     1       4.423   9.131  41.738  1.00  0.00     0.161 HD
ENDBRANCH   5   6
ENDBRANCH   4   5
BRANCH   4  11
HETATM   11  N4  UNL     1       5.285   7.714  39.272  1.00  0.00    -0.073 N
ATOM     12  H43 UNL     1       5.543   8.685  39.451  1.00  0.00     0.274 HD
ATOM     13  H42 UNL     1       6.055   7.446  38.661  1.00  0.00     0.274 HD
ATOM     14  H41 UNL     1       4.394   7.662  38.779  1.00  0.00     0.274 HD
ENDBRANCH   4  11
ENDBRANCH   3   4
ENDBRANCH   2   3
ENDBRANCH   1   2
BRANCH   1  15
HETATM   15  C7  UNL     1       3.966   3.156  41.834  1.00  0.00     0.044 C
BRANCH  15  16
HETATM   16  C8  UNL     1       4.348   3.107  43.265  1.00  0.00     0.058 C
BRANCH  16  17
HETATM   17  N5  UNL     1       3.571   3.795  44.210  1.00  0.00    -0.388 N
HETATM   18  C9  UNL     1       2.939   3.103  45.254  1.00  0.00     0.156 C
HETATM   19  C10 UNL     1       3.204   3.838  46.573  1.00  0.00     0.167 C
HETATM   20  C11 UNL     1       2.429   5.148  46.453  1.00  0.00     0.178 C
HETATM   21  C12 UNL     1       2.835   5.909  45.225  1.00  0.00     0.167 C
HETATM   22  C13 UNL     1       3.794   5.188  44.348  1.00  0.00     0.156 C
BRANCH  19  23
HETATM   23  O1  UNL     1       4.571   4.089  46.670  1.00  0.00    -0.391 OA
ATOM     24  H1  UNL     1       4.902   4.292  45.803  1.00  0.00     0.210 HD
ENDBRANCH  19  23
BRANCH  20  25
HETATM   25  O2  UNL     1       2.471   5.891  47.616  1.00  0.00    -0.390 OA
ATOM     26  H2  UNL     1       1.637   6.302  47.811  1.00  0.00     0.210 HD
ENDBRANCH  20  25
BRANCH  21  27
HETATM   27  O3  UNL     1       3.489   7.079  45.679  1.00  0.00    -0.391 OA
ATOM     28  H3  UNL     1       2.804   7.688  45.930  1.00  0.00     0.210 HD
ENDBRANCH  21  27
ENDBRANCH  16  17
ENDBRANCH  15  16
ENDBRANCH   1  15
TORSDOF 12
ENDMDL