MODEL 1
REMARK VINA RESULT: -6.076120585      0.000      0.000
REMARK  12 active torsions:
REMARK  status: ('A' for Active; 'I' for Inactive)
REMARK    1  A    between atoms: N1_2  and  C4_5
REMARK    2  A    between atoms: C4_5  and  C5_6
REMARK    3  A    between atoms: C6_9  and  C7_10
REMARK    4  A    between atoms: C7_10  and  C8_11
REMARK    5  A    between atoms: C8_11  and  C9_12
REMARK    6  A    between atoms: C9_12  and  N3_13
REMARK    7  A    between atoms: N3_13  and  C10_15
REMARK    8  A    between atoms: C10_15  and  C11_16
REMARK    9  A    between atoms: C11_16  and  N4_17
REMARK   10  A    between atoms: C12_21  and  O1_22
REMARK   11  A    between atoms: C13_24  and  O2_25
REMARK   12  A    between atoms: C14_27  and  O3_28
ROOT
HETATM    1  C5  UNL     1       4.788  10.599  43.193  1.00  0.00     0.134 C
HETATM    2  N2  UNL     1       4.845  11.964  42.851  1.00  0.00    -0.406 N
ATOM      3  H2  UNL     1       5.655  12.322  42.344  1.00  0.00     0.154 HD
HETATM    4  C6  UNL     1       3.811  12.836  43.193  1.00  0.00     0.108 C
HETATM    5  C12 UNL     1       2.509  12.228  43.615  1.00  0.00     0.171 C
HETATM    6  C13 UNL     1       2.614  10.963  44.379  1.00  0.00     0.179 C
HETATM    7  C14 UNL     1       3.994  10.409  44.486  1.00  0.00     0.173 C
ENDROOT
BRANCH   4   8
HETATM    8  C7  UNL     1       4.259  13.831  44.231  1.00  0.00     0.029 C
BRANCH   8   9
HETATM    9  C8  UNL     1       5.351  14.763  43.779  1.00  0.00     0.022 C
BRANCH   9  10
HETATM   10  C9  UNL     1       5.908  15.617  44.926  1.00  0.00     0.119 C
BRANCH  10  11
HETATM   11  N3  UNL     1       5.163  15.419  46.111  1.00  0.00    -0.401 N
ATOM     12  H3  UNL     1       4.149  15.525  46.096  1.00  0.00     0.158 HD
BRANCH  11  13
HETATM   13  C10 UNL     1       5.810  15.079  47.308  1.00  0.00     0.082 C
BRANCH  13  14
HETATM   14  C11 UNL     1       5.854  13.651  47.697  1.00  0.00     0.273 C
BRANCH  14  15
HETATM   15  N4  UNL     1       4.593  13.023  47.952  1.00  0.00    -0.075 N
ATOM     16  H43 UNL     1       3.856  13.513  47.444  1.00  0.00     0.274 HD
ATOM     17  H42 UNL     1       4.562  12.113  47.492  1.00  0.00     0.274 HD
ATOM     18  H41 UNL     1       4.328  12.924  48.932  1.00  0.00     0.274 HD
ENDBRANCH  14  15
ENDBRANCH  13  14
ENDBRANCH  11  13
ENDBRANCH  10  11
ENDBRANCH   9  10
ENDBRANCH   8   9
ENDBRANCH   4   8
BRANCH   5  19
HETATM   19  O1  UNL     1       1.622  12.149  42.542  1.00  0.00    -0.391 OA
ATOM     20  H1  UNL     1       1.996  11.650  41.825  1.00  0.00     0.210 HD
ENDBRANCH   5  19
BRANCH   1  21
HETATM   21  C4  UNL     1       4.353   9.642  42.147  1.00  0.00     0.263 C
BRANCH  21  22
HETATM   22  N1  UNL     1       5.309   8.749  41.610  1.00  0.00    -0.077 N
HETATM   23  C1  UNL     1       5.749   9.335  40.322  1.00  0.00     0.271 C
HETATM   24  C2  UNL     1       6.535   8.602  42.369  1.00  0.00     0.271 C
HETATM   25  C3  UNL     1       4.763   7.460  41.228  1.00  0.00     0.271 C
ENDBRANCH  21  22
ENDBRANCH   1  21
BRANCH   6  26
HETATM   26  O2  UNL     1       1.765   9.996  43.792  1.00  0.00    -0.390 OA
ATOM     27  H2  UNL     1       2.052   9.829  42.903  1.00  0.00     0.210 HD
ENDBRANCH   6  26
BRANCH   7  28
HETATM   28  O3  UNL     1       3.877   9.039  44.768  1.00  0.00    -0.391 OA
ATOM     29  H3  UNL     1       4.401   8.827  45.532  1.00  0.00     0.210 HD
ENDBRANCH   7  28
TORSDOF 12
ENDMDL