MODEL 3
REMARK VINA RESULT: -6.876952907      1.651      2.223
REMARK  8 active torsions:
REMARK  status: ('A' for Active; 'I' for Inactive)
REMARK    1  A    between atoms: C2_2  and  C3_3
REMARK    2  A    between atoms: C3_3  and  N1_4
REMARK    3  A    between atoms: N1_4  and  C4_7
REMARK    4  A    between atoms: C4_7  and  C5_8
REMARK    5  A    between atoms: C5_8  and  N2_9
REMARK    6  A    between atoms: N2_9  and  C6_12
REMARK    7  A    between atoms: C6_12  and  C7_13
REMARK    8  A    between atoms: C7_13  and  C8_14
ROOT
HETATM    1  C8  UNL     1       3.769   7.883  43.907  1.00  0.00     0.108 C
HETATM    2  C9  UNL     1       5.202   8.131  43.722  1.00  0.00     0.228 C
HETATM    3  O1  UNL     1       6.171   7.451  44.137  1.00  0.00    -0.273 OA
HETATM    4  N3  UNL     1       5.285   9.356  42.947  1.00  0.00    -0.326 N
ATOM      5  H3  UNL     1       5.989   9.601  42.252  1.00  0.00     0.168 HD
HETATM    6  C10 UNL     1       4.153  10.158  43.370  1.00  0.00     0.065 C
HETATM    7  C11 UNL     1       3.876  11.432  43.480  1.00  0.00     0.089 A
HETATM    8  N4  UNL     1       4.692  12.481  43.164  1.00  0.00    -0.305 N
ATOM      9  H4  UNL     1       5.635  12.438  42.780  1.00  0.00     0.171 HD
HETATM   10  C12 UNL     1       3.983  13.588  43.469  1.00  0.00     0.325 A
HETATM   11  O2  UNL     1       4.430  14.756  43.303  1.00  0.00    -0.247 OA
HETATM   12  N5  UNL     1       2.777  13.271  43.958  1.00  0.00    -0.305 N
ATOM     13  H5  UNL     1       2.054  13.924  44.261  1.00  0.00     0.171 HD
HETATM   14  C13 UNL     1       2.698  11.931  43.974  1.00  0.00     0.080 A
HETATM   15  C14 UNL     1       1.814  11.075  44.461  1.00  0.00     0.116 C
HETATM   16  N6  UNL     1       2.096   9.658  44.476  1.00  0.00    -0.386 N
ATOM     17  H6  UNL     1       1.624   9.031  45.129  1.00  0.00     0.159 HD
HETATM   18  C15 UNL     1       3.042   9.175  43.560  1.00  0.00     0.146 C
ENDROOT
BRANCH   1  19
HETATM   19  C7  UNL     1       3.192   6.837  43.019  1.00  0.00     0.044 C
BRANCH  19  20
HETATM   20  C6  UNL     1       3.984   6.363  41.859  1.00  0.00     0.233 C
BRANCH  20  21
HETATM   21  N2  UNL     1       3.371   6.603  40.609  1.00  0.00    -0.073 N
ATOM     22  H22 UNL     1       2.712   7.378  40.671  1.00  0.00     0.277 HD
ATOM     23  H21 UNL     1       2.724   5.850  40.373  1.00  0.00     0.277 HD
BRANCH  21  24
HETATM   24  C5  UNL     1       4.323   6.820  39.537  1.00  0.00     0.259 C
BRANCH  24  25
HETATM   25  C4  UNL     1       5.688   7.219  39.993  1.00  0.00     0.260 C
BRANCH  25  26
HETATM   26  N1  UNL     1       6.177   8.323  39.223  1.00  0.00    -0.070 N
ATOM     27  H12 UNL     1       6.199   9.183  39.772  1.00  0.00     0.277 HD
ATOM     28  H11 UNL     1       5.507   8.610  38.510  1.00  0.00     0.277 HD
BRANCH  26  29
HETATM   29  C3  UNL     1       7.479   8.026  38.645  1.00  0.00     0.259 C
BRANCH  29  30
HETATM   30  C2  UNL     1       7.372   7.446  37.299  1.00  0.00    -0.010 C
HETATM   31  C1  UNL     1       8.388   6.790  36.771  1.00  0.00     0.008 C
ENDBRANCH  29  30
ENDBRANCH  26  29
ENDBRANCH  25  26
ENDBRANCH  24  25
ENDBRANCH  21  24
ENDBRANCH  20  21
ENDBRANCH  19  20
ENDBRANCH   1  19
TORSDOF 8
ENDMDL