MODEL 2
REMARK VINA RESULT: -6.104711610      1.262      1.833
REMARK  11 active torsions:
REMARK  status: ('A' for Active; 'I' for Inactive)
REMARK    1  A    between atoms: C1_4  and  N2_5
REMARK    2  A    between atoms: N2_5  and  C2_7
REMARK    3  A    between atoms: C2_7  and  C3_8
REMARK    4  A    between atoms: C3_8  and  C4_9
REMARK    5  A    between atoms: C4_9  and  C5_10
REMARK    6  A    between atoms: C5_10  and  N3_11
REMARK    7  A    between atoms: C6_12  and  O1_13
REMARK    8  A    between atoms: C9_20  and  C10_21
REMARK    9  A    between atoms: C10_21  and  C11_22
REMARK   10  A    between atoms: C11_22  and  C12_23
REMARK   11  A    between atoms: C12_23  and  N5_24
ROOT
HETATM    1  N3  UNL     1       4.290  10.978  43.289  1.00  0.00    -0.331 N
HETATM    2  C6  UNL     1       4.787  12.154  43.841  1.00  0.00     0.242 C
HETATM    3  C7  UNL     1       3.945  13.387  43.590  1.00  0.00     0.176 C
HETATM    4  N4  UNL     1       2.553  13.142  43.907  1.00  0.00    -0.352 N
ATOM      5  H4  UNL     1       1.972  13.879  44.304  1.00  0.00     0.162 HD
HETATM    6  C8  UNL     1       2.021  11.864  43.654  1.00  0.00     0.264 C
HETATM    7  O2  UNL     1       0.782  11.726  43.629  1.00  0.00    -0.266 OA
HETATM    8  C9  UNL     1       2.891  10.716  43.421  1.00  0.00     0.082 C
ENDROOT
BRANCH   1   9
HETATM    9  C5  UNL     1       5.026  10.213  42.382  1.00  0.00     0.067 C
BRANCH   9  10
HETATM   10  C4  UNL     1       5.737   9.024  42.931  1.00  0.00     0.046 C
BRANCH  10  11
HETATM   11  C3  UNL     1       5.852   7.905  41.920  1.00  0.00     0.025 C
BRANCH  11  12
HETATM   12  C2  UNL     1       5.175   8.273  40.614  1.00  0.00     0.120 C
BRANCH  12  13
HETATM   13  N2  UNL     1       6.106   8.181  39.501  1.00  0.00    -0.386 N
ATOM     14  H2  UNL     1       5.865   7.655  38.662  1.00  0.00     0.160 HD
BRANCH  13  15
HETATM   15  C1  UNL     1       7.361   8.841  39.610  1.00  0.00     0.168 C
HETATM   16  N1  UNL     1       7.344  10.132  39.617  1.00  0.00    -0.396 N
ATOM     17  H12 UNL     1       6.463  10.640  39.548  1.00  0.00     0.156 HD
ATOM     18  H11 UNL     1       8.245  10.605  39.694  1.00  0.00     0.156 HD
ENDBRANCH  13  15
ENDBRANCH  12  13
ENDBRANCH  11  12
ENDBRANCH  10  11
ENDBRANCH   9  10
ENDBRANCH   1   9
BRANCH   2  19
HETATM   19  O1  UNL     1       6.071  12.422  43.393  1.00  0.00    -0.375 OA
ATOM     20  H1  UNL     1       6.151  13.315  43.080  1.00  0.00     0.212 HD
ENDBRANCH   2  19
BRANCH   8  21
HETATM   21  C10 UNL     1       2.607   9.468  44.184  1.00  0.00     0.068 C
BRANCH  21  22
HETATM   22  C11 UNL     1       2.189   8.268  43.432  1.00  0.00     0.051 C
BRANCH  22  23
HETATM   23  C12 UNL     1       2.719   6.950  43.876  1.00  0.00     0.063 C
BRANCH  23  24
HETATM   24  N5  UNL     1       2.833   6.710  45.260  1.00  0.00    -0.347 N
HETATM   25  C13 UNL     1       2.899   5.662  45.959  1.00  0.00     0.200 C
HETATM   26  N6  UNL     1       2.864   4.338  45.389  1.00  0.00    -0.067 NA
HETATM   27  N7  UNL     1       3.023   5.710  47.395  1.00  0.00    -0.067 NA
ATOM     28  H5  UNL     1       2.868   7.566  45.815  1.00  0.00     0.167 HD
ENDBRANCH  23  24
ENDBRANCH  22  23
ENDBRANCH  21  22
ENDBRANCH   8  21
TORSDOF 11
ENDMDL