MODEL 3
REMARK VINA RESULT: -6.467553074      2.527      3.067
REMARK  12 active torsions:
REMARK  status: ('A' for Active; 'I' for Inactive)
REMARK    1  A    between atoms: C1_2  and  N1_3
REMARK    2  A    between atoms: N1_3  and  C2_5
REMARK    3  A    between atoms: C2_5  and  C3_6
REMARK    4  A    between atoms: C3_6  and  N2_7
REMARK    5  A    between atoms: N2_7  and  C4_9
REMARK    6  A    between atoms: C4_9  and  N3_11
REMARK    7  A    between atoms: N3_11  and  N4_13
REMARK    8  A    between atoms: N4_13  and  N5_15
REMARK    9  A    between atoms: C5_17  and  C6_18
REMARK   10  A    between atoms: C8_22  and  C9_23
REMARK   11  A    between atoms: C9_23  and  N7_24
REMARK   12  A    between atoms: N7_24  and  C10_26
ROOT
HETATM    1  N4  UNL     1      -0.250  10.400  45.800  1.00  0.00    -0.241 N
ATOM      2  H4  UNL     1      -0.493   9.432  45.589  1.00  0.00     0.208 HD
ENDROOT
BRANCH   1   3
HETATM    3  N3  UNL     1      -1.120  11.222  46.561  1.00  0.00    -0.262 N
ATOM      4  H3  UNL     1      -0.793  11.632  47.435  1.00  0.00     0.191 HD
BRANCH   3   5
HETATM    5  C4  UNL     1      -2.440  11.476  46.113  1.00  0.00     0.187 C
HETATM    6  S1  UNL     1      -3.121  12.952  46.253  1.00  0.00    -0.040 SA
BRANCH   5   7
HETATM    7  N2  UNL     1      -3.185  10.435  45.534  1.00  0.00    -0.364 N
ATOM      8  H2  UNL     1      -2.851   9.981  44.683  1.00  0.00     0.162 HD
BRANCH   7   9
HETATM    9  C3  UNL     1      -4.420  10.008  46.138  1.00  0.00     0.141 C
BRANCH   9  10
HETATM   10  C2  UNL     1      -4.411   8.567  46.537  1.00  0.00     0.141 C
BRANCH  10  11
HETATM   11  N1  UNL     1      -3.793   8.393  47.817  1.00  0.00    -0.367 N
ATOM     12  H1  UNL     1      -4.364   8.408  48.662  1.00  0.00     0.161 HD
BRANCH  11  13
HETATM   13  C1  UNL     1      -2.397   8.201  47.918  1.00  0.00     0.348 C
HETATM   14  O1  UNL     1      -1.589   8.173  46.969  1.00  0.00    -0.284 OA
ENDBRANCH  11  13
ENDBRANCH  10  11
ENDBRANCH   9  10
ENDBRANCH   7   9
ENDBRANCH   5   7
ENDBRANCH   3   5
ENDBRANCH   1   3
BRANCH   1  15
HETATM   15  N5  UNL     1       0.930  10.948  45.354  1.00  0.00    -0.297 N
HETATM   16  C5  UNL     1       1.620  10.531  44.369  1.00  0.00     0.121 C
ATOM     17  H5  UNL     1       1.284  11.761  45.858  1.00  0.00     0.187 HD
BRANCH  16  18
HETATM   18  C6  UNL     1       2.848  11.201  44.003  1.00  0.00    -0.002 A
HETATM   19  C7  UNL     1       3.736  10.790  43.007  1.00  0.00     0.101 A
HETATM   20  N6  UNL     1       4.778  11.633  42.921  1.00  0.00    -0.367 N
HETATM   21  C8  UNL     1       4.578  12.585  43.846  1.00  0.00     0.027 A
ATOM     22  H6  UNL     1       5.567  11.564  42.278  1.00  0.00     0.165 HD
HETATM   23  C11 UNL     1       3.403  12.351  44.529  1.00  0.00     0.041 A
BRANCH  21  24
HETATM   24  C9  UNL     1       5.492  13.720  44.091  1.00  0.00     0.178 C
BRANCH  24  25
HETATM   25  N7  UNL     1       5.217  14.442  45.307  1.00  0.00    -0.363 N
ATOM     26  H7  UNL     1       4.339  14.953  45.402  1.00  0.00     0.162 HD
BRANCH  25  27
HETATM   27  C10 UNL     1       6.153  14.449  46.377  1.00  0.00     0.348 C
HETATM   28  O2  UNL     1       6.669  13.394  46.787  1.00  0.00    -0.284 OA
ENDBRANCH  25  27
ENDBRANCH  24  25
ENDBRANCH  21  24
ENDBRANCH  16  18
ENDBRANCH   1  15
TORSDOF 12
ENDMDL