MODEL 1
REMARK VINA RESULT: -5.984240849      0.000      0.000
REMARK  13 active torsions:
REMARK  status: ('A' for Active; 'I' for Inactive)
REMARK    1  A    between atoms: C2_2  and  N1_5
REMARK    2  A    between atoms: N1_5  and  C5_8
REMARK    3  A    between atoms: C5_8  and  C6_9
REMARK    4  A    between atoms: C6_9  and  C7_10
REMARK    5  A    between atoms: C7_10  and  O1_11
REMARK    6  A    between atoms: C7_10  and  C8_13
REMARK    7  A    between atoms: C8_13  and  O2_14
REMARK    8  A    between atoms: C8_13  and  C9_16
REMARK    9  A    between atoms: C9_16  and  O3_17
REMARK   10  A    between atoms: C9_16  and  C10_19
REMARK   11  A    between atoms: C10_19  and  O4_20
REMARK   12  A    between atoms: C10_19  and  C11_22
REMARK   13  A    between atoms: C11_22  and  S1_23
ROOT
HETATM    1  C8  UNL     1       3.278  11.478  44.290  1.00  0.00     0.178 C
ENDROOT
BRANCH   1   2
HETATM    2  C7  UNL     1       3.585  12.457  43.221  1.00  0.00     0.151 C
BRANCH   2   3
HETATM    3  C6  UNL     1       4.950  13.067  43.311  1.00  0.00     0.062 C
BRANCH   3   4
HETATM    4  C5  UNL     1       4.993  14.513  43.678  1.00  0.00     0.236 C
BRANCH   4   5
HETATM    5  N1  UNL     1       4.679  14.598  45.103  1.00  0.00    -0.067 N
ATOM      6  H12 UNL     1       4.404  13.688  45.473  1.00  0.00     0.278 HD
ATOM      7  H11 UNL     1       3.808  15.107  45.258  1.00  0.00     0.278 HD
BRANCH   5   8
HETATM    8  C2  UNL     1       5.748  15.162  45.864  1.00  0.00     0.115 C
HETATM    9  C1  UNL     1       5.277  16.081  46.973  1.00  0.00     0.045 C
HETATM   10  C3  UNL     1       6.472  13.999  46.541  1.00  0.00     0.045 C
HETATM   11  C4  UNL     1       6.727  15.937  45.005  1.00  0.00     0.045 C
ENDBRANCH   5   8
ENDBRANCH   4   5
ENDBRANCH   3   4
ENDBRANCH   2   3
BRANCH   2  12
HETATM   12  O1  UNL     1       2.603  13.427  43.028  1.00  0.00    -0.393 OA
ATOM     13  H1  UNL     1       2.019  13.486  43.775  1.00  0.00     0.210 HD
ENDBRANCH   2  12
ENDBRANCH   1   2
BRANCH   1  14
HETATM   14  O2  UNL     1       3.164  12.176  45.528  1.00  0.00    -0.390 OA
ATOM     15  H2  UNL     1       2.606  11.673  46.109  1.00  0.00     0.210 HD
ENDBRANCH   1  14
BRANCH   1  16
HETATM   16  C9  UNL     1       2.048  10.666  44.139  1.00  0.00     0.178 C
BRANCH  16  17
HETATM   17  O3  UNL     1       2.226   9.290  44.303  1.00  0.00    -0.390 OA
ATOM     18  H3  UNL     1       1.511   8.753  43.985  1.00  0.00     0.210 HD
ENDBRANCH  16  17
BRANCH  16  19
HETATM   19  C10 UNL     1       0.820  11.162  44.849  1.00  0.00     0.159 C
BRANCH  19  20
HETATM   20  O4  UNL     1       0.098  11.966  43.983  1.00  0.00    -0.392 OA
ATOM     21  H4  UNL     1      -0.751  12.146  44.369  1.00  0.00     0.210 HD
ENDBRANCH  19  20
BRANCH  19  22
HETATM   22  C11 UNL     1       0.002   9.995  45.303  1.00  0.00     0.115 C
BRANCH  22  23
HETATM   23  S1  UNL     1      -1.326  10.440  46.389  1.00  0.00    -0.129 SA
HETATM   24  C12 UNL     1      -2.821   9.536  46.203  1.00  0.00     0.097 C
HETATM   25  C13 UNL     1      -3.471  10.853  46.650  1.00  0.00     0.132 C
HETATM   26  N2  UNL     1      -2.495  11.511  45.764  1.00  0.00    -0.189 NA
ENDBRANCH  22  23
ENDBRANCH  19  22
ENDBRANCH  16  19
ENDBRANCH   1  16
TORSDOF 13
ENDMDL