MODEL 5
REMARK VINA RESULT: -6.498140353      1.906      6.815
REMARK  6 active torsions:
REMARK  status: ('A' for Active; 'I' for Inactive)
REMARK    1  A    between atoms: C4_5  and  C5_6
REMARK    2  A    between atoms: C5_6  and  N1_7
REMARK    3  A    between atoms: C6_8  and  C7_9
REMARK    4  A    between atoms: C8_10  and  N2_11
REMARK    5  A    between atoms: C11_21  and  N7_22
REMARK    6  A    between atoms: C14_27  and  N9_28
ROOT
HETATM    1  N1  UNL     1      29.118  40.961  19.383  1.00  0.00    -0.299 N
HETATM    2  C6  UNL     1      29.485  41.163  20.667  1.00  0.00     0.115 A
HETATM    3  N5  UNL     1      28.561  41.917  21.291  1.00  0.00    -0.326 N
ATOM      4  H5  UNL     1      28.580  42.224  22.263  1.00  0.00     0.169 HD
HETATM    5  C10 UNL     1      27.599  42.189  20.377  1.00  0.00     0.154 A
HETATM    6  N6  UNL     1      26.448  42.886  20.416  1.00  0.00    -0.174 N
ATOM      7  H6  UNL     1      26.181  43.333  21.293  1.00  0.00     0.186 HD
HETATM    8  C11 UNL     1      25.637  43.021  19.356  1.00  0.00     0.683 A
HETATM    9  N8  UNL     1      25.962  42.449  18.198  1.00  0.00    -0.175 N
ATOM     10  H8  UNL     1      25.346  42.551  17.390  1.00  0.00     0.186 HD
HETATM   11  C14 UNL     1      27.110  41.730  18.088  1.00  0.00     0.146 A
HETATM   12  C15 UNL     1      27.945  41.593  19.182  1.00  0.00     0.130 A
ENDROOT
BRANCH   2  13
HETATM   13  C7  UNL     1      30.681  40.657  21.293  1.00  0.00     0.066 C
HETATM   14  C8  UNL     1      31.448  41.410  22.063  1.00  0.00     0.094 C
BRANCH  14  15
HETATM   15  N2  UNL     1      32.611  40.936  22.676  1.00  0.00    -0.343 N
HETATM   16  C9  UNL     1      33.746  41.042  22.073  1.00  0.00     0.200 C
HETATM   17  N3  UNL     1      34.878  40.540  22.755  1.00  0.00    -0.067 NA
HETATM   18  N4  UNL     1      33.823  41.639  20.782  1.00  0.00    -0.067 NA
ATOM     19  H2  UNL     1      32.563  40.506  23.600  1.00  0.00     0.167 HD
ENDBRANCH  14  15
ENDBRANCH   2  13
BRANCH   1  20
HETATM   20  C5  UNL     1      29.780  40.235  18.367  1.00  0.00     0.134 C
BRANCH  20  21
HETATM   21  C4  UNL     1      30.638  40.811  17.547  1.00  0.00     0.098 A
HETATM   22  C2  UNL     1      31.028  41.506  16.288  1.00  0.00     0.110 A
HETATM   23  C1  UNL     1      30.932  40.623  15.052  1.00  0.00     0.053 C
HETATM   24  C3  UNL     1      30.508  42.924  16.153  1.00  0.00     0.053 C
HETATM   25  O1  UNL     1      31.965  41.216  17.275  1.00  0.00    -0.334 OA
ENDBRANCH  20  21
ENDBRANCH   1  20
BRANCH  11  26
HETATM   26  N9  UNL     1      27.465  41.162  16.998  1.00  0.00    -0.383 N
ATOM     27  H92 UNL     1      28.135  40.396  17.062  1.00  0.00     0.157 HD
ATOM     28  H91 UNL     1      27.104  41.449  16.088  1.00  0.00     0.157 HD
ENDBRANCH  11  26
BRANCH   8  29
HETATM   29  N7  UNL     1      24.421  43.758  19.400  1.00  0.00    -0.214 N
HETATM   30  C12 UNL     1      23.831  45.112  19.709  1.00  0.00     0.161 A
HETATM   31  C13 UNL     1      23.018  43.992  19.272  1.00  0.00     0.161 A
ENDBRANCH   8  29
TORSDOF 6
ENDMDL