MODEL 3
REMARK VINA RESULT: -7.782798898      1.848      7.901
REMARK  7 active torsions:
REMARK  status: ('A' for Active; 'I' for Inactive)
REMARK    1  A    between atoms: N1_1  and  C1_4
REMARK    2  A    between atoms: C5_14  and  N5_15
REMARK    3  A    between atoms: N6_18  and  C6_19
REMARK    4  A    between atoms: C6_19  and  C7_20
REMARK    5  A    between atoms: C7_20  and  N7_21
REMARK    6  A    between atoms: C10_26  and  N9_27
REMARK    7  A    between atoms: N9_27  and  C11_29
ROOT
HETATM    1  C6  UNL     1      28.949  41.263  19.076  1.00  0.00     0.169 C
ENDROOT
BRANCH   1   2
HETATM    2  N6  UNL     1      30.230  41.224  19.730  1.00  0.00    -0.165 N
HETATM    3  C3  UNL     1      30.527  41.269  21.029  1.00  0.00     0.155 A
HETATM    4  N3  UNL     1      29.724  41.361  22.091  1.00  0.00    -0.336 N
HETATM    5  C4  UNL     1      31.901  41.199  21.162  1.00  0.00     0.137 A
HETATM    6  C2  UNL     1      30.278  41.389  23.317  1.00  0.00     0.183 A
ATOM      7  H3  UNL     1      28.712  41.411  21.975  1.00  0.00     0.168 HD
HETATM    8  N2  UNL     1      31.621  41.322  23.460  1.00  0.00    -0.337 N
HETATM    9  C1  UNL     1      32.462  41.228  22.415  1.00  0.00     0.131 A
ATOM     10  H2  UNL     1      32.013  41.345  24.402  1.00  0.00     0.168 HD
HETATM   11  N4  UNL     1      32.411  41.114  19.926  1.00  0.00    -0.184 N
HETATM   12  C5  UNL     1      31.391  41.129  19.055  1.00  0.00     0.680 A
ATOM     13  H4  UNL     1      33.402  41.049  19.689  1.00  0.00     0.184 HD
BRANCH   9  14
HETATM   14  N1  UNL     1      33.732  41.165  22.557  1.00  0.00    -0.383 N
ATOM     15  H12 UNL     1      34.191  41.657  23.324  1.00  0.00     0.157 HD
ATOM     16  H11 UNL     1      34.330  40.634  21.924  1.00  0.00     0.157 HD
ENDBRANCH   9  14
BRANCH  12  17
HETATM   17  N5  UNL     1      31.535  41.061  17.782  1.00  0.00    -0.234 N
ATOM     18  H52 UNL     1      30.849  40.726  17.107  1.00  0.00     0.174 HD
ATOM     19  H51 UNL     1      32.383  41.343  17.291  1.00  0.00     0.174 HD
ENDBRANCH  12  17
ENDBRANCH   1   2
BRANCH   1  20
HETATM   20  C7  UNL     1      28.610  42.628  18.542  1.00  0.00     0.152 C
BRANCH  20  21
HETATM   21  N7  UNL     1      27.385  43.101  19.158  1.00  0.00    -0.326 N
HETATM   22  C8  UNL     1      26.630  42.424  20.039  1.00  0.00     0.185 A
HETATM   23  N8  UNL     1      25.567  43.150  20.408  1.00  0.00    -0.346 N
HETATM   24  C9  UNL     1      25.621  44.333  19.757  1.00  0.00     0.122 A
ATOM     25  H8  UNL     1      24.843  42.861  21.066  1.00  0.00     0.167 HD
HETATM   26  C10 UNL     1      24.810  45.440  19.754  1.00  0.00     0.133 A
HETATM   27  C15 UNL     1      26.765  44.282  18.981  1.00  0.00     0.140 A
HETATM   28  N10 UNL     1      25.136  46.480  18.985  1.00  0.00    -0.337 N
HETATM   29  C14 UNL     1      26.257  46.447  18.214  1.00  0.00     0.183 A
ATOM     30  H10 UNL     1      24.540  47.308  18.974  1.00  0.00     0.168 HD
HETATM   31  N11 UNL     1      27.047  45.347  18.229  1.00  0.00    -0.336 N
ATOM     32  H11 UNL     1      27.884  45.333  17.647  1.00  0.00     0.168 HD
BRANCH  26  33
HETATM   33  N9  UNL     1      23.774  45.457  20.471  1.00  0.00    -0.370 N
ATOM     34  H9  UNL     1      23.903  45.180  21.444  1.00  0.00     0.161 HD
BRANCH  33  35
HETATM   35  C11 UNL     1      22.449  45.814  20.097  1.00  0.00     0.083 A
HETATM   36  C12 UNL     1      21.453  44.656  20.099  1.00  0.00     0.027 A
HETATM   37  C13 UNL     1      21.816  45.359  18.841  1.00  0.00     0.027 A
ENDBRANCH  33  35
ENDBRANCH  26  33
ENDBRANCH  20  21
ENDBRANCH   1  20
TORSDOF 7
ENDMDL