MODEL 5
REMARK VINA RESULT: -6.975489038      3.142      6.784
REMARK  7 active torsions:
REMARK  status: ('A' for Active; 'I' for Inactive)
REMARK    1  A    between atoms: S1_2  and  C2_3
REMARK    2  A    between atoms: C2_3  and  C3_4
REMARK    3  A    between atoms: C4_7  and  N2_8
REMARK    4  A    between atoms: N2_8  and  N3_10
REMARK    5  A    between atoms: N3_10  and  C5_12
REMARK    6  A    between atoms: C5_12  and  C6_13
REMARK    7  A    between atoms: N5_17  and  O1_18
ROOT
HETATM    1  C3  UNL     1      31.606  41.470  20.667  1.00  0.00     0.161 A
HETATM    2  N1  UNL     1      30.522  41.951  20.041  1.00  0.00    -0.172 N
ATOM      3  H1  UNL     1      29.720  42.418  20.466  1.00  0.00     0.185 HD
HETATM    4  C4  UNL     1      30.713  41.687  18.721  1.00  0.00     0.713 A
HETATM    5  N6  UNL     1      31.900  41.060  18.608  1.00  0.00    -0.129 N
ATOM      6  H6  UNL     1      32.310  40.738  17.732  1.00  0.00     0.205 HD
HETATM    7  N7  UNL     1      32.454  40.922  19.798  1.00  0.00    -0.271 N
ATOM      8  H7  UNL     1      33.351  40.485  20.010  1.00  0.00     0.189 HD
ENDROOT
BRANCH   4   9
HETATM    9  N2  UNL     1      29.858  42.021  17.839  1.00  0.00    -0.131 N
ATOM     10  H2  UNL     1      29.505  41.293  17.218  1.00  0.00     0.205 HD
BRANCH   9  11
HETATM   11  N3  UNL     1      29.383  43.292  17.668  1.00  0.00    -0.295 N
ATOM     12  H3  UNL     1      30.017  44.063  17.875  1.00  0.00     0.186 HD
BRANCH  11  13
HETATM   13  C5  UNL     1      28.200  43.589  17.268  1.00  0.00     0.139 C
BRANCH  13  14
HETATM   14  C6  UNL     1      27.234  44.238  18.132  1.00  0.00     0.075 A
HETATM   15  N4  UNL     1      26.740  45.499  18.023  1.00  0.00    -0.348 N
HETATM   16  C7  UNL     1      25.869  45.702  19.028  1.00  0.00     0.214 A
ATOM     17  H4  UNL     1      26.987  46.176  17.301  1.00  0.00     0.167 HD
HETATM   18  N5  UNL     1      25.794  44.594  19.783  1.00  0.00    -0.223 N
HETATM   19  C8  UNL     1      26.630  43.688  19.240  1.00  0.00     0.065 A
HETATM   20  C9  UNL     1      26.822  42.310  19.809  1.00  0.00     0.073 C
BRANCH  18  21
HETATM   21  O1  UNL     1      25.018  44.407  20.897  1.00  0.00    -0.282 OA
ATOM     22  H1  UNL     1      24.701  43.580  21.240  1.00  0.00     0.245 HD
ENDBRANCH  18  21
ENDBRANCH  13  14
ENDBRANCH  11  13
ENDBRANCH   9  11
ENDBRANCH   4   9
BRANCH   1  23
HETATM   23  C2  UNL     1      31.791  41.560  22.154  1.00  0.00     0.225 C
HETATM   24  N8  UNL     1      32.959  40.773  22.459  1.00  0.00    -0.310 N
HETATM   25  C10 UNL     1      34.105  41.591  22.352  1.00  0.00     0.324 C
ATOM     26  H8  UNL     1      32.958  39.784  22.711  1.00  0.00     0.166 HD
HETATM   27  O2  UNL     1      35.329  41.268  22.232  1.00  0.00    -0.247 OA
HETATM   28  N9  UNL     1      33.655  42.961  22.406  1.00  0.00    -0.276 N
HETATM   29  C11 UNL     1      32.243  42.922  22.542  1.00  0.00     0.272 C
ATOM     30  H9  UNL     1      34.239  43.796  22.356  1.00  0.00     0.173 HD
HETATM   31  O3  UNL     1      31.474  43.833  22.916  1.00  0.00    -0.269 OA
BRANCH  23  32
HETATM   32  S1  UNL     1      30.329  41.007  23.034  1.00  0.00    -0.124 SA
HETATM   33  C1  UNL     1      29.886  39.353  22.498  1.00  0.00     0.093 C
ENDBRANCH  23  32
ENDBRANCH   1  23
TORSDOF 7
ENDMDL