MODEL 4
REMARK VINA RESULT: -5.450958602      2.558      4.378
REMARK  10 active torsions:
REMARK  status: ('A' for Active; 'I' for Inactive)
REMARK    1  A    between atoms: N3_8  and  C5_9
REMARK    2  A    between atoms: C6_12  and  N5_13
REMARK    3  A    between atoms: C7_18  and  N7_19
REMARK    4  A    between atoms: N7_19  and  C8_21
REMARK    5  A    between atoms: N8_24  and  C11_25
REMARK    6  A    between atoms: C11_25  and  O1_26
REMARK    7  A    between atoms: C11_25  and  C12_28
REMARK    8  A    between atoms: C12_28  and  O2_29
REMARK    9  A    between atoms: C13_31  and  N9_32
REMARK   10  A    between atoms: N9_32  and  C14_34
ROOT
HETATM    1  C1  UNL     1      21.912  43.257  18.365  1.00  0.00     0.229 C
HETATM    2  N1  UNL     1      22.999  43.269  18.728  1.00  0.00    -0.423 NA
HETATM    3  C2  UNL     1      24.304  43.308  19.178  1.00  0.00     0.174 A
HETATM    4  C3  UNL     1      24.803  44.368  19.937  1.00  0.00     0.067 A
HETATM    5  C4  UNL     1      24.066  45.584  20.382  1.00  0.00     0.073 C
HETATM    6  N2  UNL     1      26.076  44.072  20.187  1.00  0.00    -0.279 N
ATOM      7  H2  UNL     1      26.699  44.670  20.729  1.00  0.00     0.188 HD
HETATM    8  N3  UNL     1      26.437  42.936  19.664  1.00  0.00    -0.065 N
HETATM    9  C13 UNL     1      25.349  42.435  19.026  1.00  0.00     0.184 A
ENDROOT
BRANCH   9  10
HETATM   10  N9  UNL     1      25.291  41.329  18.388  1.00  0.00    -0.372 N
ATOM     11  H9  UNL     1      25.332  40.490  18.966  1.00  0.00     0.161 HD
BRANCH  10  12
HETATM   12  C14 UNL     1      25.179  41.102  16.994  1.00  0.00     0.117 C
HETATM   13  C15 UNL     1      24.091  40.059  16.687  1.00  0.00     0.026 C
ENDBRANCH  10  12
ENDBRANCH   9  10
BRANCH   8  14
HETATM   14  C5  UNL     1      27.700  42.315  19.761  1.00  0.00     0.739 A
HETATM   15  N4  UNL     1      28.013  41.622  20.896  1.00  0.00    -0.019 N
HETATM   16  C6  UNL     1      29.182  41.021  21.086  1.00  0.00     0.705 A
ATOM     17  H4  UNL     1      27.312  41.564  21.636  1.00  0.00     0.203 HD
HETATM   18  N6  UNL     1      30.102  41.097  20.114  1.00  0.00    -0.021 N
HETATM   19  C7  UNL     1      29.862  41.772  18.950  1.00  0.00     0.712 A
ATOM     20  H6  UNL     1      31.005  40.641  20.246  1.00  0.00     0.203 HD
HETATM   21  N8  UNL     1      28.675  42.363  18.793  1.00  0.00     0.018 N
BRANCH  16  22
HETATM   22  N5  UNL     1      29.375  40.391  22.201  1.00  0.00    -0.234 N
ATOM     23  H52 UNL     1      28.652  39.841  22.667  1.00  0.00     0.174 HD
ATOM     24  H51 UNL     1      30.296  40.447  22.635  1.00  0.00     0.174 HD
ENDBRANCH  16  22
BRANCH  19  25
HETATM   25  N7  UNL     1      30.790  41.824  18.064  1.00  0.00    -0.221 N
ATOM     26  H7  UNL     1      31.100  42.752  17.774  1.00  0.00     0.178 HD
BRANCH  25  27
HETATM   27  C8  UNL     1      31.424  40.716  17.450  1.00  0.00     0.091 C
HETATM   28  C9  UNL     1      30.465  39.533  17.294  1.00  0.00     0.032 C
HETATM   29  C10 UNL     1      31.889  41.129  16.067  1.00  0.00     0.032 C
ENDBRANCH  25  27
ENDBRANCH  19  25
BRANCH  21  30
HETATM   30  C11 UNL     1      28.320  43.082  17.621  1.00  0.00     0.285 C
BRANCH  30  31
HETATM   31  O1  UNL     1      28.574  42.301  16.446  1.00  0.00    -0.373 OA
ATOM     32  H1  UNL     1      27.761  42.043  16.029  1.00  0.00     0.212 HD
ENDBRANCH  30  31
BRANCH  30  33
HETATM   33  C12 UNL     1      28.911  44.392  17.305  1.00  0.00     0.219 C
BRANCH  33  34
HETATM   34  O2  UNL     1      30.265  44.365  16.923  1.00  0.00    -0.397 OA
ATOM     35  H2  UNL     1      30.494  44.934  16.197  1.00  0.00     0.209 HD
ENDBRANCH  33  34
ENDBRANCH  30  33
ENDBRANCH  21  30
ENDBRANCH   8  14
TORSDOF 10
ENDMDL