MODEL 2
REMARK VINA RESULT: -8.185285726      0.980      1.059
REMARK  6 active torsions:
REMARK  status: ('A' for Active; 'I' for Inactive)
REMARK    1  A    between atoms: C3_7  and  C4_8
REMARK    2  A    between atoms: C4_8  and  N3_9
REMARK    3  A    between atoms: N3_9  and  C5_10
REMARK    4  A    between atoms: C6_13  and  N5_14
REMARK    5  A    between atoms: C8_22  and  C9_23
REMARK    6  A    between atoms: C9_23  and  C11_26
ROOT
HETATM    1  C9  UNL     1      30.241  39.974  15.404  1.00  0.00     0.161 C
HETATM    2  C10 UNL     1      29.858  40.879  14.409  1.00  0.00     0.071 C
HETATM    3  N8  UNL     1      29.551  41.625  13.556  1.00  0.00    -0.196 NA
ENDROOT
BRANCH   1   4
HETATM    4  C8  UNL     1      30.152  40.423  16.817  1.00  0.00     0.098 A
HETATM    5  N7  UNL     1      29.057  41.095  17.259  1.00  0.00    -0.338 N
HETATM    6  C7  UNL     1      28.811  41.381  18.509  1.00  0.00     0.153 A
ATOM      7  H7  UNL     1      28.376  41.398  16.562  1.00  0.00     0.167 HD
HETATM    8  N6  UNL     1      27.676  42.007  18.859  1.00  0.00    -0.174 N
HETATM    9  C14 UNL     1      29.706  41.008  19.495  1.00  0.00     0.139 A
HETATM   10  C6  UNL     1      27.481  42.238  20.189  1.00  0.00     0.679 A
ATOM     11  H6  UNL     1      26.990  42.297  18.162  1.00  0.00     0.186 HD
HETATM   12  N4  UNL     1      28.343  41.886  21.139  1.00  0.00    -0.162 N
HETATM   13  C5  UNL     1      29.516  41.246  20.835  1.00  0.00     0.223 A
ATOM     14  H4  UNL     1      28.127  42.096  22.113  1.00  0.00     0.187 HD
HETATM   15  N10 UNL     1      30.814  40.323  19.078  1.00  0.00    -0.315 N
HETATM   16  C13 UNL     1      31.040  40.036  17.800  1.00  0.00     0.270 A
ATOM     17  H10 UNL     1      31.495  40.022  19.775  1.00  0.00     0.169 HD
HETATM   18  O1  UNL     1      32.096  39.380  17.463  1.00  0.00    -0.266 OA
BRANCH  10  19
HETATM   19  N5  UNL     1      26.345  42.835  20.474  1.00  0.00    -0.234 N
ATOM     20  H52 UNL     1      26.082  42.791  21.458  1.00  0.00     0.174 HD
ATOM     21  H51 UNL     1      25.792  43.307  19.758  1.00  0.00     0.174 HD
ENDBRANCH  10  19
BRANCH  13  22
HETATM   22  N3  UNL     1      30.319  41.006  21.680  1.00  0.00    -0.393 NA
BRANCH  22  23
HETATM   23  C4  UNL     1      31.295  40.989  22.601  1.00  0.00     0.234 C
BRANCH  23  24
HETATM   24  C3  UNL     1      32.667  41.308  22.109  1.00  0.00     0.150 A
HETATM   25  N2  UNL     1      33.014  41.936  20.975  1.00  0.00    -0.282 N
HETATM   26  N1  UNL     1      34.324  42.039  20.881  1.00  0.00    -0.288 N
ATOM     27  H2  UNL     1      32.353  42.285  20.281  1.00  0.00     0.188 HD
HETATM   28  C2  UNL     1      34.889  41.453  21.998  1.00  0.00     0.093 A
ATOM     29  H1  UNL     1      34.834  42.477  20.114  1.00  0.00     0.188 HD
HETATM   30  C1  UNL     1      36.333  41.334  22.315  1.00  0.00     0.090 C
HETATM   31  N11 UNL     1      33.809  41.025  22.718  1.00  0.00    -0.328 N
ATOM     32  H11 UNL     1      33.874  40.545  23.616  1.00  0.00     0.169 HD
ENDBRANCH  23  24
ENDBRANCH  22  23
ENDBRANCH  13  22
ENDBRANCH   1   4
BRANCH   1  33
HETATM   33  C11 UNL     1      29.556  38.574  15.279  1.00  0.00     0.149 C
HETATM   34  C12 UNL     1      28.191  38.686  14.813  1.00  0.00     0.060 C
HETATM   35  N9  UNL     1      27.083  38.746  14.427  1.00  0.00    -0.197 NA
ENDBRANCH   1  33
TORSDOF 6
ENDMDL