MODEL 5
REMARK VINA RESULT: -7.159640165      1.455      4.488
REMARK  6 active torsions:
REMARK  status: ('A' for Active; 'I' for Inactive)
REMARK    1  A    between atoms: N1_2  and  C2_4
REMARK    2  A    between atoms: C5_13  and  N5_14
REMARK    3  A    between atoms: N5_14  and  C6_16
REMARK    4  A    between atoms: C7_19  and  N7_20
REMARK    5  A    between atoms: C11_24  and  N8_25
REMARK    6  A    between atoms: N8_25  and  C12_27
ROOT
HETATM    1  C6  UNL     1      30.090  41.580  18.563  1.00  0.00     0.687 A
HETATM    2  N6  UNL     1      30.792  40.663  17.900  1.00  0.00    -0.176 N
ATOM      3  H6  UNL     1      31.777  40.552  18.140  1.00  0.00     0.186 HD
HETATM    4  C7  UNL     1      30.286  39.869  16.929  1.00  0.00     0.121 A
HETATM    5  C10 UNL     1      28.957  40.034  16.622  1.00  0.00     0.097 A
HETATM    6  C11 UNL     1      28.203  40.989  17.306  1.00  0.00     0.120 A
HETATM    7  N10 UNL     1      28.769  41.739  18.254  1.00  0.00    -0.177 N
ATOM      8  H10 UNL     1      28.213  42.436  18.750  1.00  0.00     0.186 HD
ENDROOT
BRANCH   1   9
HETATM    9  N5  UNL     1      30.642  42.291  19.467  1.00  0.00    -0.174 N
ATOM     10  H5  UNL     1      31.001  43.220  19.244  1.00  0.00     0.186 HD
BRANCH   9  11
HETATM   11  C5  UNL     1      30.750  41.779  20.785  1.00  0.00     0.153 A
HETATM   12  N4  UNL     1      29.691  41.409  21.533  1.00  0.00    -0.336 N
HETATM   13  C4  UNL     1      29.811  40.928  22.775  1.00  0.00     0.183 A
ATOM     14  H4  UNL     1      28.756  41.500  21.134  1.00  0.00     0.168 HD
HETATM   15  N3  UNL     1      31.025  40.799  23.320  1.00  0.00    -0.336 N
HETATM   16  C3  UNL     1      32.128  41.139  22.657  1.00  0.00     0.153 A
ATOM     17  H3  UNL     1      31.108  40.430  24.268  1.00  0.00     0.168 HD
HETATM   18  N2  UNL     1      33.447  41.133  22.909  1.00  0.00    -0.174 N
HETATM   19  C15 UNL     1      31.996  41.642  21.358  1.00  0.00     0.138 A
HETATM   20  C2  UNL     1      34.090  41.606  21.826  1.00  0.00     0.680 A
ATOM     21  H2  UNL     1      33.886  40.823  23.774  1.00  0.00     0.186 HD
HETATM   22  N11 UNL     1      33.201  41.923  20.862  1.00  0.00    -0.184 N
ATOM     23  H11 UNL     1      33.410  42.303  19.938  1.00  0.00     0.184 HD
BRANCH  20  24
HETATM   24  N1  UNL     1      35.356  41.758  21.669  1.00  0.00    -0.230 N
HETATM   25  C1  UNL     1      36.256  41.022  22.514  1.00  0.00     0.165 C
ATOM     26  H1  UNL     1      35.717  42.391  20.957  1.00  0.00     0.177 HD
ENDBRANCH  20  24
ENDBRANCH   9  11
ENDBRANCH   1   9
BRANCH   4  27
HETATM   27  N7  UNL     1      31.119  38.924  16.284  1.00  0.00    -0.376 N
HETATM   28  C8  UNL     1      30.810  37.523  16.350  1.00  0.00     0.150 C
HETATM   29  C9  UNL     1      32.282  39.374  15.563  1.00  0.00     0.150 C
ENDBRANCH   4  27
BRANCH   6  30
HETATM   30  N8  UNL     1      26.841  41.141  16.987  1.00  0.00    -0.368 N
ATOM     31  H8  UNL     1      26.560  41.135  16.006  1.00  0.00     0.161 HD
BRANCH  30  32
HETATM   32  C12 UNL     1      25.836  41.303  17.997  1.00  0.00     0.134 C
HETATM   33  C13 UNL     1      25.200  42.641  18.150  1.00  0.00     0.259 C
HETATM   34  N9  UNL     1      24.049  42.143  17.420  1.00  0.00    -0.071 N
HETATM   35  C14 UNL     1      24.471  40.762  17.636  1.00  0.00     0.259 C
ATOM     36  H92 UNL     1      23.114  42.432  17.703  1.00  0.00     0.277 HD
ATOM     37  H91 UNL     1      23.876  42.473  16.470  1.00  0.00     0.277 HD
ENDBRANCH  30  32
ENDBRANCH   6  30
TORSDOF 6
ENDMDL