MODEL 3
REMARK VINA RESULT: -7.066842171      2.356      2.722
REMARK  7 active torsions:
REMARK  status: ('A' for Active; 'I' for Inactive)
REMARK    1  A    between atoms: C4_7  and  C5_8
REMARK    2  A    between atoms: C5_8  and  C6_9
REMARK    3  A    between atoms: C6_9  and  N2_10
REMARK    4  A    between atoms: C6_9  and  C7_14
REMARK    5  A    between atoms: C7_14  and  N3_15
REMARK    6  A    between atoms: N3_15  and  C8_17
REMARK    7  A    between atoms: C12_27  and  N7_28
ROOT
HETATM    1  N3  UNL     1      30.836  41.686  18.330  1.00  0.00    -0.372 N
ATOM      2  H3  UNL     1      31.784  41.345  18.177  1.00  0.00     0.161 HD
ENDROOT
BRANCH   1   3
HETATM    3  C7  UNL     1      30.177  42.267  17.210  1.00  0.00     0.154 C
BRANCH   3   4
HETATM    4  C6  UNL     1      29.985  41.268  16.069  1.00  0.00     0.205 C
BRANCH   4   5
HETATM    5  C5  UNL     1      29.015  40.191  16.451  1.00  0.00     0.081 C
BRANCH   5   6
HETATM    6  C4  UNL     1      29.488  38.853  15.949  1.00  0.00     0.043 A
HETATM    7  C3  UNL     1      30.431  38.140  16.610  1.00  0.00     0.254 A
HETATM    8  N1  UNL     1      30.914  36.929  16.307  1.00  0.00    -0.321 N
HETATM    9  O1  UNL     1      30.964  38.649  17.665  1.00  0.00    -0.268 OA
HETATM   10  C2  UNL     1      30.566  36.161  15.279  1.00  0.00     0.051 A
ATOM     11  H1  UNL     1      31.627  36.555  16.934  1.00  0.00     0.169 HD
HETATM   12  C1  UNL     1      31.182  34.808  15.041  1.00  0.00     0.076 C
HETATM   13  S1  UNL     1      29.373  36.851  14.282  1.00  0.00    -0.062 SA
HETATM   14  C14 UNL     1      28.850  38.387  14.780  1.00  0.00     0.100 A
HETATM   15  N9  UNL     1      27.883  39.187  14.148  1.00  0.00    -0.094 NA
ENDBRANCH   5   6
ENDBRANCH   4   5
BRANCH   4  16
HETATM   16  N2  UNL     1      29.671  41.935  14.846  1.00  0.00    -0.073 N
ATOM     17  H23 UNL     1      28.705  41.748  14.575  1.00  0.00     0.274 HD
ATOM     18  H22 UNL     1      29.617  42.943  14.993  1.00  0.00     0.274 HD
ATOM     19  H21 UNL     1      30.304  41.720  14.076  1.00  0.00     0.274 HD
ENDBRANCH   4  16
ENDBRANCH   3   4
ENDBRANCH   1   3
BRANCH   1  20
HETATM   20  C8  UNL     1      30.356  41.547  19.520  1.00  0.00     0.132 A
HETATM   21  N4  UNL     1      29.037  41.400  19.762  1.00  0.00    -0.337 N
HETATM   22  C9  UNL     1      28.523  41.261  20.992  1.00  0.00     0.182 A
ATOM     23  H4  UNL     1      28.398  41.394  18.968  1.00  0.00     0.168 HD
HETATM   24  N5  UNL     1      29.358  41.266  22.041  1.00  0.00    -0.349 N
HETATM   25  C10 UNL     1      30.664  41.406  21.871  1.00  0.00     0.080 A
ATOM     26  H5  UNL     1      28.982  41.161  22.983  1.00  0.00     0.166 HD
HETATM   27  C11 UNL     1      31.506  41.407  22.977  1.00  0.00     0.138 A
HETATM   28  C13 UNL     1      31.209  41.550  20.623  1.00  0.00     0.121 A
HETATM   29  N6  UNL     1      32.821  41.551  22.754  1.00  0.00    -0.200 N
HETATM   30  C12 UNL     1      33.308  41.689  21.511  1.00  0.00     0.676 A
ATOM     31  H6  UNL     1      33.463  41.557  23.546  1.00  0.00     0.183 HD
HETATM   32  N8  UNL     1      32.536  41.694  20.416  1.00  0.00    -0.186 N
ATOM     33  H8  UNL     1      32.927  41.800  19.480  1.00  0.00     0.184 HD
BRANCH  30  34
HETATM   34  N7  UNL     1      34.582  41.824  21.369  1.00  0.00    -0.234 N
ATOM     35  H72 UNL     1      35.200  41.188  21.873  1.00  0.00     0.174 HD
ATOM     36  H71 UNL     1      34.922  42.564  20.756  1.00  0.00     0.174 HD
ENDBRANCH  30  34
ENDBRANCH   1  20
TORSDOF 7
ENDMDL