MODEL 3
REMARK VINA RESULT: -7.922106843      0.894      1.255
REMARK  9 active torsions:
REMARK  status: ('A' for Active; 'I' for Inactive)
REMARK    1  A    between atoms: C2_2  and  O1_3
REMARK    2  A    between atoms: C2_2  and  O2_5
REMARK    3  A    between atoms: O2_5  and  C3_6
REMARK    4  A    between atoms: C3_6  and  N1_7
REMARK    5  A    between atoms: C6_12  and  N3_13
REMARK    6  A    between atoms: N3_13  and  C7_15
REMARK    7  A    between atoms: C7_15  and  C8_16
REMARK    8  A    between atoms: C10_18  and  C11_19
REMARK    9  A    between atoms: C15_29  and  N7_30
ROOT
HETATM    1  N1  UNL     1      32.249  42.465  22.191  1.00  0.00    -0.305 N
HETATM    2  C4  UNL     1      31.294  42.832  23.064  1.00  0.00     0.187 A
HETATM    3  N2  UNL     1      30.078  42.510  22.557  1.00  0.00    -0.346 N
ATOM      4  H2  UNL     1      29.182  42.679  23.014  1.00  0.00     0.167 HD
HETATM    5  C5  UNL     1      30.245  41.935  21.356  1.00  0.00     0.123 A
HETATM    6  C6  UNL     1      29.336  41.424  20.423  1.00  0.00     0.148 A
HETATM    7  N6  UNL     1      29.842  40.904  19.291  1.00  0.00    -0.175 N
ATOM      8  H6  UNL     1      29.215  40.520  18.584  1.00  0.00     0.186 HD
HETATM    9  C15 UNL     1      31.184  40.885  19.086  1.00  0.00     0.679 A
HETATM   10  N8  UNL     1      32.052  41.379  19.989  1.00  0.00    -0.174 N
ATOM     11  H8  UNL     1      33.054  41.349  19.800  1.00  0.00     0.186 HD
HETATM   12  C16 UNL     1      31.599  41.913  21.141  1.00  0.00     0.156 A
ENDROOT
BRANCH   6  13
HETATM   13  N3  UNL     1      28.079  41.469  20.685  1.00  0.00    -0.368 N
ATOM     14  H3  UNL     1      27.821  41.520  21.671  1.00  0.00     0.161 HD
BRANCH  13  15
HETATM   15  C7  UNL     1      27.009  41.457  19.749  1.00  0.00     0.179 C
BRANCH  15  16
HETATM   16  C8  UNL     1      26.457  42.852  19.659  1.00  0.00     0.045 A
HETATM   17  C9  UNL     1      26.612  43.782  18.660  1.00  0.00     0.055 A
HETATM   18  C10 UNL     1      25.923  44.911  19.021  1.00  0.00     0.035 A
HETATM   19  N4  UNL     1      25.364  44.670  20.211  1.00  0.00    -0.304 N
HETATM   20  N5  UNL     1      25.686  43.452  20.579  1.00  0.00    -0.303 N
ATOM     21  H4  UNL     1      24.786  45.321  20.742  1.00  0.00     0.186 HD
ATOM     22  H5  UNL     1      25.388  43.018  21.452  1.00  0.00     0.186 HD
BRANCH  18  23
HETATM   23  C11 UNL     1      25.837  46.143  18.213  1.00  0.00    -0.007 C
HETATM   24  C12 UNL     1      25.342  47.258  19.084  1.00  0.00     0.021 C
HETATM   25  C13 UNL     1      27.207  46.407  17.635  1.00  0.00     0.021 C
HETATM   26  C14 UNL     1      24.887  45.920  17.047  1.00  0.00     0.021 C
ENDBRANCH  18  23
ENDBRANCH  15  16
ENDBRANCH  13  15
ENDBRANCH   6  13
BRANCH   9  27
HETATM   27  N7  UNL     1      31.667  40.385  17.997  1.00  0.00    -0.234 N
ATOM     28  H72 UNL     1      31.206  39.564  17.605  1.00  0.00     0.174 HD
ATOM     29  H71 UNL     1      32.484  40.808  17.556  1.00  0.00     0.174 HD
ENDBRANCH   9  27
BRANCH   1  30
HETATM   30  C3  UNL     1      33.693  42.615  22.319  1.00  0.00     0.304 C
BRANCH  30  31
HETATM   31  O2  UNL     1      34.295  41.728  21.434  1.00  0.00    -0.343 OA
BRANCH  31  32
HETATM   32  C2  UNL     1      35.044  40.763  22.063  1.00  0.00     0.255 C
HETATM   33  C1  UNL     1      36.412  41.386  22.378  1.00  0.00     0.070 C
BRANCH  32  34
HETATM   34  O1  UNL     1      34.498  40.276  23.239  1.00  0.00    -0.372 OA
ATOM     35  H1  UNL     1      33.777  39.696  23.022  1.00  0.00     0.212 HD
ENDBRANCH  32  34
ENDBRANCH  31  32
ENDBRANCH  30  31
ENDBRANCH   1  30
TORSDOF 9
ENDMDL