MODEL 2
REMARK VINA RESULT: -7.803313385      1.084      1.547
REMARK  7 active torsions:
REMARK  status: ('A' for Active; 'I' for Inactive)
REMARK    1  A    between atoms: C2_2  and  N1_3
REMARK    2  A    between atoms: C3_6  and  N3_7
REMARK    3  A    between atoms: C6_12  and  C7_13
REMARK    4  A    between atoms: C7_13  and  O1_14
REMARK    5  A    between atoms: C9_18  and  N6_19
REMARK    6  A    between atoms: N6_19  and  C10_21
REMARK    7  A    between atoms: C14_27  and  N8_28
ROOT
HETATM    1  N3  UNL     1      33.218  41.936  21.189  1.00  0.00    -0.277 N
ATOM      2  H3  UNL     1      33.460  42.924  21.271  1.00  0.00     0.179 HD
HETATM    3  C4  UNL     1      33.901  40.996  21.967  1.00  0.00     0.183 C
HETATM    4  N4  UNL     1      34.459  40.196  22.618  1.00  0.00    -0.172 NA
ENDROOT
BRANCH   1   5
HETATM    5  C3  UNL     1      32.291  41.580  20.369  1.00  0.00     0.145 A
HETATM    6  N2  UNL     1      32.493  41.036  19.180  1.00  0.00    -0.280 N
HETATM    7  N1  UNL     1      31.366  40.772  18.557  1.00  0.00    -0.274 N
ATOM      8  H2  UNL     1      33.417  40.842  18.792  1.00  0.00     0.189 HD
HETATM    9  C15 UNL     1      30.379  41.164  19.380  1.00  0.00     0.153 A
HETATM   10  C5  UNL     1      30.932  41.688  20.554  1.00  0.00     0.081 A
HETATM   11  N10 UNL     1      29.024  41.151  19.301  1.00  0.00    -0.174 N
HETATM   12  C6  UNL     1      30.128  42.163  21.569  1.00  0.00     0.068 A
HETATM   13  N5  UNL     1      28.787  42.120  21.420  1.00  0.00    -0.192 N
HETATM   14  C9  UNL     1      28.247  41.618  20.297  1.00  0.00     0.685 A
ATOM     15  H5  UNL     1      28.182  42.469  22.163  1.00  0.00     0.184 HD
ATOM     16  H10 UNL     1      28.582  40.777  18.462  1.00  0.00     0.186 HD
BRANCH   7  17
HETATM   17  C2  UNL     1      31.208  40.175  17.241  1.00  0.00     0.146 C
HETATM   18  C1  UNL     1      30.912  38.715  17.424  1.00  0.00     0.028 C
ENDBRANCH   7  17
BRANCH  12  19
HETATM   19  C7  UNL     1      30.766  42.709  22.792  1.00  0.00     0.225 C
BRANCH  19  20
HETATM   20  O1  UNL     1      31.109  41.690  23.685  1.00  0.00    -0.390 OA
HETATM   21  C8  UNL     1      30.083  40.804  23.897  1.00  0.00     0.201 C
ENDBRANCH  19  20
ENDBRANCH  12  19
BRANCH  14  22
HETATM   22  N6  UNL     1      26.965  41.575  20.153  1.00  0.00    -0.176 N
ATOM     23  H6  UNL     1      26.464  40.745  20.469  1.00  0.00     0.186 HD
BRANCH  22  24
HETATM   24  C10 UNL     1      26.227  42.632  19.576  1.00  0.00     0.138 A
HETATM   25  C11 UNL     1      25.612  43.615  20.343  1.00  0.00     0.074 A
HETATM   26  C12 UNL     1      24.903  44.624  19.723  1.00  0.00     0.026 A
HETATM   27  C13 UNL     1      24.252  45.668  20.587  1.00  0.00     0.069 C
HETATM   28  N7  UNL     1      24.807  44.658  18.391  1.00  0.00    -0.196 N
HETATM   29  C14 UNL     1      25.401  43.708  17.656  1.00  0.00     0.677 A
ATOM     30  H7  UNL     1      24.283  45.405  17.935  1.00  0.00     0.184 HD
HETATM   31  N9  UNL     1      26.090  42.728  18.246  1.00  0.00    -0.176 N
ATOM     32  H9  UNL     1      26.531  42.021  17.658  1.00  0.00     0.186 HD
BRANCH  29  33
HETATM   33  N8  UNL     1      25.323  43.722  16.370  1.00  0.00    -0.234 N
ATOM     34  H82 UNL     1      24.624  43.133  15.916  1.00  0.00     0.174 HD
ATOM     35  H81 UNL     1      25.947  44.307  15.814  1.00  0.00     0.174 HD
ENDBRANCH  29  33
ENDBRANCH  22  24
ENDBRANCH  14  22
ENDBRANCH   1   5
TORSDOF 7
ENDMDL