MODEL 5
REMARK VINA RESULT: -7.210510702      1.574      2.448
REMARK  5 active torsions:
REMARK  status: ('A' for Active; 'I' for Inactive)
REMARK    1  A    between atoms: N3_7  and  C4_8
REMARK    2  A    between atoms: C7_13  and  N5_14
REMARK    3  A    between atoms: C8_19  and  N7_20
REMARK    4  A    between atoms: N10_29  and  C11_31
REMARK    5  A    between atoms: C11_31  and  C12_32
ROOT
HETATM    1  N1  UNL     1      25.659  39.501  13.455  1.00  0.00    -0.191 NA
HETATM    2  C1  UNL     1      25.953  40.065  14.415  1.00  0.00     0.105 C
HETATM    3  C2  UNL     1      26.339  40.753  15.612  1.00  0.00     0.107 A
HETATM    4  C3  UNL     1      25.652  41.718  16.290  1.00  0.00     0.134 A
HETATM    5  N2  UNL     1      26.387  42.070  17.341  1.00  0.00    -0.300 N
ATOM      6  H2  UNL     1      26.108  42.778  18.021  1.00  0.00     0.186 HD
HETATM    7  N3  UNL     1      27.531  41.391  17.402  1.00  0.00    -0.221 N
HETATM    8  C10 UNL     1      27.538  40.567  16.350  1.00  0.00     0.147 A
HETATM    9  N10 UNL     1      28.404  39.734  15.987  1.00  0.00    -0.371 N
ATOM     10  H10 UNL     1      28.160  39.225  15.137  1.00  0.00     0.161 HD
ENDROOT
BRANCH   7  11
HETATM   11  C4  UNL     1      28.519  41.574  18.440  1.00  0.00     0.146 A
HETATM   12  C5  UNL     1      29.706  42.239  18.221  1.00  0.00     0.139 A
HETATM   13  N4  UNL     1      30.630  42.392  19.185  1.00  0.00    -0.356 N
HETATM   14  C6  UNL     1      30.432  41.896  20.419  1.00  0.00     0.122 A
ATOM     15  H4  UNL     1      31.495  42.892  18.977  1.00  0.00     0.165 HD
HETATM   16  C7  UNL     1      31.388  42.054  21.413  1.00  0.00     0.145 A
HETATM   17  C9  UNL     1      29.250  41.227  20.653  1.00  0.00     0.153 A
HETATM   18  N6  UNL     1      31.147  41.541  22.635  1.00  0.00    -0.175 N
HETATM   19  C8  UNL     1      29.984  40.888  22.849  1.00  0.00     0.679 A
ATOM     20  H6  UNL     1      31.830  41.643  23.386  1.00  0.00     0.186 HD
HETATM   21  N8  UNL     1      29.059  40.734  21.888  1.00  0.00    -0.174 N
ATOM     22  H8  UNL     1      28.196  40.233  22.099  1.00  0.00     0.186 HD
HETATM   23  N9  UNL     1      28.318  41.075  19.675  1.00  0.00    -0.324 N
ATOM     24  H9  UNL     1      27.453  40.574  19.880  1.00  0.00     0.169 HD
BRANCH  16  25
HETATM   25  N5  UNL     1      32.506  42.693  21.173  1.00  0.00    -0.383 N
ATOM     26  H52 UNL     1      33.012  42.537  20.301  1.00  0.00     0.157 HD
ATOM     27  H51 UNL     1      32.887  43.352  21.851  1.00  0.00     0.157 HD
ENDBRANCH  16  25
BRANCH  19  28
HETATM   28  N7  UNL     1      29.791  40.405  24.049  1.00  0.00    -0.234 N
ATOM     29  H72 UNL     1      30.543  39.931  24.550  1.00  0.00     0.174 HD
ATOM     30  H71 UNL     1      28.860  40.528  24.451  1.00  0.00     0.174 HD
ENDBRANCH  19  28
ENDBRANCH   7  11
BRANCH   9  31
HETATM   31  C11 UNL     1      29.658  39.368  16.538  1.00  0.00     0.153 C
BRANCH  31  32
HETATM   32  C12 UNL     1      30.340  38.266  15.724  1.00  0.00     0.139 C
HETATM   33  C13 UNL     1      29.308  37.530  14.896  1.00  0.00     0.035 C
HETATM   34  C14 UNL     1      30.053  36.234  14.602  1.00  0.00     0.029 C
HETATM   35  C15 UNL     1      30.948  36.122  15.807  1.00  0.00     0.168 C
HETATM   36  O1  UNL     1      30.819  37.270  16.546  1.00  0.00    -0.384 OA
ENDBRANCH  31  32
ENDBRANCH   9  31
TORSDOF 5
ENDMDL