MODEL 2
REMARK VINA RESULT: -6.669580449      2.186      4.924
REMARK  3 active torsions:
REMARK  status: ('A' for Active; 'I' for Inactive)
REMARK    1  A    between atoms: N1_1  and  C1_4
REMARK    2  A    between atoms: C1_4  and  C2_6
REMARK       I    between atoms: C2_6  and  N3_8
REMARK    3  A    between atoms: N3_8  and  C3_10
ROOT
HETATM    1  C3  UNL     1      -1.537   9.618  11.041  1.00  0.00     0.192 A
HETATM    2  N4  UNL     1      -1.223  10.878  11.395  1.00  0.00    -0.277 N
ATOM      3  H4  UNL     1      -1.657  11.275  12.229  1.00  0.00     0.189 HD
HETATM    4  N5  UNL     1      -0.373  11.625  10.703  1.00  0.00    -0.250 N
ATOM      5  H5  UNL     1      -0.175  12.574  11.021  1.00  0.00     0.192 HD
HETATM    6  C4  UNL     1       0.240  11.167   9.590  1.00  0.00     0.341 A
HETATM    7  O2  UNL     1       1.046  11.892   8.944  1.00  0.00    -0.245 OA
HETATM    8  N6  UNL     1      -0.052   9.909   9.209  1.00  0.00    -0.271 N
ATOM      9  H6  UNL     1       0.392   9.530   8.373  1.00  0.00     0.174 HD
HETATM   10  C5  UNL     1      -0.923   9.127   9.907  1.00  0.00     0.295 A
HETATM   11  O3  UNL     1      -1.197   7.961   9.559  1.00  0.00    -0.264 OA
ENDROOT
BRANCH   1  12
HETATM   12  N3  UNL     1      -2.360   8.980  11.763  1.00  0.00    -0.301 N
HETATM   13  C2  UNL     1      -2.122   8.372  12.995  1.00  0.00     0.287 C
HETATM   14  O1  UNL     1      -2.104   8.999  14.100  1.00  0.00    -0.264 OA
ATOM     15  H3  UNL     1      -3.310   8.901  11.400  1.00  0.00     0.171 HD
BRANCH  13  16
HETATM   16  C1  UNL     1      -1.876   6.939  13.043  1.00  0.00     0.178 C
HETATM   17  N2  UNL     1      -2.592   6.126  13.971  1.00  0.00    -0.077 NA
BRANCH  16  18
HETATM   18  N1  UNL     1      -1.014   6.362  12.260  1.00  0.00    -0.383 N
ATOM     19  H12 UNL     1      -0.082   6.746  12.107  1.00  0.00     0.157 HD
ATOM     20  H11 UNL     1      -1.292   5.500  11.791  1.00  0.00     0.157 HD
ENDBRANCH  16  18
ENDBRANCH  13  16
ENDBRANCH   1  12
TORSDOF 3
ENDMDL