MODEL 4
REMARK VINA RESULT: -5.928817388      1.148      1.411
REMARK  3 active torsions:
REMARK  status: ('A' for Active; 'I' for Inactive)
REMARK       I    between atoms: C2_2  and  N1_4
REMARK       I    between atoms: C3_6  and  N2_7
REMARK       I    between atoms: C3_6  and  N6_16
REMARK       I    between atoms: C4_9  and  N4_11
REMARK    1  A    between atoms: N4_11  and  N5_13
REMARK    2  A    between atoms: N6_16  and  N7_18
REMARK    3  A    between atoms: N7_18  and  N8_19
ROOT
HETATM    1  C1  UNL     1      -1.775   8.877  14.238  1.00  0.00     0.118 C
HETATM    2  C2  UNL     1      -2.225   8.884  12.836  1.00  0.00     0.232 C
HETATM    3  O1  UNL     1      -3.153   8.112  12.498  1.00  0.00    -0.273 OA
HETATM    4  N1  UNL     1      -1.657   9.725  11.862  1.00  0.00    -0.159 N
ATOM      5  H1  UNL     1      -1.791  10.730  11.969  1.00  0.00     0.187 HD
HETATM    6  C3  UNL     1      -0.978   9.316  10.842  1.00  0.00     0.700 C
HETATM    7  N2  UNL     1      -0.474  10.286   9.958  1.00  0.00    -0.161 N
ATOM      8  H2  UNL     1       0.536  10.324   9.828  1.00  0.00     0.187 HD
HETATM    9  C4  UNL     1      -1.185  11.129   9.301  1.00  0.00     0.221 C
HETATM   10  N3  UNL     1      -0.542  12.045   8.451  1.00  0.00    -0.061 NA
HETATM   11  N4  UNL     1      -2.595  11.159   9.409  1.00  0.00    -0.280 N
ATOM     12  H4  UNL     1      -3.050  12.051   9.608  1.00  0.00     0.189 HD
HETATM   13  N6  UNL     1      -0.793   7.926  10.689  1.00  0.00    -0.116 N
ATOM     14  H6  UNL     1      -1.587   7.297  10.806  1.00  0.00     0.203 HD
ENDROOT
BRANCH  13  15
HETATM   15  N7  UNL     1       0.467   7.397  10.378  1.00  0.00    -0.015 NA
BRANCH  15  16
HETATM   16  N8  UNL     1       1.361   7.537  11.418  1.00  0.00    -0.328 N
ATOM     17  H82 UNL     1       2.356   7.333  11.328  1.00  0.00     0.174 HD
ATOM     18  H81 UNL     1       0.910   7.866  12.272  1.00  0.00     0.174 HD
ENDBRANCH  15  16
ENDBRANCH  13  15
BRANCH  11  19
HETATM   19  N5  UNL     1      -3.392  10.023   9.256  1.00  0.00    -0.343 N
ATOM     20  H52 UNL     1      -3.158   9.204   9.817  1.00  0.00     0.176 HD
ATOM     21  H51 UNL     1      -4.184   9.985   8.615  1.00  0.00     0.176 HD
ENDBRANCH  11  19
TORSDOF 3
ENDMDL