MODEL 3
REMARK VINA RESULT: -6.269335938      4.081      6.153
REMARK  2 active torsions:
REMARK  status: ('A' for Active; 'I' for Inactive)
REMARK    1  A    between atoms: N1_1  and  C1_4
REMARK    2  A    between atoms: N5_16  and  O3_17
ROOT
HETATM    1  C1  UNL     1      -1.630   8.904  12.692  1.00  0.00     0.680 A
HETATM    2  N2  UNL     1      -1.432   7.636  12.290  1.00  0.00    -0.154 N
ATOM      3  H2  UNL     1      -1.060   7.474  11.354  1.00  0.00     0.187 HD
HETATM    4  C2  UNL     1      -1.706   6.567  13.070  1.00  0.00     0.290 A
HETATM    5  O1  UNL     1      -1.521   5.387  12.695  1.00  0.00    -0.265 OA
HETATM    6  C3  UNL     1      -2.205   6.780  14.321  1.00  0.00     0.154 A
HETATM    7  N3  UNL     1      -2.483   5.725  15.111  1.00  0.00    -0.299 N
ATOM      8  H3  UNL     1      -2.329   4.768  14.795  1.00  0.00     0.171 HD
HETATM    9  C4  UNL     1      -2.978   5.993  16.347  1.00  0.00     0.341 A
HETATM   10  O2  UNL     1      -3.253   5.039  17.120  1.00  0.00    -0.245 OA
HETATM   11  N4  UNL     1      -3.185   7.251  16.772  1.00  0.00    -0.223 N
ATOM     12  H4  UNL     1      -3.558   7.421  17.707  1.00  0.00     0.194 HD
HETATM   13  N5  UNL     1      -2.903   8.270  15.977  1.00  0.00    -0.139 N
HETATM   14  C5  UNL     1      -2.407   8.084  14.732  1.00  0.00     0.199 A
HETATM   15  N6  UNL     1      -2.121   9.137  13.921  1.00  0.00    -0.170 N
ATOM     16  H6  UNL     1      -2.277  10.093  14.242  1.00  0.00     0.186 HD
ENDROOT
BRANCH   1  17
HETATM   17  N1  UNL     1      -1.348   9.900  11.897  1.00  0.00    -0.234 N
ATOM     18  H12 UNL     1      -2.082  10.541  11.598  1.00  0.00     0.174 HD
ATOM     19  H11 UNL     1      -0.393  10.045  11.569  1.00  0.00     0.174 HD
ENDBRANCH   1  17
BRANCH  13  20
HETATM   20  O3  UNL     1      -3.085   9.461  16.343  1.00  0.00    -0.266 OA
ATOM     21  H3  UNL     1      -3.663  10.043  15.866  1.00  0.00     0.247 HD
ENDBRANCH  13  20
TORSDOF 2
ENDMDL