MODEL 1
REMARK VINA RESULT: -6.388114613      0.000      0.000
REMARK  2 active torsions:
REMARK  status: ('A' for Active; 'I' for Inactive)
REMARK    1  A    between atoms: C4_11  and  S1_12
REMARK    2  A    between atoms: S1_12  and  N3_13
ROOT
HETATM    1  N1  UNL     1       0.523   7.896  11.629  1.00  0.00    -0.234 N
ATOM      2  H11 UNL     1       1.410   8.264  11.976  1.00  0.00     0.174 HD
ATOM      3  H12 UNL     1       0.203   6.970  11.910  1.00  0.00     0.174 HD
HETATM    4  C1  UNL     1      -0.190   8.602  10.831  1.00  0.00     0.679 A
HETATM    5  N2  UNL     1      -1.441   8.083  10.341  1.00  0.00    -0.153 N
ATOM      6  H2  UNL     1      -1.736   7.153  10.639  1.00  0.00     0.187 HD
HETATM    7  C2  UNL     1      -2.298   8.830   9.442  1.00  0.00     0.312 A
HETATM    8  O1  UNL     1      -3.387   8.384   9.013  1.00  0.00    -0.263 OA
HETATM    9  C3  UNL     1      -1.855  10.161   9.025  1.00  0.00     0.277 A
HETATM   10  O2  UNL     1      -2.489  10.952   8.253  1.00  0.00    -0.279 OA
HETATM   11  C4  UNL     1      -0.594  10.576   9.569  1.00  0.00     0.192 A
HETATM   12  N4  UNL     1       0.259   9.897  10.437  1.00  0.00    -0.178 N
ATOM     13  H4  UNL     1       1.138  10.296  10.765  1.00  0.00     0.185 HD
ENDROOT
BRANCH  11  14
HETATM   14  S1  UNL     1      -0.106  12.034   9.116  1.00  0.00     0.166 S
HETATM   15  O3  UNL     1       1.014  11.986  10.156  1.00  0.00    -0.229 OA
BRANCH  14  16
HETATM   16  N3  UNL     1       0.482  12.073   7.533  1.00  0.00    -0.344 NA
ATOM     17  H32 UNL     1      -0.041  12.715   6.938  1.00  0.00     0.166 HD
ATOM     18  H31 UNL     1       1.315  12.652   7.431  1.00  0.00     0.166 HD
ENDBRANCH  14  16
ENDBRANCH  11  14
TORSDOF 2
ENDMDL