MODEL 1
REMARK VINA RESULT: -8.214910649      0.000      0.000
REMARK  0 active torsions:
REMARK  status: ('A' for Active; 'I' for Inactive)
REMARK       I    between atoms: C1_4  and  N3_6
ROOT
HETATM    1  N1  UNL     1      -0.826   7.918  13.160  1.00  0.00    -0.373 N
ATOM      2  H11 UNL     1      -0.647   7.289  12.378  1.00  0.00     0.158 HD
ATOM      3  H12 UNL     1      -0.339   7.881  14.056  1.00  0.00     0.158 HD
HETATM    4  C1  UNL     1      -1.733   8.842  13.037  1.00  0.00     0.187 C
HETATM    5  N2  UNL     1      -1.980   9.711  14.118  1.00  0.00    -0.064 NA
HETATM    6  N3  UNL     1      -2.410   8.893  11.791  1.00  0.00    -0.312 N
ATOM      7  H3  UNL     1      -3.206   8.275  11.632  1.00  0.00     0.170 HD
HETATM    8  C2  UNL     1      -2.041   9.712  10.843  1.00  0.00     0.180 C
HETATM    9  N4  UNL     1      -0.929  10.559  11.099  1.00  0.00    -0.301 N
ATOM     10  H4  UNL     1      -0.612  10.596  12.068  1.00  0.00     0.171 HD
HETATM   11  C3  UNL     1      -0.190  11.370  10.165  1.00  0.00     0.303 C
HETATM   12  O1  UNL     1       0.696  12.104  10.651  1.00  0.00    -0.263 OA
HETATM   13  C4  UNL     1      -0.335  11.454   8.717  1.00  0.00     0.306 C
HETATM   14  O2  UNL     1       0.458  12.184   8.074  1.00  0.00    -0.276 OA
HETATM   15  C5  UNL     1      -1.325  10.774   7.856  1.00  0.00     0.304 C
HETATM   16  O3  UNL     1      -1.069  10.807   6.629  1.00  0.00    -0.263 OA
HETATM   17  N5  UNL     1      -2.503  10.108   8.291  1.00  0.00    -0.284 N
ATOM     18  H5  UNL     1      -3.207   9.926   7.575  1.00  0.00     0.172 HD
HETATM   19  C6  UNL     1      -2.822   9.659   9.619  1.00  0.00     0.292 C
HETATM   20  O4  UNL     1      -3.959   9.141   9.726  1.00  0.00    -0.264 OA
ENDROOT
TORSDOF 0
ENDMDL