MODEL 3
REMARK VINA RESULT: -6.333842349      2.639      3.601
REMARK  1 active torsions:
REMARK  status: ('A' for Active; 'I' for Inactive)
REMARK    1  A    between atoms: N1_1  and  C1_4
ROOT
HETATM    1  C1  UNL     1      -1.578   8.917  13.252  1.00  0.00     0.694 A
HETATM    2  N2  UNL     1      -0.564   8.041  13.145  1.00  0.00    -0.153 N
ATOM      3  H2  UNL     1      -0.192   7.626  13.999  1.00  0.00     0.187 HD
HETATM    4  C2  UNL     1      -0.018   7.686  11.980  1.00  0.00     0.294 A
HETATM    5  O1  UNL     1       0.927   6.870  11.872  1.00  0.00    -0.265 OA
HETATM    6  C3  UNL     1      -0.537   8.265  10.818  1.00  0.00     0.199 A
HETATM    7  C4  UNL     1       0.031   7.894   9.614  1.00  0.00     0.294 A
HETATM    8  O2  UNL     1       0.978   7.071   9.573  1.00  0.00    -0.264 OA
HETATM    9  N3  UNL     1      -0.488   8.467   8.514  1.00  0.00    -0.260 N
ATOM     10  H3  UNL     1      -0.107   8.231   7.598  1.00  0.00     0.190 HD
HETATM   11  N4  UNL     1      -1.482   9.327   8.600  1.00  0.00    -0.247 N
ATOM     12  H4  UNL     1      -1.854   9.743   7.746  1.00  0.00     0.192 HD
HETATM   13  C5  UNL     1      -2.019   9.671   9.783  1.00  0.00     0.361 A
HETATM   14  O3  UNL     1      -2.956  10.490   9.800  1.00  0.00    -0.243 OA
HETATM   15  N5  UNL     1      -1.549   9.140  10.922  1.00  0.00    -0.179 N
HETATM   16  N6  UNL     1      -2.044   9.446  12.111  1.00  0.00    -0.121 N
ATOM     17  H6  UNL     1      -2.813  10.113  12.162  1.00  0.00     0.206 HD
ENDROOT
BRANCH   1  18
HETATM   18  N1  UNL     1      -2.090   9.242  14.410  1.00  0.00    -0.233 N
ATOM     19  H12 UNL     1      -2.060   8.599  15.202  1.00  0.00     0.174 HD
ATOM     20  H11 UNL     1      -2.538  10.145  14.567  1.00  0.00     0.174 HD
ENDBRANCH   1  18
TORSDOF 1
ENDMDL