MODEL 2
REMARK VINA RESULT: -5.833498869      2.286      2.465
REMARK  4 active torsions:
REMARK  status: ('A' for Active; 'I' for Inactive)
REMARK    1  A    between atoms: N1_1  and  C1_4
REMARK    2  A    between atoms: C2_9  and  S1_10
REMARK    3  A    between atoms: S1_10  and  N4_11
REMARK    4  A    between atoms: S1_10  and  N5_14
ROOT
HETATM    1  C1  UNL     1      -0.737   6.660  10.266  1.00  0.00     0.693 A
HETATM    2  N2  UNL     1      -0.276   7.167   9.087  1.00  0.00    -0.131 N
ATOM      3  H2  UNL     1       0.147   6.546   8.398  1.00  0.00     0.205 HD
HETATM    4  N3  UNL     1      -0.377   8.464   8.834  1.00  0.00    -0.271 N
ATOM      5  H3  UNL     1      -0.047   8.880   7.964  1.00  0.00     0.188 HD
HETATM    6  C2  UNL     1      -0.938   9.174   9.793  1.00  0.00     0.211 A
HETATM    7  C3  UNL     1      -1.433   8.773  10.997  1.00  0.00     0.299 A
HETATM    8  O2  UNL     1      -1.949   9.634  11.770  1.00  0.00    -0.264 OA
HETATM    9  N6  UNL     1      -1.317   7.449  11.229  1.00  0.00    -0.153 N
ATOM     10  H6  UNL     1      -1.654   7.042  12.102  1.00  0.00     0.187 HD
ENDROOT
BRANCH   6  11
HETATM   11  S1  UNL     1      -1.052  10.744   9.499  1.00  0.00     0.153 S
HETATM   12  O1  UNL     1      -0.245  10.581   8.220  1.00  0.00    -0.222 OA
BRANCH  11  13
HETATM   13  N4  UNL     1      -0.135  11.648  10.592  1.00  0.00    -0.340 N
ATOM     14  H42 UNL     1      -0.180  11.520  11.603  1.00  0.00     0.167 HD
ATOM     15  H41 UNL     1       0.457  12.326  10.112  1.00  0.00     0.167 HD
ENDBRANCH  11  13
BRANCH  11  16
HETATM   16  N5  UNL     1      -2.621  11.287   9.232  1.00  0.00    -0.340 N
ATOM     17  H52 UNL     1      -3.409  10.958   9.790  1.00  0.00     0.167 HD
ATOM     18  H51 UNL     1      -2.709  11.963   8.473  1.00  0.00     0.167 HD
ENDBRANCH  11  16
ENDBRANCH   6  11
BRANCH   1  19
HETATM   19  N1  UNL     1      -0.640   5.400  10.518  1.00  0.00    -0.233 N
ATOM     20  H12 UNL     1      -0.310   4.799   9.764  1.00  0.00     0.174 HD
ATOM     21  H11 UNL     1      -0.888   5.036  11.438  1.00  0.00     0.174 HD
ENDBRANCH   1  19
TORSDOF 4
ENDMDL