MODEL 2
REMARK VINA RESULT: -6.223940810      1.988      3.849
REMARK  4 active torsions:
REMARK  status: ('A' for Active; 'I' for Inactive)
REMARK    1  A    between atoms: N2_3  and  C2_5
REMARK    2  A    between atoms: C3_10  and  N5_11
REMARK    3  A    between atoms: N6_14  and  O1_15
REMARK    4  A    between atoms: C4_17  and  C5_18
ROOT
HETATM    1  N1  UNL     1       1.066  12.284   9.621  1.00  0.00    -0.172 NA
HETATM    2  C1  UNL     1       0.234  11.637  10.133  1.00  0.00     0.183 C
HETATM    3  N2  UNL     1      -0.734  10.867  10.756  1.00  0.00    -0.276 N
ATOM      4  H2  UNL     1      -1.420  11.333  11.350  1.00  0.00     0.179 HD
ENDROOT
BRANCH   3   5
HETATM    5  C2  UNL     1      -0.805   9.587  10.616  1.00  0.00     0.165 A
HETATM    6  N3  UNL     1       0.118   8.819  11.226  1.00  0.00    -0.269 N
HETATM    7  N4  UNL     1       0.054   7.494  11.089  1.00  0.00    -0.129 N
ATOM      8  H3  UNL     1       0.856   9.245  11.787  1.00  0.00     0.189 HD
HETATM    9  C3  UNL     1      -0.914   6.928  10.352  1.00  0.00     0.717 A
ATOM     10  H4  UNL     1       0.748   6.905  11.549  1.00  0.00     0.205 HD
HETATM   11  N6  UNL     1      -1.844   7.688   9.736  1.00  0.00    -0.043 N
HETATM   12  C4  UNL     1      -1.810   9.031   9.854  1.00  0.00     0.191 A
BRANCH   9  13
HETATM   13  N5  UNL     1      -1.001   5.639  10.199  1.00  0.00    -0.231 N
ATOM     14  H52 UNL     1      -0.504   5.228   9.410  1.00  0.00     0.174 HD
ATOM     15  H51 UNL     1      -1.543   5.054  10.836  1.00  0.00     0.174 HD
ENDBRANCH   9  13
BRANCH  11  16
HETATM   16  O1  UNL     1      -2.850   7.156   8.976  1.00  0.00    -0.269 OA
ATOM     17  H1  UNL     1      -3.728   7.019   9.310  1.00  0.00     0.245 HD
ENDBRANCH  11  16
BRANCH  12  18
HETATM   18  C5  UNL     1      -2.803   9.871   9.199  1.00  0.00     0.288 C
HETATM   19  N7  UNL     1      -2.421  10.740   8.147  1.00  0.00    -0.056 NA
HETATM   20  O2  UNL     1      -3.995   9.822   9.572  1.00  0.00    -0.269 OA
ENDBRANCH  12  18
ENDBRANCH   3   5
TORSDOF 4
ENDMDL