MODEL 5
REMARK VINA RESULT: -7.293109122      2.049      4.833
REMARK  1 active torsions:
REMARK  status: ('A' for Active; 'I' for Inactive)
REMARK       I    between atoms: N1_1  and  C1_4
REMARK       I    between atoms: C1_4  and  N3_6
REMARK    1  A    between atoms: N3_6  and  C2_8
ROOT
HETATM    1  C2  UNL     1      -0.482   9.875  10.358  1.00  0.00     0.192 C
HETATM    2  N4  UNL     1      -1.438  10.387  11.183  1.00  0.00    -0.278 N
ATOM      3  H4  UNL     1      -1.790  11.314  10.943  1.00  0.00     0.189 HD
HETATM    4  N5  UNL     1      -1.964   9.824  12.257  1.00  0.00    -0.260 N
ATOM      5  H5  UNL     1      -2.794  10.282  12.632  1.00  0.00     0.190 HD
HETATM    6  C3  UNL     1      -1.552   8.723  12.928  1.00  0.00     0.328 C
HETATM    7  O1  UNL     1      -2.024   8.613  14.086  1.00  0.00    -0.261 OA
HETATM    8  C4  UNL     1      -0.684   7.722  12.486  1.00  0.00     0.318 C
HETATM    9  O2  UNL     1      -0.434   6.810  13.285  1.00  0.00    -0.262 OA
HETATM   10  N6  UNL     1      -0.089   7.650  11.270  1.00  0.00    -0.283 N
ATOM     11  H6  UNL     1       0.474   6.816  11.102  1.00  0.00     0.172 HD
HETATM   12  C5  UNL     1      -0.142   8.548  10.235  1.00  0.00     0.294 C
HETATM   13  O3  UNL     1       0.140   8.115   9.097  1.00  0.00    -0.264 OA
ENDROOT
BRANCH   1  14
HETATM   14  N3  UNL     1       0.163  10.690   9.627  1.00  0.00    -0.311 N
HETATM   15  C1  UNL     1      -0.383  11.493   8.624  1.00  0.00     0.187 C
HETATM   16  N1  UNL     1      -0.519  12.796   8.737  1.00  0.00    -0.373 N
HETATM   17  N2  UNL     1      -0.824  10.925   7.371  1.00  0.00    -0.064 NA
ATOM     18  H12 UNL     1      -0.917  13.383   8.004  1.00  0.00     0.158 HD
ATOM     19  H11 UNL     1      -0.207  13.197   9.621  1.00  0.00     0.158 HD
ATOM     20  H3  UNL     1       1.167  10.763   9.787  1.00  0.00     0.170 HD
ENDBRANCH   1  14
TORSDOF 1
ENDMDL