MODEL 4
REMARK VINA RESULT: -7.156955653      1.643      4.674
REMARK  0 active torsions:
REMARK  status: ('A' for Active; 'I' for Inactive)
REMARK       I    between atoms: C1_2  and  N2_4
ROOT
HETATM    1  N1  UNL     1      -0.436  12.638   8.489  1.00  0.00    -0.040 NA
HETATM    2  C1  UNL     1       0.150  11.998   9.609  1.00  0.00     0.334 C
HETATM    3  O1  UNL     1       1.405  11.986   9.786  1.00  0.00    -0.251 OA
HETATM    4  N2  UNL     1      -0.640  11.355  10.565  1.00  0.00    -0.292 N
ATOM      5  H2  UNL     1      -1.135  11.970  11.211  1.00  0.00     0.172 HD
HETATM    6  C2  UNL     1      -0.828  10.117  10.740  1.00  0.00     0.182 C
HETATM    7  N3  UNL     1      -1.658   9.736  11.757  1.00  0.00    -0.290 N
ATOM      8  H3  UNL     1      -2.327  10.435  12.080  1.00  0.00     0.172 HD
HETATM    9  C3  UNL     1      -1.694   8.551  12.380  1.00  0.00     0.329 C
HETATM   10  O2  UNL     1      -2.608   8.473  13.257  1.00  0.00    -0.246 OA
HETATM   11  N4  UNL     1      -0.932   7.460  12.221  1.00  0.00    -0.260 N
ATOM     12  H4  UNL     1      -1.001   6.737  12.939  1.00  0.00     0.175 HD
HETATM   13  C4  UNL     1      -0.074   7.228  11.188  1.00  0.00     0.331 C
HETATM   14  O3  UNL     1       0.501   6.116  11.216  1.00  0.00    -0.246 OA
HETATM   15  N5  UNL     1       0.245   8.014  10.148  1.00  0.00    -0.272 N
ATOM     16  H5  UNL     1       0.890   7.610   9.469  1.00  0.00     0.174 HD
HETATM   17  C5  UNL     1      -0.174   9.262   9.883  1.00  0.00     0.293 C
HETATM   18  O4  UNL     1       0.059   9.690   8.715  1.00  0.00    -0.264 OA
ENDROOT
TORSDOF 0
ENDMDL