MODEL 1
REMARK VINA RESULT: -6.927745432      0.000      0.000
REMARK  0 active torsions:
REMARK  status: ('A' for Active; 'I' for Inactive)
ROOT
HETATM    1  N1  UNL     1       0.261   6.679   9.290  1.00  0.00    -0.080 NA
HETATM    2  C1  UNL     1      -0.281   7.975   9.550  1.00  0.00     0.151 A
HETATM    3  C2  UNL     1      -0.672   8.232  10.797  1.00  0.00     0.124 A
HETATM    4  N2  UNL     1      -0.559   7.308  11.765  1.00  0.00    -0.302 N
ATOM      5  H2  UNL     1      -0.180   6.371  11.630  1.00  0.00     0.171 HD
HETATM    6  C3  UNL     1      -1.016   7.790  12.942  1.00  0.00     0.326 A
HETATM    7  O1  UNL     1      -1.050   7.176  14.044  1.00  0.00    -0.247 OA
HETATM    8  N3  UNL     1      -1.426   9.052  12.695  1.00  0.00    -0.291 N
ATOM      9  H3  UNL     1      -1.826   9.687  13.386  1.00  0.00     0.172 HD
HETATM   10  C4  UNL     1      -1.223   9.346  11.381  1.00  0.00     0.154 A
HETATM   11  N4  UNL     1      -1.512  10.479  10.831  1.00  0.00    -0.280 N
ATOM     12  H4  UNL     1      -1.917  11.168  11.465  1.00  0.00     0.189 HD
HETATM   13  N5  UNL     1      -1.362  10.919   9.507  1.00  0.00    -0.250 N
ATOM     14  H5  UNL     1      -1.626  11.886   9.320  1.00  0.00     0.192 HD
HETATM   15  C5  UNL     1      -0.886  10.176   8.398  1.00  0.00     0.340 A
HETATM   16  O2  UNL     1      -0.970  10.769   7.312  1.00  0.00    -0.245 OA
HETATM   17  N6  UNL     1      -0.344   8.866   8.422  1.00  0.00    -0.294 N
ATOM     18  H6  UNL     1       0.044   8.517   7.545  1.00  0.00     0.172 HD
ENDROOT
TORSDOF 0
ENDMDL