MODEL 3
REMARK VINA RESULT: -6.809663858      2.925      4.692
REMARK  1 active torsions:
REMARK  status: ('A' for Active; 'I' for Inactive)
REMARK    1  A    between atoms: C2_5  and  N3_6
REMARK       I    between atoms: N3_6  and  C3_8
ROOT
HETATM    1  C1  UNL     1       0.732   6.649   9.344  1.00  0.00     0.182 C
HETATM    2  N1  UNL     1      -0.066   7.641  10.030  1.00  0.00    -0.243 N
HETATM    3  N2  UNL     1      -0.583   8.681   9.367  1.00  0.00    -0.127 N
ATOM      4  H2  UNL     1      -0.408   8.769   8.366  1.00  0.00     0.206 HD
HETATM    5  C2  UNL     1      -1.323   9.609   9.984  1.00  0.00     0.702 A
HETATM    6  N6  UNL     1      -1.548   9.484  11.303  1.00  0.00    -0.150 N
ATOM      7  H6  UNL     1      -2.113  10.189  11.777  1.00  0.00     0.188 HD
HETATM    8  C4  UNL     1      -1.049   8.451  12.025  1.00  0.00     0.329 A
HETATM    9  O1  UNL     1      -1.256   8.331  13.252  1.00  0.00    -0.261 OA
HETATM   10  C5  UNL     1      -0.288   7.512  11.349  1.00  0.00     0.330 A
HETATM   11  O2  UNL     1       0.214   6.522  11.931  1.00  0.00    -0.260 OA
ENDROOT
BRANCH   5  12
HETATM   12  N3  UNL     1      -1.821  10.614   9.336  1.00  0.00    -0.162 N
HETATM   13  C3  UNL     1      -1.073  11.379   8.414  1.00  0.00     0.200 C
HETATM   14  N4  UNL     1      -0.488  12.469   8.740  1.00  0.00    -0.373 N
HETATM   15  N5  UNL     1      -0.967  10.922   7.079  1.00  0.00    -0.063 NA
ATOM     16  H42 UNL     1      -0.565  12.797   9.702  1.00  0.00     0.158 HD
ATOM     17  H41 UNL     1       0.051  13.021   8.074  1.00  0.00     0.158 HD
ATOM     18  H3  UNL     1      -2.796  10.864   9.500  1.00  0.00     0.187 HD
ENDBRANCH   5  12
TORSDOF 1
ENDMDL