MODEL 2
REMARK VINA RESULT: -6.641222888      1.827      4.444
REMARK  1 active torsions:
REMARK  status: ('A' for Active; 'I' for Inactive)
REMARK       I    between atoms: C4_11  and  N4_12
REMARK    1  A    between atoms: N4_12  and  N5_14
ROOT
HETATM    1  C1  UNL     1      -0.082   5.937   9.733  1.00  0.00     0.148 C
HETATM    2  N1  UNL     1      -1.179   6.744   9.359  1.00  0.00    -0.376 N
ATOM      3  H1  UNL     1      -1.877   6.308   8.756  1.00  0.00     0.160 HD
HETATM    4  C2  UNL     1      -1.396   7.943   9.686  1.00  0.00     0.174 C
HETATM    5  N2  UNL     1      -2.537   8.511   9.191  1.00  0.00    -0.290 N
ATOM      6  H2  UNL     1      -3.306   7.884   8.958  1.00  0.00     0.172 HD
HETATM    7  C3  UNL     1      -2.733   9.826   8.984  1.00  0.00     0.340 C
HETATM    8  O1  UNL     1      -3.836  10.101   8.450  1.00  0.00    -0.246 OA
HETATM    9  N3  UNL     1      -1.928  10.885   9.260  1.00  0.00    -0.140 N
ATOM     10  H3  UNL     1      -2.281  11.794   8.958  1.00  0.00     0.189 HD
HETATM   11  C4  UNL     1      -0.735  10.909   9.872  1.00  0.00     0.703 C
HETATM   12  N4  UNL     1      -0.129  12.070   9.951  1.00  0.00    -0.138 N
ATOM     13  H4  UNL     1      -0.557  12.910   9.561  1.00  0.00     0.205 HD
HETATM   14  N6  UNL     1      -0.091   9.861  10.417  1.00  0.00    -0.151 N
ATOM     15  H6  UNL     1       0.819  10.069  10.828  1.00  0.00     0.188 HD
HETATM   16  C5  UNL     1      -0.485   8.560  10.497  1.00  0.00     0.303 C
HETATM   17  O2  UNL     1       0.060   7.899  11.415  1.00  0.00    -0.263 OA
ENDROOT
BRANCH  12  18
HETATM   18  N5  UNL     1       1.110  12.130  10.579  1.00  0.00    -0.331 N
ATOM     19  H52 UNL     1       1.732  11.323  10.551  1.00  0.00     0.177 HD
ATOM     20  H51 UNL     1       1.370  12.992  11.059  1.00  0.00     0.177 HD
ENDBRANCH  12  18
TORSDOF 1
ENDMDL