MODEL 5
REMARK VINA RESULT: -6.322809677      2.451      3.227
REMARK  1 active torsions:
REMARK  status: ('A' for Active; 'I' for Inactive)
REMARK       I    between atoms: N1_1  and  C1_4
REMARK       I    between atoms: C1_4  and  N3_6
REMARK    1  A    between atoms: N3_6  and  C2_8
ROOT
HETATM    1  C2  UNL     1      -0.619   9.064   9.921  1.00  0.00     0.192 A
HETATM    2  N4  UNL     1      -1.524   8.156   9.526  1.00  0.00    -0.277 N
ATOM      3  H4  UNL     1      -1.349   7.157   9.628  1.00  0.00     0.189 HD
HETATM    4  N5  UNL     1      -2.651   8.607   9.001  1.00  0.00    -0.250 N
ATOM      5  H5  UNL     1      -3.348   7.927   8.698  1.00  0.00     0.192 HD
HETATM    6  C3  UNL     1      -2.925   9.908   8.845  1.00  0.00     0.341 A
HETATM    7  O1  UNL     1      -4.006  10.335   8.340  1.00  0.00    -0.245 OA
HETATM    8  N6  UNL     1      -2.034  10.848   9.231  1.00  0.00    -0.271 N
ATOM      9  H6  UNL     1      -2.226  11.844   9.120  1.00  0.00     0.174 HD
HETATM   10  C4  UNL     1      -0.878  10.409   9.771  1.00  0.00     0.295 A
HETATM   11  O2  UNL     1      -0.044  11.299  10.134  1.00  0.00    -0.264 OA
ENDROOT
BRANCH   1  12
HETATM   12  N3  UNL     1       0.496   8.692  10.441  1.00  0.00    -0.311 N
HETATM   13  C1  UNL     1       0.656   7.561  11.256  1.00  0.00     0.187 C
HETATM   14  N1  UNL     1       0.207   7.564  12.475  1.00  0.00    -0.373 N
HETATM   15  N2  UNL     1       1.302   6.367  10.819  1.00  0.00    -0.064 NA
ATOM     16  H12 UNL     1       0.323   6.742  13.068  1.00  0.00     0.158 HD
ATOM     17  H11 UNL     1      -0.255   8.418  12.788  1.00  0.00     0.158 HD
ATOM     18  H3  UNL     1       1.321   9.258  10.248  1.00  0.00     0.170 HD
ENDBRANCH   1  12
TORSDOF 1
ENDMDL