MODEL 5
REMARK VINA RESULT: -6.116079358      2.389      3.076
REMARK  1 active torsions:
REMARK  status: ('A' for Active; 'I' for Inactive)
REMARK    1  A    between atoms: N1_1  and  N2_4
REMARK       I    between atoms: N2_4  and  C1_6
ROOT
HETATM    1  N2  UNL     1      -0.842   8.303  13.030  1.00  0.00    -0.138 N
ATOM      2  H2  UNL     1      -0.280   7.555  13.438  1.00  0.00     0.205 HD
HETATM    3  C1  UNL     1      -0.846   8.418  11.746  1.00  0.00     0.703 C
HETATM    4  N3  UNL     1      -0.086   7.506  11.101  1.00  0.00    -0.140 N
ATOM      5  H3  UNL     1       0.275   6.755  11.688  1.00  0.00     0.189 HD
HETATM    6  C2  UNL     1       0.271   7.431   9.802  1.00  0.00     0.341 C
HETATM    7  O1  UNL     1       0.788   6.356   9.406  1.00  0.00    -0.246 OA
HETATM    8  N4  UNL     1       0.136   8.390   8.870  1.00  0.00    -0.270 N
ATOM      9  H4  UNL     1       0.714   8.287   8.036  1.00  0.00     0.174 HD
HETATM   10  C3  UNL     1      -0.677   9.483   8.901  1.00  0.00     0.318 C
HETATM   11  O2  UNL     1      -0.604  10.292   7.969  1.00  0.00    -0.262 OA
HETATM   12  C4  UNL     1      -1.606   9.811   9.878  1.00  0.00     0.328 C
HETATM   13  O3  UNL     1      -2.562  10.559   9.547  1.00  0.00    -0.261 OA
HETATM   14  N5  UNL     1      -1.574   9.392  11.177  1.00  0.00    -0.150 N
ATOM     15  H5  UNL     1      -2.196   9.894  11.810  1.00  0.00     0.188 HD
ENDROOT
BRANCH   1  16
HETATM   16  N1  UNL     1      -1.543   9.121  13.889  1.00  0.00    -0.331 N
ATOM     17  H12 UNL     1      -1.250  10.096  13.933  1.00  0.00     0.177 HD
ATOM     18  H11 UNL     1      -2.322   8.814  14.471  1.00  0.00     0.177 HD
ENDBRANCH   1  16
TORSDOF 1
ENDMDL