MODEL 3
REMARK VINA RESULT: -5.690216930      0.997      2.433
REMARK  2 active torsions:
REMARK  status: ('A' for Active; 'I' for Inactive)
REMARK    1  A    between atoms: O1_2  and  C2_3
REMARK    2  A    between atoms: C2_3  and  O2_4
ROOT
HETATM    1  C2  UNL     1      -0.668   6.791  10.855  1.00  0.00     0.212 C
HETATM    2  C3  UNL     1      -0.832   7.988  10.356  1.00  0.00     0.175 A
HETATM    3  N1  UNL     1      -0.557   8.181   8.956  1.00  0.00    -0.277 N
ATOM      4  H1  UNL     1      -0.241   7.417   8.358  1.00  0.00     0.188 HD
HETATM    5  N2  UNL     1      -0.746   9.472   8.467  1.00  0.00    -0.132 N
ATOM      6  H2  UNL     1      -0.559   9.646   7.479  1.00  0.00     0.205 HD
HETATM    7  C4  UNL     1      -1.185  10.561   9.270  1.00  0.00     0.693 A
HETATM    8  N3  UNL     1      -1.359  11.756   8.815  1.00  0.00    -0.233 N
ATOM      9  H31 UNL     1      -1.673  12.536   9.391  1.00  0.00     0.174 HD
ATOM     10  H32 UNL     1      -1.166  11.902   7.824  1.00  0.00     0.174 HD
HETATM   11  N4  UNL     1      -1.455  10.355  10.655  1.00  0.00    -0.153 N
ATOM     12  H4  UNL     1      -1.769  11.131  11.237  1.00  0.00     0.187 HD
HETATM   13  C5  UNL     1      -1.282   9.065  11.217  1.00  0.00     0.292 A
HETATM   14  O3  UNL     1      -1.520   8.867  12.456  1.00  0.00    -0.265 OA
ENDROOT
BRANCH   1  15
HETATM   15  O1  UNL     1      -0.919   6.564  12.182  1.00  0.00    -0.334 OA
HETATM   16  C1  UNL     1      -0.893   5.302  12.794  1.00  0.00     0.212 C
ENDBRANCH   1  15
BRANCH   1  17
HETATM   17  O2  UNL     1      -0.241   5.745  10.061  1.00  0.00    -0.339 OA
ATOM     18  H2  UNL     1      -0.675   5.585   9.231  1.00  0.00     0.220 HD
ENDBRANCH   1  17
TORSDOF 2
ENDMDL