MODEL 4
REMARK VINA RESULT: -6.645443925      1.174      2.460
REMARK  1 active torsions:
REMARK  status: ('A' for Active; 'I' for Inactive)
REMARK    1  A    between atoms: C3_7  and  N3_8
REMARK       I    between atoms: N3_8  and  C4_10
ROOT
HETATM    1  C1  UNL     1      -0.580   5.382  12.392  1.00  0.00     0.166 C
HETATM    2  N1  UNL     1      -0.784   6.750  11.905  1.00  0.00    -0.255 N
HETATM    3  C2  UNL     1      -0.806   6.994  10.582  1.00  0.00     0.344 A
HETATM    4  O1  UNL     1      -0.652   6.058   9.785  1.00  0.00    -0.246 OA
HETATM    5  N2  UNL     1      -0.994   8.254  10.137  1.00  0.00    -0.140 N
ATOM      6  H2  UNL     1      -1.010   8.435   9.133  1.00  0.00     0.189 HD
HETATM    7  C3  UNL     1      -1.160   9.272  10.995  1.00  0.00     0.692 A
HETATM    8  N6  UNL     1      -1.136   9.007  12.313  1.00  0.00    -0.140 N
ATOM      9  H6  UNL     1      -1.262   9.772  12.977  1.00  0.00     0.189 HD
HETATM   10  C5  UNL     1      -0.948   7.747  12.782  1.00  0.00     0.344 A
HETATM   11  O2  UNL     1      -0.927   7.512  14.031  1.00  0.00    -0.246 OA
ENDROOT
BRANCH   7  12
HETATM   12  N3  UNL     1      -1.341  10.485  10.529  1.00  0.00    -0.163 N
HETATM   13  C4  UNL     1      -0.370  11.099   9.693  1.00  0.00     0.200 C
HETATM   14  N4  UNL     1       0.336  12.046  10.181  1.00  0.00    -0.373 N
HETATM   15  N5  UNL     1      -0.152  10.702   8.341  1.00  0.00    -0.063 NA
ATOM     16  H42 UNL     1       0.180  12.330  11.148  1.00  0.00     0.158 HD
ATOM     17  H41 UNL     1       1.033  12.487   9.581  1.00  0.00     0.158 HD
ATOM     18  H3  UNL     1      -2.191  10.994  10.770  1.00  0.00     0.187 HD
ENDBRANCH   7  12
TORSDOF 1
ENDMDL