MODEL 1
REMARK VINA RESULT: -6.258095364      0.000      0.000
REMARK  1 active torsions:
REMARK  status: ('A' for Active; 'I' for Inactive)
REMARK       I    between atoms: C1_4  and  N3_6
REMARK    1  A    between atoms: N5_11  and  N6_12
ROOT
HETATM    1  N1  UNL     1       0.383  12.082  10.068  1.00  0.00    -0.371 N
ATOM      2  H11 UNL     1       0.692  11.894  11.022  1.00  0.00     0.158 HD
ATOM      3  H12 UNL     1       0.499  13.003   9.645  1.00  0.00     0.158 HD
HETATM    4  C1  UNL     1      -0.162  11.154   9.375  1.00  0.00     0.224 C
HETATM    5  N2  UNL     1      -0.586  11.413   8.064  1.00  0.00    -0.060 NA
HETATM    6  N3  UNL     1      -0.321   9.882   9.960  1.00  0.00    -0.159 N
HETATM    7  N4  UNL     1      -1.019   9.777  11.159  1.00  0.00    -0.226 N
ATOM      8  H4  UNL     1      -1.405  10.613  11.597  1.00  0.00     0.194 HD
HETATM    9  C2  UNL     1      -1.198   8.498  11.778  1.00  0.00     0.363 A
HETATM   10  O1  UNL     1      -1.824   8.373  12.860  1.00  0.00    -0.243 OA
HETATM   11  N5  UNL     1      -0.668   7.328  11.181  1.00  0.00    -0.182 N
HETATM   12  C3  UNL     1       0.039   7.450   9.963  1.00  0.00     0.217 A
HETATM   13  S1  UNL     1       0.645   6.105   9.281  1.00  0.00    -0.037 SA
HETATM   14  N7  UNL     1       0.209   8.747   9.354  1.00  0.00    -0.250 N
ATOM     15  H7  UNL     1       0.719   8.832   8.475  1.00  0.00     0.191 HD
ENDROOT
BRANCH  11  16
HETATM   16  N6  UNL     1      -0.856   6.101  11.804  1.00  0.00    -0.332 N
ATOM     17  H62 UNL     1      -1.599   5.948  12.485  1.00  0.00     0.177 HD
ATOM     18  H61 UNL     1      -0.235   5.325  11.577  1.00  0.00     0.177 HD
ENDBRANCH  11  16
TORSDOF 1
ENDMDL