MODEL 2
REMARK VINA RESULT: -6.076882574      4.259      6.969
REMARK  3 active torsions:
REMARK  status: ('A' for Active; 'I' for Inactive)
REMARK    1  A    between atoms: N1_2  and  C2_4
REMARK    2  A    between atoms: C3_9  and  N4_10
REMARK       I    between atoms: N4_10  and  C4_12
REMARK    3  A    between atoms: N7_17  and  N8_18
ROOT
HETATM    1  C2  UNL     1      -1.309   8.328  13.886  1.00  0.00     0.728 A
HETATM    2  N2  UNL     1      -1.884   9.394  14.528  1.00  0.00    -0.116 N
ATOM      3  H2  UNL     1      -1.930  10.344  14.160  1.00  0.00     0.206 HD
HETATM    4  N3  UNL     1      -2.369   9.008  15.692  1.00  0.00    -0.115 N
ATOM      5  H3  UNL     1      -2.847   9.611  16.362  1.00  0.00     0.206 HD
HETATM    6  C3  UNL     1      -2.134   7.694  15.858  1.00  0.00     0.735 A
HETATM    7  N7  UNL     1      -1.489   7.300  14.745  1.00  0.00     0.086 N
ENDROOT
BRANCH   6   8
HETATM    8  N4  UNL     1      -2.466   6.979  16.872  1.00  0.00    -0.160 N
HETATM    9  C4  UNL     1      -3.565   6.129  16.994  1.00  0.00     0.200 C
HETATM   10  N5  UNL     1      -4.746   6.476  17.391  1.00  0.00    -0.373 N
HETATM   11  N6  UNL     1      -3.389   4.739  16.656  1.00  0.00    -0.063 NA
ATOM     12  H52 UNL     1      -4.870   7.460  17.629  1.00  0.00     0.158 HD
ATOM     13  H51 UNL     1      -5.550   5.854  17.480  1.00  0.00     0.158 HD
ATOM     14  H4  UNL     1      -1.854   7.040  17.685  1.00  0.00     0.187 HD
ENDBRANCH   6   8
BRANCH   7  15
HETATM   15  N8  UNL     1      -1.070   5.983  14.539  1.00  0.00    -0.309 N
ATOM     16  H82 UNL     1      -0.559   5.690  13.706  1.00  0.00     0.178 HD
ATOM     17  H81 UNL     1      -1.227   5.203  15.177  1.00  0.00     0.178 HD
ENDBRANCH   7  15
BRANCH   1  18
HETATM   18  N1  UNL     1      -0.741   8.358  12.729  1.00  0.00    -0.227 N
HETATM   19  C1  UNL     1      -1.490   8.748  11.559  1.00  0.00     0.165 C
ATOM     20  H1  UNL     1       0.243   8.104  12.640  1.00  0.00     0.177 HD
ENDBRANCH   1  18
TORSDOF 3
ENDMDL