MODEL 3
REMARK VINA RESULT: -6.809258361      1.347      2.537
REMARK  2 active torsions:
REMARK  status: ('A' for Active; 'I' for Inactive)
REMARK       I    between atoms: C1_4  and  N3_6
REMARK    1  A    between atoms: N3_6  and  C2_8
REMARK    2  A    between atoms: N5_15  and  N6_16
ROOT
HETATM    1  C2  UNL     1      -1.690   8.966  11.044  1.00  0.00     0.704 A
HETATM    2  N4  UNL     1      -2.585   9.153  10.060  1.00  0.00    -0.150 N
ATOM      3  H4  UNL     1      -3.450   8.613  10.055  1.00  0.00     0.188 HD
HETATM    4  C3  UNL     1      -2.347  10.058   9.067  1.00  0.00     0.331 A
HETATM    5  O1  UNL     1      -3.184  10.242   8.137  1.00  0.00    -0.261 OA
HETATM    6  C4  UNL     1      -1.183  10.800   9.050  1.00  0.00     0.350 A
HETATM    7  O2  UNL     1      -0.969  11.632   8.131  1.00  0.00    -0.258 OA
HETATM    8  N5  UNL     1      -0.309  10.585  10.053  1.00  0.00    -0.144 N
HETATM    9  N7  UNL     1      -0.565   9.701  11.004  1.00  0.00    -0.107 N
ATOM     10  H7  UNL     1       0.125   9.570  11.743  1.00  0.00     0.208 HD
ENDROOT
BRANCH   1  11
HETATM   11  N3  UNL     1      -1.900   8.114  11.990  1.00  0.00    -0.162 N
HETATM   12  C1  UNL     1      -1.289   8.213  13.264  1.00  0.00     0.200 C
HETATM   13  N1  UNL     1      -1.656   9.071  14.139  1.00  0.00    -0.373 N
HETATM   14  N2  UNL     1      -0.233   7.304  13.543  1.00  0.00    -0.063 NA
ATOM     15  H12 UNL     1      -1.216   9.142  15.056  1.00  0.00     0.158 HD
ATOM     16  H11 UNL     1      -2.414   9.723  13.938  1.00  0.00     0.158 HD
ATOM     17  H3  UNL     1      -2.533   7.335  11.813  1.00  0.00     0.187 HD
ENDBRANCH   1  11
BRANCH   8  18
HETATM   18  N6  UNL     1       0.870  11.347  10.021  1.00  0.00    -0.320 N
ATOM     19  H62 UNL     1       1.788  10.954  10.228  1.00  0.00     0.179 HD
ATOM     20  H61 UNL     1       0.763  12.331   9.776  1.00  0.00     0.179 HD
ENDBRANCH   8  18
TORSDOF 2
ENDMDL