MODEL 1
REMARK VINA RESULT: -4.173504167      0.000      0.000
REMARK  2 active torsions:
REMARK  status: ('A' for Active; 'I' for Inactive)
REMARK    1  A    between atoms: C7_8  and  O2_9
REMARK    2  A    between atoms: C11_14  and  O3_15
ROOT
HETATM    1  C1  UNL     1      -0.093  16.974  -5.187  1.00  0.00     0.040 C
HETATM    2  C2  UNL     1       0.461  16.131  -6.321  1.00  0.00     0.128 C
HETATM    3  O1  UNL     1       1.819  16.423  -6.546  1.00  0.00    -0.368 OA
HETATM    4  C3  UNL     1       1.547  16.440  -7.887  1.00  0.00     0.126 C
HETATM    5  C4  UNL     1       1.943  17.764  -8.582  1.00  0.00     0.160 C
HETATM    6  C5  UNL     1       3.401  17.640  -8.623  1.00  0.00     0.045 C
HETATM    7  C6  UNL     1       3.620  16.131  -8.711  1.00  0.00     0.054 C
HETATM    8  C7  UNL     1       4.469  15.707  -9.836  1.00  0.00     0.125 C
HETATM    9  C8  UNL     1       4.149  14.232 -10.115  1.00  0.00     0.032 C
HETATM   10  C9  UNL     1       3.632  13.554  -8.859  1.00  0.00     0.006 C
HETATM   11  C10 UNL     1       2.286  14.094  -8.431  1.00  0.00     0.042 C
HETATM   12  C11 UNL     1       2.205  15.521  -8.787  1.00  0.00     0.098 C
HETATM   13  O4  UNL     1       1.353  18.640  -7.743  1.00  0.00    -0.382 OA
HETATM   14  C12 UNL     1       0.014  18.167  -7.757  1.00  0.00     0.178 C
HETATM   15  C13 UNL     1       0.136  16.634  -7.704  1.00  0.00     0.078 C
ENDROOT
BRANCH   8  16
HETATM   16  O2  UNL     1       4.273  16.474 -10.980  1.00  0.00    -0.395 OA
ATOM     17  H2  UNL     1       4.001  15.956 -11.730  1.00  0.00     0.210 HD
ENDBRANCH   8  16
BRANCH  12  18
HETATM   18  O3  UNL     1       1.783  15.750 -10.101  1.00  0.00    -0.386 OA
ATOM     19  H3  UNL     1       1.796  14.938 -10.593  1.00  0.00     0.210 HD
ENDBRANCH  12  18
TORSDOF 2
ENDMDL