MODEL 2
REMARK VINA RESULT: -3.913245895      1.999      4.100
REMARK  2 active torsions:
REMARK  status: ('A' for Active; 'I' for Inactive)
REMARK    1  A    between atoms: C2_2  and  O1_3
REMARK    2  A    between atoms: C9_12  and  O3_13
ROOT
HETATM    1  C1  UNL     1      -1.894  17.413  -8.283  1.00  0.00     0.079 C
HETATM    2  C2  UNL     1      -0.452  17.770  -8.529  1.00  0.00     0.165 C
HETATM    3  O2  UNL     1       0.202  17.002  -9.411  1.00  0.00    -0.349 OA
HETATM    4  C3  UNL     1       1.439  16.576  -9.205  1.00  0.00     0.136 C
HETATM    5  C4  UNL     1       2.347  17.260  -8.236  1.00  0.00     0.016 C
HETATM    6  C5  UNL     1       3.696  17.221  -8.860  1.00  0.00     0.007 C
HETATM    7  C6  UNL     1       3.811  15.730  -9.236  1.00  0.00     0.001 C
HETATM    8  C7  UNL     1       2.889  14.835  -8.441  1.00  0.00     0.010 C
HETATM    9  C8  UNL     1       1.404  15.152  -8.625  1.00  0.00     0.047 C
HETATM   10  C9  UNL     1       0.637  15.261  -7.369  1.00  0.00     0.162 C
HETATM   11  C10 UNL     1       0.510  16.504  -6.645  1.00  0.00     0.117 A
HETATM   12  C11 UNL     1       0.835  16.530  -5.146  1.00  0.00     0.210 A
HETATM   13  O4  UNL     1      -0.475  16.319  -5.541  1.00  0.00    -0.372 OA
HETATM   14  C12 UNL     1       0.365  17.813  -7.259  1.00  0.00     0.087 C
HETATM   15  C13 UNL     1       1.701  18.456  -7.739  1.00  0.00     0.020 C
ENDROOT
BRANCH   2  16
HETATM   16  O1  UNL     1      -0.465  19.097  -9.023  1.00  0.00    -0.365 OA
ATOM     17  H1  UNL     1       0.343  19.492  -8.718  1.00  0.00     0.213 HD
ENDBRANCH   2  16
BRANCH  10  18
HETATM   18  O3  UNL     1       1.173  14.283  -6.488  1.00  0.00    -0.392 OA
ATOM     19  H3  UNL     1       0.666  14.339  -5.687  1.00  0.00     0.210 HD
ENDBRANCH  10  18
TORSDOF 2
ENDMDL