MODEL 5
REMARK VINA RESULT: -3.755718476      7.696      9.530
REMARK  4 active torsions:
REMARK  status: ('A' for Active; 'I' for Inactive)
REMARK    1  A    between atoms: C5_6  and  O1_7
REMARK    2  A    between atoms: C5_6  and  C6_9
REMARK    3  A    between atoms: C7_10  and  C8_11
REMARK    4  A    between atoms: C8_11  and  O2_12
ROOT
HETATM    1  N1  UNL     1       2.955  13.640  -7.793  1.00  0.00    -0.197 NA
HETATM    2  C1  UNL     1       2.789  14.636  -8.369  1.00  0.00     0.064 C
HETATM    3  C2  UNL     1       2.563  15.890  -9.116  1.00  0.00     0.093 C
HETATM    4  C3  UNL     1       3.232  17.016  -8.409  1.00  0.00     0.023 C
HETATM    5  C4  UNL     1       2.242  18.144  -8.208  1.00  0.00     0.053 C
HETATM    6  C5  UNL     1       1.090  17.536  -7.397  1.00  0.00     0.121 C
HETATM    7  C12 UNL     1       0.303  16.688  -8.358  1.00  0.00     0.053 C
HETATM    8  C13 UNL     1       1.133  16.106  -9.449  1.00  0.00     0.023 C
ENDROOT
BRANCH   6   9
HETATM    9  O1  UNL     1       1.653  16.736  -6.387  1.00  0.00    -0.378 OA
ATOM     10  H1  UNL     1       2.474  16.389  -6.717  1.00  0.00     0.211 HD
ENDBRANCH   6   9
BRANCH   6  11
HETATM   11  C6  UNL     1       0.216  18.557  -6.861  1.00  0.00    -0.063 C
HETATM   12  C7  UNL     1      -0.529  19.409  -6.429  1.00  0.00    -0.035 C
BRANCH  12  13
HETATM   13  C8  UNL     1      -1.445  20.437  -5.926  1.00  0.00     0.230 C
HETATM   14  C9  UNL     1      -0.663  21.446  -5.104  1.00  0.00     0.085 C
HETATM   15  C10 UNL     1      -1.682  22.593  -5.081  1.00  0.00     0.033 C
HETATM   16  C11 UNL     1      -2.333  22.429  -6.419  1.00  0.00     0.172 C
HETATM   17  O3  UNL     1      -1.976  21.211  -6.932  1.00  0.00    -0.345 OA
BRANCH  13  18
HETATM   18  O2  UNL     1      -2.427  19.914  -5.105  1.00  0.00    -0.355 OA
ATOM     19  H2  UNL     1      -2.101  19.697  -4.240  1.00  0.00     0.214 HD
ENDBRANCH  13  18
ENDBRANCH  12  13
ENDBRANCH   6  11
TORSDOF 4
ENDMDL