MODEL 5
REMARK VINA RESULT: -3.498181548      1.670      2.626
REMARK  2 active torsions:
REMARK  status: ('A' for Active; 'I' for Inactive)
REMARK    1  A    between atoms: C4_4  and  O1_5
REMARK    2  A    between atoms: C11_14  and  O3_15
ROOT
HETATM    1  C1  UNL     1      -2.252  15.645  -8.168  1.00  0.00     0.039 C
HETATM    2  C2  UNL     1      -1.497  16.863  -7.666  1.00  0.00     0.120 C
HETATM    3  C3  UNL     1      -0.416  16.557  -6.714  1.00  0.00     0.070 C
HETATM    4  C4  UNL     1       0.984  16.395  -7.338  1.00  0.00     0.070 C
HETATM    5  C5  UNL     1       1.225  15.003  -7.658  1.00  0.00     0.071 C
HETATM    6  C6  UNL     1       2.018  14.546  -8.786  1.00  0.00     0.131 C
HETATM    7  O2  UNL     1       3.270  13.972  -8.422  1.00  0.00    -0.380 OA
HETATM    8  C7  UNL     1       3.652  14.243  -9.753  1.00  0.00     0.124 C
HETATM    9  C8  UNL     1       5.099  14.526  -9.954  1.00  0.00     0.040 C
HETATM   10  C9  UNL     1       2.758  15.486  -9.625  1.00  0.00     0.046 C
HETATM   11  C10 UNL     1       3.389  16.625  -8.905  1.00  0.00     0.042 C
HETATM   12  C11 UNL     1       2.395  17.734  -8.964  1.00  0.00     0.127 C
HETATM   13  C12 UNL     1       1.079  17.457  -8.367  1.00  0.00     0.073 C
HETATM   14  C13 UNL     1      -0.038  17.232  -9.360  1.00  0.00     0.178 C
HETATM   15  O4  UNL     1      -1.211  17.652  -8.742  1.00  0.00    -0.386 OA
ENDROOT
BRANCH   4  16
HETATM   16  O1  UNL     1       1.873  16.802  -6.330  1.00  0.00    -0.389 OA
ATOM     17  H1  UNL     1       2.390  16.028  -6.137  1.00  0.00     0.210 HD
ENDBRANCH   4  16
BRANCH  12  18
HETATM   18  O3  UNL     1       2.196  18.029 -10.336  1.00  0.00    -0.395 OA
ATOM     19  H3  UNL     1       1.360  17.650 -10.578  1.00  0.00     0.210 HD
ENDBRANCH  12  18
TORSDOF 2
ENDMDL