MODEL 5
REMARK VINA RESULT: -3.829771910      1.205      2.078
REMARK  2 active torsions:
REMARK  status: ('A' for Active; 'I' for Inactive)
REMARK    1  A    between atoms: C6_6  and  O1_7
REMARK    2  A    between atoms: C12_16  and  O4_17
ROOT
HETATM    1  C1  UNL     1       3.621  17.998  -7.703  1.00  0.00     0.016 C
HETATM    2  C2  UNL     1       2.400  17.348  -8.390  1.00  0.00    -0.031 C
HETATM    3  C3  UNL     1       1.208  18.136  -8.127  1.00  0.00     0.010 C
HETATM    4  C4  UNL     1       0.821  17.910  -6.657  1.00  0.00     0.003 C
HETATM    5  C5  UNL     1      -0.264  16.893  -6.634  1.00  0.00     0.034 C
HETATM    6  C6  UNL     1       0.199  15.483  -6.796  1.00  0.00     0.147 C
HETATM    7  C7  UNL     1       1.029  15.259  -8.031  1.00  0.00     0.158 C
HETATM    8  O2  UNL     1       0.281  15.589  -9.127  1.00  0.00    -0.350 OA
HETATM    9  C8  UNL     1       0.962  15.300 -10.276  1.00  0.00     0.289 C
HETATM   10  O3  UNL     1       1.741  14.180 -10.215  1.00  0.00    -0.358 OA
HETATM   11  C9  UNL     1       2.985  14.332  -9.694  1.00  0.00     0.176 C
HETATM   12  C10 UNL     1       3.298  15.599  -9.024  1.00  0.00     0.024 C
HETATM   13  C11 UNL     1       2.783  16.843  -9.705  1.00  0.00     0.034 C
HETATM   14  C12 UNL     1       1.747  16.535 -10.693  1.00  0.00     0.178 C
HETATM   15  C13 UNL     1       2.336  15.910  -7.894  1.00  0.00     0.032 C
ENDROOT
BRANCH   6  16
HETATM   16  O1  UNL     1       0.831  14.978  -5.662  1.00  0.00    -0.393 OA
ATOM     17  H1  UNL     1       1.144  14.088  -5.771  1.00  0.00     0.210 HD
ENDBRANCH   6  16
BRANCH  14  18
HETATM   18  O4  UNL     1       0.916  17.570 -11.060  1.00  0.00    -0.390 OA
ATOM     19  H4  UNL     1       0.004  17.371 -10.883  1.00  0.00     0.210 HD
ENDBRANCH  14  18
TORSDOF 2
ENDMDL