MODEL 2
REMARK VINA RESULT: -3.859472866      5.794      6.804
REMARK  2 active torsions:
REMARK  status: ('A' for Active; 'I' for Inactive)
REMARK    1  A    between atoms: O1_1  and  C1_3
REMARK    2  A    between atoms: C13_17  and  O4_18
ROOT
HETATM    1  C1  UNL     1       0.380  18.089  -1.562  1.00  0.00     0.149 C
HETATM    2  C2  UNL     1       0.085  19.481  -1.190  1.00  0.00     0.037 C
HETATM    3  C3  UNL     1       0.308  20.518  -2.229  1.00  0.00     0.040 C
HETATM    4  C4  UNL     1      -1.009  20.991  -2.869  1.00  0.00     0.061 C
HETATM    5  C5  UNL     1      -0.750  21.251  -4.306  1.00  0.00     0.038 C
HETATM    6  C6  UNL     1      -0.476  22.691  -4.641  1.00  0.00     0.003 C
HETATM    7  C7  UNL     1       0.237  23.422  -3.530  1.00  0.00     0.000 C
HETATM    8  C8  UNL     1      -0.524  23.378  -2.248  1.00  0.00     0.003 C
HETATM    9  C9  UNL     1      -1.494  22.257  -2.184  1.00  0.00     0.038 C
HETATM   10  O2  UNL     1      -1.907  20.012  -2.584  1.00  0.00    -0.378 OA
HETATM   11  C10 UNL     1      -3.071  19.987  -3.257  1.00  0.00     0.195 C
HETATM   12  C11 UNL     1      -3.142  18.623  -3.960  1.00  0.00     0.193 C
HETATM   13  O3  UNL     1      -1.848  18.140  -4.178  1.00  0.00    -0.386 OA
HETATM   14  C12 UNL     1      -1.369  17.372  -3.149  1.00  0.00     0.201 C
HETATM   15  C13 UNL     1       0.115  17.691  -2.965  1.00  0.00     0.170 C
ENDROOT
BRANCH   1  16
HETATM   16  O1  UNL     1       1.715  17.737  -1.260  1.00  0.00    -0.393 OA
ATOM     17  H1  UNL     1       2.207  17.512  -2.041  1.00  0.00     0.210 HD
ENDBRANCH   1  16
BRANCH  15  18
HETATM   18  O4  UNL     1       0.835  16.496  -3.206  1.00  0.00    -0.391 OA
ATOM     19  H4  UNL     1       0.198  15.808  -3.357  1.00  0.00     0.210 HD
ENDBRANCH  15  18
TORSDOF 2
ENDMDL