MODEL 4
REMARK VINA RESULT: -3.860272387      1.530      3.218
REMARK  1 active torsions:
REMARK  status: ('A' for Active; 'I' for Inactive)
REMARK    1  A    between atoms: N1_1  and  C1_5
ROOT
HETATM    1  C1  UNL     1       1.385  17.996  -9.483  1.00  0.00     0.193 C
HETATM    2  C2  UNL     1       1.822  18.422  -8.068  1.00  0.00     0.021 C
HETATM    3  C3  UNL     1       2.517  17.088  -7.734  1.00  0.00     0.022 C
HETATM    4  C4  UNL     1       1.296  16.181  -7.931  1.00  0.00     0.018 C
HETATM    5  C5  UNL     1       1.662  14.735  -8.092  1.00  0.00     0.136 C
HETATM    6  C6  UNL     1       0.467  14.001  -8.674  1.00  0.00     0.038 C
HETATM    7  C7  UNL     1      -0.087  13.165  -7.505  1.00  0.00     0.063 C
HETATM    8  C8  UNL     1       0.418  14.052  -6.358  1.00  0.00     0.260 C
HETATM    9  O1  UNL     1       1.749  14.218  -6.778  1.00  0.00    -0.355 OA
HETATM   10  O2  UNL     1      -0.288  15.273  -6.369  1.00  0.00    -0.355 OA
HETATM   11  C9  UNL     1       0.644  16.259  -6.561  1.00  0.00     0.136 C
HETATM   12  C10 UNL     1       0.269  17.644  -6.228  1.00  0.00     0.038 C
HETATM   13  C11 UNL     1       0.584  18.660  -7.301  1.00  0.00    -0.006 C
HETATM   14  C12 UNL     1      -0.677  18.683  -8.177  1.00  0.00     0.005 C
HETATM   15  C13 UNL     1      -0.814  17.304  -8.737  1.00  0.00     0.008 C
HETATM   16  C14 UNL     1       0.554  16.769  -9.057  1.00  0.00     0.030 C
ENDROOT
BRANCH   1  17
HETATM   17  N1  UNL     1       2.510  17.621 -10.288  1.00  0.00    -0.074 N
ATOM     18  H13 UNL     1       2.394  17.923 -11.255  1.00  0.00     0.274 HD
ATOM     19  H12 UNL     1       3.338  18.167 -10.051  1.00  0.00     0.274 HD
ATOM     20  H11 UNL     1       2.693  16.620 -10.229  1.00  0.00     0.274 HD
ENDBRANCH   1  17
TORSDOF 1
ENDMDL