MODEL 3
REMARK VINA RESULT: -3.794856349      2.621      3.797
REMARK  2 active torsions:
REMARK  status: ('A' for Active; 'I' for Inactive)
REMARK    1  A    between atoms: C8_8  and  O1_9
REMARK    2  A    between atoms: C13_16  and  O3_17
ROOT
HETATM    1  C1  UNL     1      -0.274  19.534  -6.559  1.00  0.00     0.019 C
HETATM    2  C2  UNL     1       0.110  18.410  -7.536  1.00  0.00    -0.003 A
HETATM    3  C3  UNL     1       0.641  18.786  -8.844  1.00  0.00     0.134 C
HETATM    4  C4  UNL     1       1.696  17.942  -9.460  1.00  0.00     0.033 C
HETATM    5  C5  UNL     1       2.434  17.023  -8.577  1.00  0.00     0.008 C
HETATM    6  C6  UNL     1       1.768  16.540  -7.351  1.00  0.00     0.002 C
HETATM    7  C7  UNL     1       1.553  15.015  -7.340  1.00  0.00     0.066 C
HETATM    8  C8  UNL     1       0.636  14.809  -6.126  1.00  0.00     0.257 C
HETATM    9  O2  UNL     1       0.889  15.724  -5.127  1.00  0.00    -0.361 OA
HETATM   10  C9  UNL     1       0.456  17.006  -5.391  1.00  0.00     0.182 C
HETATM   11  C10 UNL     1       0.517  17.167  -6.924  1.00  0.00    -0.000 A
HETATM   12  C11 UNL     1      -0.775  17.166  -7.556  1.00  0.00     0.013 A
HETATM   13  C12 UNL     1      -1.109  16.773  -8.951  1.00  0.00     0.067 C
HETATM   14  C13 UNL     1      -1.364  18.008  -9.748  1.00  0.00     0.257 C
HETATM   15  O4  UNL     1      -0.365  18.915  -9.836  1.00  0.00    -0.355 OA
ENDROOT
BRANCH   8  16
HETATM   16  O1  UNL     1       1.006  13.546  -5.610  1.00  0.00    -0.371 OA
ATOM     17  H1  UNL     1       1.887  13.672  -5.277  1.00  0.00     0.212 HD
ENDBRANCH   8  16
BRANCH  14  18
HETATM   18  O3  UNL     1      -1.788  17.707 -11.060  1.00  0.00    -0.371 OA
ATOM     19  H3  UNL     1      -2.663  18.035 -11.231  1.00  0.00     0.212 HD
ENDBRANCH  14  18
TORSDOF 2
ENDMDL