MODEL 5
REMARK VINA RESULT: -3.774778069      2.421      4.734
REMARK  2 active torsions:
REMARK  status: ('A' for Active; 'I' for Inactive)
REMARK    1  A    between atoms: C11_13  and  O3_14
REMARK    2  A    between atoms: C12_16  and  O4_17
ROOT
HETATM    1  C1  UNL     1       3.698  17.320  -8.625  1.00  0.00     0.046 C
HETATM    2  C2  UNL     1       2.555  16.996  -9.420  1.00  0.00     0.058 C
HETATM    3  C3  UNL     1       1.856  18.259  -9.470  1.00  0.00     0.038 C
HETATM    4  C4  UNL     1       1.344  18.361  -8.003  1.00  0.00     0.006 C
HETATM    5  C5  UNL     1       1.410  17.043  -7.220  1.00  0.00     0.041 C
HETATM    6  C6  UNL     1       1.423  15.802  -7.981  1.00  0.00     0.096 C
HETATM    7  O1  UNL     1       1.390  16.287  -9.247  1.00  0.00    -0.366 OA
HETATM    8  C7  UNL     1       2.505  14.838  -8.104  1.00  0.00     0.157 C
HETATM    9  C8  UNL     1       3.316  14.813  -9.393  1.00  0.00     0.038 C
HETATM   10  C9  UNL     1       3.087  16.020 -10.343  1.00  0.00     0.040 C
HETATM   11  O2  UNL     1       1.950  13.540  -8.018  1.00  0.00    -0.374 OA
HETATM   12  C10 UNL     1       0.614  13.635  -8.244  1.00  0.00     0.163 C
HETATM   13  C11 UNL     1      -0.159  13.034  -7.064  1.00  0.00     0.176 C
HETATM   14  C12 UNL     1      -0.043  14.419  -6.414  1.00  0.00     0.159 C
HETATM   15  C13 UNL     1       0.146  14.977  -7.793  1.00  0.00     0.086 C
ENDROOT
BRANCH  13  16
HETATM   16  O3  UNL     1      -1.459  12.698  -7.341  1.00  0.00    -0.390 OA
ATOM     17  H3  UNL     1      -1.955  13.369  -7.794  1.00  0.00     0.210 HD
ENDBRANCH  13  16
BRANCH  14  18
HETATM   18  O4  UNL     1       1.061  14.455  -5.583  1.00  0.00    -0.392 OA
ATOM     19  H4  UNL     1       1.588  15.220  -5.782  1.00  0.00     0.210 HD
ENDBRANCH  14  18
TORSDOF 2
ENDMDL