MODEL 1
REMARK VINA RESULT: -4.026607924      0.000      0.000
REMARK  3 active torsions:
REMARK  status: ('A' for Active; 'I' for Inactive)
REMARK    1  A    between atoms: O1_2  and  C2_3
REMARK    2  A    between atoms: C5_6  and  O2_7
REMARK    3  A    between atoms: C10_13  and  O3_14
ROOT
HETATM    1  C2  UNL     1       2.689  16.630  -9.071  1.00  0.00     0.171 C
HETATM    2  C3  UNL     1       2.541  15.137  -9.049  1.00  0.00     0.072 C
HETATM    3  C4  UNL     1       1.940  14.725  -7.745  1.00  0.00     0.044 C
HETATM    4  C5  UNL     1       1.334  15.970  -7.202  1.00  0.00     0.068 C
HETATM    5  C6  UNL     1       0.174  16.506  -8.036  1.00  0.00     0.051 C
HETATM    6  C7  UNL     1       0.929  17.809  -8.115  1.00  0.00     0.000 C
HETATM    7  C8  UNL     1       0.419  18.905  -7.278  1.00  0.00     0.015 C
HETATM    8  C9  UNL     1      -0.896  19.344  -7.905  1.00  0.00     0.032 C
HETATM    9  C10 UNL     1      -0.770  19.689  -9.350  1.00  0.00     0.120 C
HETATM   10  C11 UNL     1      -0.011  18.696 -10.171  1.00  0.00     0.064 C
HETATM   11  C12 UNL     1       1.255  18.284  -9.508  1.00  0.00     0.137 C
HETATM   12  O4  UNL     1       1.878  17.198 -10.049  1.00  0.00    -0.348 OA
HETATM   13  C13 UNL     1       2.163  17.085  -7.729  1.00  0.00     0.093 C
ENDROOT
BRANCH   1  14
HETATM   14  O1  UNL     1       4.015  16.962  -9.201  1.00  0.00    -0.359 OA
HETATM   15  C1  UNL     1       4.743  16.115  -9.994  1.00  0.00     0.205 C
ENDBRANCH   1  14
BRANCH   4  16
HETATM   16  O2  UNL     1       1.110  16.003  -5.833  1.00  0.00    -0.389 OA
ATOM     17  H2  UNL     1       0.202  16.033  -5.553  1.00  0.00     0.210 HD
ENDBRANCH   4  16
BRANCH   9  18
HETATM   18  O3  UNL     1      -2.074  19.769  -9.875  1.00  0.00    -0.395 OA
ATOM     19  H3  UNL     1      -2.676  19.579  -9.164  1.00  0.00     0.210 HD
ENDBRANCH   9  18
TORSDOF 3
ENDMDL