MODEL 5
REMARK VINA RESULT: -7.111343135      1.364      1.850
REMARK  2 active torsions:
REMARK  status: ('A' for Active; 'I' for Inactive)
REMARK    1  A    between atoms: C10_11  and  O1_12
REMARK    2  A    between atoms: C14_17  and  O2_18
ROOT
HETATM    1  C1  UNL     1       1.809  22.948  -0.669  1.00  0.00     0.017 C
HETATM    2  C2  UNL     1       1.082  21.858  -0.782  1.00  0.00    -0.058 C
HETATM    3  C3  UNL     1       0.145  21.731  -1.922  1.00  0.00     0.036 C
HETATM    4  C4  UNL     1       0.005  20.314  -2.409  1.00  0.00     0.011 C
HETATM    5  C5  UNL     1       0.168  19.291  -1.317  1.00  0.00     0.011 C
HETATM    6  C6  UNL     1      -0.818  19.629  -0.201  1.00  0.00     0.128 C
HETATM    7  N1  UNL     1      -0.094  20.456   0.693  1.00  0.00    -0.377 N
HETATM    8  C7  UNL     1      -0.350  20.354   2.049  1.00  0.00     0.059 C
HETATM    9  C8  UNL     1       0.174  19.144   2.766  1.00  0.00     0.047 C
HETATM   10  C9  UNL     1       1.662  19.138   2.882  1.00  0.00     0.045 C
HETATM   11  C10 UNL     1       2.384  19.330   1.583  1.00  0.00     0.087 C
HETATM   12  C11 UNL     1       1.788  18.534   0.451  1.00  0.00     0.048 C
HETATM   13  C12 UNL     1       1.480  19.505  -0.647  1.00  0.00     0.029 C
HETATM   14  C13 UNL     1       1.176  20.770   0.188  1.00  0.00     0.087 C
HETATM   15  C14 UNL     1       2.324  20.763   1.100  1.00  0.00     0.185 C
ENDROOT
BRANCH  11  16
HETATM   16  O1  UNL     1       3.723  19.000   1.793  1.00  0.00    -0.387 OA
ATOM     17  H1  UNL     1       4.193  19.180   0.987  1.00  0.00     0.210 HD
ENDBRANCH  11  16
BRANCH  15  18
HETATM   18  O2  UNL     1       2.325  21.676   2.131  1.00  0.00    -0.390 OA
ATOM     19  H2  UNL     1       2.466  22.568   1.836  1.00  0.00     0.210 HD
ENDBRANCH  15  18
TORSDOF 2
ENDMDL