MODEL 4
REMARK VINA RESULT: -6.736980586      1.765      4.235
REMARK  2 active torsions:
REMARK  status: ('A' for Active; 'I' for Inactive)
REMARK    1  A    between atoms: O1_1  and  C1_3
REMARK    2  A    between atoms: C6_9  and  O2_10
ROOT
HETATM    1  C1  UNL     1      -2.747  16.390  -5.133  1.00  0.00     0.070 C
HETATM    2  C2  UNL     1      -3.064  15.136  -4.384  1.00  0.00     0.111 C
HETATM    3  S1  UNL     1      -2.960  15.336  -2.589  1.00  0.00    -0.165 SA
HETATM    4  C3  UNL     1      -3.085  17.084  -2.207  1.00  0.00     0.089 C
HETATM    5  C4  UNL     1      -2.510  17.950  -3.337  1.00  0.00     0.033 C
HETATM    6  C5  UNL     1      -3.375  17.623  -4.560  1.00  0.00     0.055 C
HETATM    7  C6  UNL     1      -1.164  17.467  -3.695  1.00  0.00     0.074 C
HETATM    8  C7  UNL     1      -0.121  18.500  -3.900  1.00  0.00     0.065 C
HETATM    9  C8  UNL     1      -0.359  19.640  -2.933  1.00  0.00     0.171 C
HETATM   10  O3  UNL     1      -1.598  20.187  -3.272  1.00  0.00    -0.379 OA
HETATM   11  C9  UNL     1      -2.625  19.361  -2.908  1.00  0.00     0.072 A
HETATM   12  C10 UNL     1      -3.990  19.993  -2.922  1.00  0.00     0.042 A
HETATM   13  C11 UNL     1      -3.292  19.715  -1.601  1.00  0.00     0.042 A
HETATM   14  C12 UNL     1      -1.276  16.670  -4.990  1.00  0.00     0.077 C
ENDROOT
BRANCH   1  15
HETATM   15  O1  UNL     1      -3.059  16.190  -6.472  1.00  0.00    -0.389 OA
ATOM     16  H1  UNL     1      -3.148  17.039  -6.889  1.00  0.00     0.210 HD
ENDBRANCH   1  15
BRANCH   7  17
HETATM   17  O2  UNL     1      -0.676  16.553  -2.736  1.00  0.00    -0.389 OA
ATOM     18  H2  UNL     1      -0.026  15.972  -3.113  1.00  0.00     0.210 HD
ENDBRANCH   7  17
TORSDOF 2
ENDMDL