MODEL 1
REMARK VINA RESULT: -7.035031793      0.000      0.000
REMARK  2 active torsions:
REMARK  status: ('A' for Active; 'I' for Inactive)
REMARK    1  A    between atoms: C4_5  and  O2_6
REMARK    2  A    between atoms: C13_17  and  O4_18
ROOT
HETATM    1  C1  UNL     1      -1.932  20.516  -0.188  1.00  0.00     0.015 C
HETATM    2  C2  UNL     1      -0.525  20.894   0.255  1.00  0.00     0.034 C
HETATM    3  C3  UNL     1      -0.434  20.706   1.741  1.00  0.00     0.178 C
HETATM    4  O1  UNL     1      -0.292  19.337   1.981  1.00  0.00    -0.354 OA
HETATM    5  C4  UNL     1       0.661  19.191   2.969  1.00  0.00     0.168 C
HETATM    6  C5  UNL     1       0.362  17.963   3.784  1.00  0.00     0.101 C
HETATM    7  C6  UNL     1       1.575  17.081   3.737  1.00  0.00     0.131 C
HETATM    8  O3  UNL     1       1.540  16.148   2.709  1.00  0.00    -0.385 OA
HETATM    9  C7  UNL     1       2.876  15.849   2.396  1.00  0.00     0.168 C
HETATM   10  C8  UNL     1       3.671  17.099   2.689  1.00  0.00     0.034 C
HETATM   11  C9  UNL     1       2.669  18.014   3.272  1.00  0.00     0.026 C
HETATM   12  C10 UNL     1       2.049  19.001   2.387  1.00  0.00     0.055 C
HETATM   13  C11 UNL     1       1.961  18.673   0.947  1.00  0.00     0.013 C
HETATM   14  C12 UNL     1       1.817  19.987   0.174  1.00  0.00     0.033 C
HETATM   15  C13 UNL     1       0.497  20.098  -0.512  1.00  0.00     0.124 C
ENDROOT
BRANCH   5  16
HETATM   16  O2  UNL     1       0.678  20.277   3.862  1.00  0.00    -0.365 OA
ATOM     17  H2  UNL     1      -0.044  20.249   4.479  1.00  0.00     0.213 HD
ENDBRANCH   5  16
BRANCH  15  18
HETATM   18  O4  UNL     1      -0.052  18.872  -0.867  1.00  0.00    -0.395 OA
ATOM     19  H4  UNL     1       0.236  18.642  -1.742  1.00  0.00     0.210 HD
ENDBRANCH  15  18
TORSDOF 2
ENDMDL