MODEL 5
REMARK VINA RESULT: -7.236093921      0.980      1.016
REMARK  2 active torsions:
REMARK  status: ('A' for Active; 'I' for Inactive)
REMARK    1  A    between atoms: C11_13  and  O2_14
REMARK    2  A    between atoms: C13_17  and  O3_18
ROOT
HETATM    1  C1  UNL     1      -3.004  16.897  -3.664  1.00  0.00     0.017 C
HETATM    2  C2  UNL     1      -2.709  17.450  -2.491  1.00  0.00    -0.057 C
HETATM    3  C3  UNL     1      -1.440  17.010  -1.861  1.00  0.00     0.036 C
HETATM    4  C4  UNL     1      -0.202  17.554  -2.529  1.00  0.00     0.005 C
HETATM    5  C5  UNL     1       0.560  18.584  -1.785  1.00  0.00     0.007 C
HETATM    6  C6  UNL     1       0.287  20.035  -2.239  1.00  0.00     0.024 C
HETATM    7  C7  UNL     1       0.805  20.899  -1.083  1.00  0.00     0.008 C
HETATM    8  C8  UNL     1       0.051  20.627   0.168  1.00  0.00     0.031 C
HETATM    9  C9  UNL     1      -1.396  20.292  -0.011  1.00  0.00     0.277 C
HETATM   10  N1  UNL     1      -1.726  19.560  -1.173  1.00  0.00     0.130 N
HETATM   11  C10 UNL     1      -3.111  19.732  -1.485  1.00  0.00     0.395 C
HETATM   12  O1  UNL     1      -3.206  20.813  -2.352  1.00  0.00    -0.322 OA
HETATM   13  C11 UNL     1      -1.905  21.400  -2.415  1.00  0.00     0.293 C
HETATM   14  C12 UNL     1      -1.137  20.136  -2.394  1.00  0.00     0.285 C
HETATM   15  C13 UNL     1      -3.650  18.437  -1.927  1.00  0.00     0.205 C
ENDROOT
BRANCH  13  16
HETATM   16  O2  UNL     1      -1.831  21.960  -3.707  1.00  0.00    -0.369 OA
ATOM     17  H2  UNL     1      -1.182  21.434  -4.159  1.00  0.00     0.212 HD
ENDBRANCH  13  16
BRANCH  15  18
HETATM   18  O3  UNL     1      -4.708  18.660  -2.789  1.00  0.00    -0.387 OA
ATOM     19  H3  UNL     1      -5.106  19.508  -2.628  1.00  0.00     0.210 HD
ENDBRANCH  15  18
TORSDOF 2
ENDMDL