MODEL 5
REMARK VINA RESULT: -7.497253247      1.691      3.230
REMARK  1 active torsions:
REMARK  status: ('A' for Active; 'I' for Inactive)
REMARK    1  A    between atoms: C14_16  and  O3_17
ROOT
HETATM    1  C1  UNL     1      -1.309  18.229   0.756  1.00  0.00     0.018 C
HETATM    2  C2  UNL     1      -1.631  18.722  -0.662  1.00  0.00    -0.011 C
HETATM    3  C3  UNL     1      -2.252  20.089  -0.576  1.00  0.00     0.050 C
HETATM    4  C4  UNL     1      -1.788  20.784  -1.804  1.00  0.00     0.070 A
HETATM    5  C5  UNL     1      -0.904  21.954  -1.460  1.00  0.00     0.043 A
HETATM    6  C6  UNL     1       0.288  21.237  -1.980  1.00  0.00    -0.004 A
HETATM    7  C7  UNL     1       1.285  20.704  -1.029  1.00  0.00     0.005 C
HETATM    8  C8  UNL     1       0.674  19.465  -0.411  1.00  0.00     0.006 C
HETATM    9  C9  UNL     1      -0.371  18.964  -1.399  1.00  0.00     0.003 C
HETATM   10  C10 UNL     1      -0.575  20.076  -2.339  1.00  0.00     0.029 A
HETATM   11  O1  UNL     1      -2.715  20.947  -2.779  1.00  0.00    -0.347 OA
HETATM   12  C11 UNL     1      -3.925  20.378  -2.585  1.00  0.00     0.290 A
HETATM   13  O2  UNL     1      -4.378  19.762  -3.863  1.00  0.00    -0.348 OA
HETATM   14  C12 UNL     1      -4.178  19.021  -2.733  1.00  0.00     0.182 A
HETATM   15  C13 UNL     1      -3.046  18.025  -2.636  1.00  0.00     0.069 C
HETATM   16  C14 UNL     1      -2.582  17.767  -1.246  1.00  0.00     0.129 C
ENDROOT
BRANCH  16  17
HETATM   17  O3  UNL     1      -2.082  16.456  -1.120  1.00  0.00    -0.395 OA
ATOM     18  H3  UNL     1      -2.779  15.828  -1.273  1.00  0.00     0.210 HD
ENDBRANCH  16  17
TORSDOF 1
ENDMDL