MODEL 1
REMARK VINA RESULT: -6.157291781      0.000      0.000
REMARK  5 active torsions:
REMARK  status: ('A' for Active; 'I' for Inactive)
REMARK    1  A    between atoms: C2_2  and  N1_4
REMARK    2  A    between atoms: C3_6  and  C4_7
REMARK    3  A    between atoms: C3_6  and  N3_14
REMARK    4  A    between atoms: C4_7  and  O1_8
REMARK    5  A    between atoms: N2_10  and  O2_12
ROOT
HETATM    1  N1  UNL     1       2.526  17.811   4.894  1.00  0.00    -0.334 N
ATOM      2  H1  UNL     1       2.720  18.670   5.410  1.00  0.00     0.168 HD
HETATM    3  C3  UNL     1       2.889  17.837   3.667  1.00  0.00     0.158 C
ENDROOT
BRANCH   3   4
HETATM    4  C4  UNL     1       3.514  19.087   3.224  1.00  0.00     0.205 C
HETATM    5  N2  UNL     1       2.904  20.197   3.219  1.00  0.00    -0.244 N
ATOM      6  H2  UNL     1       3.458  20.987   2.888  1.00  0.00     0.196 HD
BRANCH   4   7
HETATM    7  O1  UNL     1       4.866  19.019   2.786  1.00  0.00    -0.342 OA
ATOM      8  H1  UNL     1       5.021  19.039   1.849  1.00  0.00     0.219 HD
ENDBRANCH   4   7
BRANCH   5   9
HETATM    9  O2  UNL     1       1.655  20.501   3.578  1.00  0.00    -0.288 OA
ATOM     10  H2  UNL     1       1.327  20.965   4.339  1.00  0.00     0.244 HD
ENDBRANCH   5   9
ENDBRANCH   3   4
BRANCH   3  11
HETATM   11  N3  UNL     1       2.689  16.718   2.807  1.00  0.00    -0.362 N
HETATM   12  C5  UNL     1       1.455  16.654   2.082  1.00  0.00     0.134 C
HETATM   13  C6  UNL     1       1.447  15.726   0.897  1.00  0.00     0.093 C
HETATM   14  S2  UNL     1       1.935  14.072   1.452  1.00  0.00    -0.166 SA
HETATM   15  C7  UNL     1       3.200  14.306   2.727  1.00  0.00     0.093 C
HETATM   16  C8  UNL     1       3.733  15.722   2.730  1.00  0.00     0.134 C
ENDBRANCH   3  11
BRANCH   1  17
HETATM   17  C2  UNL     1       1.918  16.821   5.640  1.00  0.00     0.075 C
HETATM   18  C1  UNL     1       2.755  15.883   6.477  1.00  0.00     0.081 C
HETATM   19  S1  UNL     1       0.284  16.575   5.669  1.00  0.00    -0.066 SA
ENDBRANCH   1  17
TORSDOF 5
ENDMDL