MODEL 2
REMARK VINA RESULT: -7.280416215      5.847      7.873
REMARK  2 active torsions:
REMARK  status: ('A' for Active; 'I' for Inactive)
REMARK    1  A    between atoms: O1_1  and  C1_3
REMARK    2  A    between atoms: C13_17  and  O4_18
ROOT
HETATM    1  C1  UNL     1      -2.505  20.281  -2.842  1.00  0.00     0.178 C
HETATM    2  C2  UNL     1      -1.512  19.739  -1.867  1.00  0.00     0.154 C
HETATM    3  C3  UNL     1      -0.108  19.618  -2.343  1.00  0.00     0.035 C
HETATM    4  C4  UNL     1       0.515  18.286  -1.899  1.00  0.00     0.006 C
HETATM    5  C5  UNL     1      -0.314  17.094  -2.335  1.00  0.00     0.041 C
HETATM    6  C6  UNL     1      -1.713  17.476  -2.397  1.00  0.00     0.093 C
HETATM    7  O2  UNL     1      -1.955  18.494  -1.472  1.00  0.00    -0.369 OA
HETATM    8  C7  UNL     1      -2.756  16.458  -1.984  1.00  0.00     0.157 C
HETATM    9  C8  UNL     1      -2.692  15.183  -2.725  1.00  0.00     0.035 C
HETATM   10  C9  UNL     1      -3.035  15.422  -4.190  1.00  0.00     0.003 C
HETATM   11  C10 UNL     1      -2.215  16.580  -4.647  1.00  0.00     0.010 C
HETATM   12  C11 UNL     1      -2.266  17.785  -3.768  1.00  0.00     0.054 C
HETATM   13  C12 UNL     1      -3.692  18.072  -3.275  1.00  0.00     0.160 C
HETATM   14  O3  UNL     1      -3.933  17.177  -2.266  1.00  0.00    -0.374 OA
HETATM   15  C13 UNL     1      -3.775  19.498  -2.939  1.00  0.00     0.178 C
ENDROOT
BRANCH   1  16
HETATM   16  O1  UNL     1      -2.926  21.534  -2.315  1.00  0.00    -0.390 OA
ATOM     17  H1  UNL     1      -3.232  22.040  -3.058  1.00  0.00     0.210 HD
ENDBRANCH   1  16
BRANCH  15  18
HETATM   18  O4  UNL     1      -4.541  20.124  -3.955  1.00  0.00    -0.390 OA
ATOM     19  H4  UNL     1      -5.235  20.593  -3.507  1.00  0.00     0.210 HD
ENDBRANCH  15  18
TORSDOF 2
ENDMDL