MODEL 4
REMARK VINA RESULT: -6.527946731      1.950      2.868
REMARK  4 active torsions:
REMARK  status: ('A' for Active; 'I' for Inactive)
REMARK    1  A    between atoms: C4_4  and  C12_17
REMARK    2  A    between atoms: C6_7  and  O2_8
REMARK    3  A    between atoms: C9_12  and  C10_13
REMARK    4  A    between atoms: C10_13  and  O3_14
ROOT
HETATM    1  C1  UNL     1       0.872  18.074   3.873  1.00  0.00     0.018 C
HETATM    2  C2  UNL     1       1.238  19.087   2.799  1.00  0.00    -0.004 C
HETATM    3  C3  UNL     1       0.512  20.351   3.091  1.00  0.00     0.044 C
HETATM    4  C4  UNL     1       1.383  21.355   2.390  1.00  0.00     0.129 C
HETATM    5  O1  UNL     1       2.664  20.783   2.334  1.00  0.00    -0.377 OA
HETATM    6  C5  UNL     1       2.653  19.611   3.021  1.00  0.00     0.159 C
HETATM    7  C6  UNL     1       3.655  18.603   2.682  1.00  0.00     0.148 C
HETATM    8  C7  UNL     1       3.464  17.879   1.403  1.00  0.00     0.035 C
HETATM    9  C8  UNL     1       2.082  17.526   1.038  1.00  0.00     0.013 C
HETATM   10  C9  UNL     1       1.012  18.497   1.465  1.00  0.00     0.059 C
ENDROOT
BRANCH   7  11
HETATM   11  O2  UNL     1       4.935  19.191   2.678  1.00  0.00    -0.393 OA
ATOM     12  H2  UNL     1       5.548  18.624   3.131  1.00  0.00     0.210 HD
ENDBRANCH   7  11
BRANCH  10  13
HETATM   13  C10 UNL     1       0.658  19.436   0.360  1.00  0.00     0.166 C
HETATM   14  C11 UNL     1      -0.372  20.455   0.649  1.00  0.00     0.078 C
HETATM   15  C12 UNL     1      -1.635  19.720   0.171  1.00  0.00     0.044 C
HETATM   16  C13 UNL     1      -1.050  19.024  -1.052  1.00  0.00     0.178 C
HETATM   17  O4  UNL     1       0.276  18.804  -0.817  1.00  0.00    -0.354 OA
BRANCH  13  18
HETATM   18  O3  UNL     1       1.849  20.123   0.018  1.00  0.00    -0.365 OA
ATOM     19  H3  UNL     1       2.191  19.701  -0.762  1.00  0.00     0.213 HD
ENDBRANCH  13  18
ENDBRANCH  10  13
TORSDOF 4
ENDMDL