MODEL 2
REMARK VINA RESULT: -6.843655627      7.275      9.402
REMARK  2 active torsions:
REMARK  status: ('A' for Active; 'I' for Inactive)
REMARK    1  A    between atoms: C9_11  and  O1_12
REMARK    2  A    between atoms: C12_16  and  O2_17
ROOT
HETATM    1  C1  UNL     1       3.848  19.797   2.696  1.00  0.00     0.150 C
HETATM    2  N1  UNL     1       2.624  19.148   3.154  1.00  0.00    -0.384 N
HETATM    3  C2  UNL     1       1.467  19.881   2.935  1.00  0.00     0.059 C
HETATM    4  C3  UNL     1       0.226  19.230   2.513  1.00  0.00     0.053 C
HETATM    5  C4  UNL     1      -0.056  17.858   2.951  1.00  0.00     0.034 C
HETATM    6  C5  UNL     1       0.212  16.898   1.776  1.00  0.00     0.084 C
HETATM    7  S1  UNL     1       1.946  17.292   1.300  1.00  0.00    -0.143 SA
HETATM    8  C6  UNL     1       2.697  17.782   2.906  1.00  0.00     0.151 C
HETATM    9  C7  UNL     1       2.054  16.902   3.938  1.00  0.00     0.056 C
HETATM   10  C8  UNL     1       2.762  16.862   5.251  1.00  0.00     0.042 C
HETATM   11  C9  UNL     1       1.960  16.499   6.421  1.00  0.00     0.118 C
HETATM   12  C10 UNL     1       0.534  16.205   6.269  1.00  0.00     0.034 C
HETATM   13  C11 UNL     1      -0.034  16.244   4.879  1.00  0.00     0.041 C
HETATM   14  C12 UNL     1       0.658  17.403   4.171  1.00  0.00     0.069 C
ENDROOT
BRANCH  11  15
HETATM   15  O1  UNL     1       2.576  15.395   7.067  1.00  0.00    -0.396 OA
ATOM     16  H1  UNL     1       2.021  14.631   6.955  1.00  0.00     0.210 HD
ENDBRANCH  11  15
BRANCH  14  17
HETATM   17  O2  UNL     1       0.637  18.465   5.103  1.00  0.00    -0.389 OA
ATOM     18  H2  UNL     1       1.521  18.804   5.176  1.00  0.00     0.210 HD
ENDBRANCH  14  17
TORSDOF 2
ENDMDL