MODEL 4
REMARK VINA RESULT: -7.357946650      5.663      7.276
REMARK  2 active torsions:
REMARK  status: ('A' for Active; 'I' for Inactive)
REMARK    1  A    between atoms: C3_3  and  C4_5
REMARK    2  A    between atoms: C4_5  and  O1_6
ROOT
HETATM    1  C4  UNL     1      -2.862  17.463  -3.877  1.00  0.00     0.206 C
HETATM    2  C5  UNL     1      -1.477  17.961  -4.020  1.00  0.00     0.075 C
HETATM    3  C6  UNL     1      -0.712  18.219  -2.783  1.00  0.00     0.011 C
HETATM    4  C7  UNL     1      -0.637  19.594  -2.276  1.00  0.00    -0.003 C
HETATM    5  C8  UNL     1      -1.327  19.691  -0.916  1.00  0.00    -0.004 C
HETATM    6  C9  UNL     1      -1.629  21.143  -1.305  1.00  0.00     0.013 C
HETATM    7  C10 UNL     1      -1.565  20.630  -2.756  1.00  0.00     0.025 C
HETATM    8  C11 UNL     1      -2.939  20.201  -3.101  1.00  0.00     0.192 A
HETATM    9  O2  UNL     1      -4.037  20.304  -2.310  1.00  0.00    -0.341 OA
HETATM   10  C12 UNL     1      -3.328  19.107  -2.263  1.00  0.00     0.195 A
HETATM   11  C13 UNL     1      -2.623  18.942  -0.956  1.00  0.00     0.076 C
HETATM   12  O3  UNL     1      -3.664  18.001  -2.924  1.00  0.00    -0.311 OA
ENDROOT
BRANCH   1  13
HETATM   13  C3  UNL     1      -2.942  15.980  -3.673  1.00  0.00     0.081 C
HETATM   14  C2  UNL     1      -3.285  15.375  -2.580  1.00  0.00    -0.003 C
HETATM   15  C1  UNL     1      -3.334  13.896  -2.483  1.00  0.00     0.038 C
HETATM   16  N1  UNL     1      -2.607  15.188  -4.803  1.00  0.00    -0.102 NA
ENDBRANCH   1  13
BRANCH   1  17
HETATM   17  O1  UNL     1      -3.472  17.642  -5.150  1.00  0.00    -0.361 OA
ATOM     18  H1  UNL     1      -4.163  18.268  -4.967  1.00  0.00     0.213 HD
ENDBRANCH   1  17
TORSDOF 2
ENDMDL