MODEL 5
REMARK VINA RESULT: -5.788512088      2.085      4.050
REMARK  10 active torsions:
REMARK  status: ('A' for Active; 'I' for Inactive)
REMARK    1  A    between atoms: O1_1  and  C1_3
REMARK    2  A    between atoms: C4_8  and  S1_9
REMARK    3  A    between atoms: S1_9  and  C5_10
REMARK    4  A    between atoms: C5_10  and  C6_11
REMARK    5  A    between atoms: C6_11  and  C7_12
REMARK    6  A    between atoms: C7_12  and  N1_13
REMARK    7  A    between atoms: C13_19  and  O4_20
REMARK    8  A    between atoms: C14_22  and  O5_23
REMARK    9  A    between atoms: C15_25  and  O6_26
REMARK   10  A    between atoms: C16_28  and  O7_29
ROOT
HETATM    1  C1  UNL     1       3.762  19.275   2.007  1.00  0.00     0.176 C
HETATM    2  C2  UNL     1       3.222  17.968   1.478  1.00  0.00     0.206 C
HETATM    3  O2  UNL     1       1.887  18.044   1.869  1.00  0.00    -0.348 OA
HETATM    4  C3  UNL     1       1.926  18.391   3.227  1.00  0.00     0.223 C
HETATM    5  O3  UNL     1       0.752  19.064   3.502  1.00  0.00    -0.332 OA
HETATM    6  C4  UNL     1      -0.319  18.225   3.798  1.00  0.00     0.218 C
HETATM    7  C13 UNL     1      -0.047  17.551   5.114  1.00  0.00     0.188 C
HETATM    8  C14 UNL     1       1.300  16.899   5.183  1.00  0.00     0.184 C
HETATM    9  C15 UNL     1       2.196  17.180   4.036  1.00  0.00     0.214 C
HETATM   10  C16 UNL     1       3.054  19.417   3.323  1.00  0.00     0.214 C
ENDROOT
BRANCH   6  11
HETATM   11  S1  UNL     1      -0.611  16.996   2.534  1.00  0.00    -0.135 SA
BRANCH  11  12
HETATM   12  C5  UNL     1      -1.494  17.572   1.098  1.00  0.00     0.078 C
BRANCH  12  13
HETATM   13  C6  UNL     1      -1.885  19.042   1.155  1.00  0.00     0.040 C
BRANCH  13  14
HETATM   14  C7  UNL     1      -1.381  19.698  -0.111  1.00  0.00     0.273 C
BRANCH  14  15
HETATM   15  N1  UNL     1       0.080  19.676  -0.059  1.00  0.00     0.088 N
HETATM   16  C8  UNL     1       0.618  19.425  -1.389  1.00  0.00     0.272 C
HETATM   17  C9  UNL     1       0.261  20.484  -2.370  1.00  0.00     0.030 C
HETATM   18  C10 UNL     1       0.627  21.847  -1.829  1.00  0.00     0.003 C
HETATM   19  C11 UNL     1       1.455  21.642  -0.575  1.00  0.00     0.030 C
HETATM   20  C12 UNL     1       0.576  20.957   0.444  1.00  0.00     0.272 C
ENDBRANCH  14  15
ENDBRANCH  13  14
ENDBRANCH  12  13
ENDBRANCH  11  12
ENDBRANCH   6  11
BRANCH   7  21
HETATM   21  O4  UNL     1      -1.098  16.674   5.365  1.00  0.00    -0.389 OA
ATOM     22  H4  UNL     1      -1.872  17.196   5.545  1.00  0.00     0.210 HD
ENDBRANCH   7  21
BRANCH   8  23
HETATM   23  O5  UNL     1       1.902  17.200   6.404  1.00  0.00    -0.390 OA
ATOM     24  H5  UNL     1       2.151  18.117   6.417  1.00  0.00     0.210 HD
ENDBRANCH   8  23
BRANCH   9  25
HETATM   25  O6  UNL     1       3.520  17.262   4.521  1.00  0.00    -0.387 OA
ATOM     26  H6  UNL     1       3.536  16.901   5.400  1.00  0.00     0.210 HD
ENDBRANCH   9  25
BRANCH  10  27
HETATM   27  O7  UNL     1       2.528  20.712   3.399  1.00  0.00    -0.387 OA
ATOM     28  H7  UNL     1       2.082  20.802   4.233  1.00  0.00     0.210 HD
ENDBRANCH  10  27
BRANCH   1  29
HETATM   29  O1  UNL     1       5.140  19.203   2.213  1.00  0.00    -0.391 OA
ATOM     30  H1  UNL     1       5.559  20.033   2.018  1.00  0.00     0.210 HD
ENDBRANCH   1  29
TORSDOF 10
ENDMDL