MODEL 1
REMARK VINA RESULT: -6.238392897      0.000      0.000
REMARK  9 active torsions:
REMARK  status: ('A' for Active; 'I' for Inactive)
REMARK    1  A    between atoms: C2_2  and  C3_3
REMARK    2  A    between atoms: C3_3  and  O1_4
REMARK    3  A    between atoms: O1_4  and  C4_5
REMARK    4  A    between atoms: C7_9  and  O3_10
REMARK    5  A    between atoms: O3_10  and  C8_11
REMARK    6  A    between atoms: C14_19  and  O6_20
REMARK    7  A    between atoms: C15_22  and  O7_23
REMARK    8  A    between atoms: C16_25  and  O8_26
REMARK    9  A    between atoms: C17_28  and  O9_29
ROOT
HETATM    1  C4  UNL     1       2.851  18.098   3.450  1.00  0.00     0.291 C
HETATM    2  O2  UNL     1       2.077  18.110   2.293  1.00  0.00    -0.351 OA
HETATM    3  C5  UNL     1       1.445  19.326   2.133  1.00  0.00     0.152 C
HETATM    4  C6  UNL     1       1.269  19.601   0.656  1.00  0.00     0.042 C
HETATM    5  C7  UNL     1       2.114  20.464   2.822  1.00  0.00     0.184 C
HETATM    6  C16 UNL     1       3.621  20.331   2.889  1.00  0.00     0.183 C
HETATM    7  C17 UNL     1       4.082  18.938   3.163  1.00  0.00     0.204 C
ENDROOT
BRANCH   5   8
HETATM    8  O3  UNL     1       1.870  21.622   2.056  1.00  0.00    -0.348 OA
BRANCH   8   9
HETATM    9  C8  UNL     1       1.087  22.539   2.755  1.00  0.00     0.294 C
HETATM   10  O4  UNL     1       1.938  23.279   3.557  1.00  0.00    -0.328 OA
HETATM   11  C9  UNL     1       1.302  24.247   4.298  1.00  0.00     0.273 C
HETATM   12  O5  UNL     1       0.594  23.754   5.382  1.00  0.00    -0.360 OA
HETATM   13  C12 UNL     1       0.397  25.139   3.515  1.00  0.00     0.036 C
HETATM   14  C10 UNL     1      -0.434  24.655   5.638  1.00  0.00     0.172 C
HETATM   15  C11 UNL     1      -0.940  24.921   4.217  1.00  0.00     0.043 C
HETATM   16  C13 UNL     1       0.739  26.603   3.698  1.00  0.00     0.023 C
HETATM   17  C14 UNL     1       0.336  24.835   2.060  1.00  0.00     0.164 C
HETATM   18  C15 UNL     1       0.377  23.385   1.716  1.00  0.00     0.203 C
BRANCH  17  19
HETATM   19  O6  UNL     1       1.351  25.519   1.403  1.00  0.00    -0.392 OA
ATOM     20  H6  UNL     1       1.787  24.930   0.798  1.00  0.00     0.210 HD
ENDBRANCH  17  19
BRANCH  18  21
HETATM   21  O7  UNL     1      -0.918  22.893   1.495  1.00  0.00    -0.388 OA
ATOM     22  H7  UNL     1      -1.321  23.350   0.766  1.00  0.00     0.210 HD
ENDBRANCH  18  21
ENDBRANCH   8   9
ENDBRANCH   5   8
BRANCH   6  23
HETATM   23  O8  UNL     1       4.067  21.141   3.954  1.00  0.00    -0.390 OA
ATOM     24  H8  UNL     1       3.831  22.038   3.746  1.00  0.00     0.210 HD
ENDBRANCH   6  23
BRANCH   7  25
HETATM   25  O9  UNL     1       4.719  18.451   2.023  1.00  0.00    -0.388 OA
ATOM     26  H9  UNL     1       4.501  19.001   1.280  1.00  0.00     0.210 HD
ENDBRANCH   7  25
BRANCH   1  27
HETATM   27  O1  UNL     1       3.283  16.815   3.720  1.00  0.00    -0.355 OA
BRANCH  27  28
HETATM   28  C3  UNL     1       2.450  16.110   4.571  1.00  0.00     0.197 C
BRANCH  28  29
HETATM   29  C2  UNL     1       2.632  16.667   5.939  1.00  0.00    -0.011 C
HETATM   30  C1  UNL     1       2.678  15.863   7.004  1.00  0.00     0.009 C
ENDBRANCH  28  29
ENDBRANCH  27  28
ENDBRANCH   1  27
TORSDOF 9
ENDMDL