MODEL 3
REMARK VINA RESULT: -6.348479850      1.471      1.779
REMARK  10 active torsions:
REMARK  status: ('A' for Active; 'I' for Inactive)
REMARK    1  A    between atoms: C2_2  and  O1_3
REMARK    2  A    between atoms: C2_2  and  C10_25
REMARK    3  A    between atoms: O1_3  and  C3_4
REMARK    4  A    between atoms: C4_6  and  C5_7
REMARK    5  A    between atoms: C5_7  and  O3_8
REMARK    6  A    between atoms: O3_8  and  C6_9
REMARK       I    between atoms: C6_9  and  N1_11
REMARK    7  A    between atoms: N1_11  and  N2_13
REMARK    8  A    between atoms: C7_16  and  O5_17
REMARK    9  A    between atoms: C8_19  and  O6_20
REMARK   10  A    between atoms: C9_22  and  O7_23
ROOT
HETATM    1  C3  UNL     1       2.231  19.280   1.009  1.00  0.00     0.292 C
HETATM    2  O2  UNL     1       2.708  18.054   1.548  1.00  0.00    -0.348 OA
HETATM    3  C4  UNL     1       2.534  18.141   2.925  1.00  0.00     0.180 C
HETATM    4  C7  UNL     1       3.636  19.096   3.399  1.00  0.00     0.180 C
HETATM    5  C8  UNL     1       3.177  20.459   2.948  1.00  0.00     0.183 C
HETATM    6  C9  UNL     1       3.095  20.423   1.416  1.00  0.00     0.204 C
ENDROOT
BRANCH   1   7
HETATM    7  O1  UNL     1       2.040  19.118  -0.361  1.00  0.00    -0.353 OA
BRANCH   7   8
HETATM    8  C2  UNL     1       0.738  19.052  -0.771  1.00  0.00     0.127 C
HETATM    9  C1  UNL     1       0.599  17.818  -1.742  1.00  0.00     0.040 C
BRANCH   8  10
HETATM   10  C10 UNL     1       0.332  20.202  -1.611  1.00  0.00     0.049 C
HETATM   11  C11 UNL     1      -0.678  19.966  -2.676  1.00  0.00     0.018 C
HETATM   12  C12 UNL     1      -0.430  21.079  -3.716  1.00  0.00     0.007 C
HETATM   13  C16 UNL     1      -1.984  20.343  -2.012  1.00  0.00     0.173 C
HETATM   14  C13 UNL     1      -0.023  22.350  -3.009  1.00  0.00     0.003 C
HETATM   15  C14 UNL     1      -0.517  22.486  -1.615  1.00  0.00     0.032 C
HETATM   16  C15 UNL     1      -0.390  21.252  -0.760  1.00  0.00     0.128 C
HETATM   17  O8  UNL     1      -1.669  20.679  -0.698  1.00  0.00    -0.385 OA
ENDBRANCH   8  10
ENDBRANCH   7   8
ENDBRANCH   1   7
BRANCH   6  18
HETATM   18  O7  UNL     1       2.515  21.629   1.018  1.00  0.00    -0.388 OA
ATOM     19  H7  UNL     1       1.580  21.611   1.185  1.00  0.00     0.210 HD
ENDBRANCH   6  18
BRANCH   3  20
HETATM   20  C5  UNL     1       2.643  16.802   3.598  1.00  0.00     0.215 C
BRANCH  20  21
HETATM   21  O3  UNL     1       3.569  15.929   3.048  1.00  0.00    -0.300 OA
BRANCH  21  22
HETATM   22  C6  UNL     1       3.200  14.764   2.406  1.00  0.00     0.379 C
HETATM   23  O4  UNL     1       3.898  13.723   2.440  1.00  0.00    -0.237 OA
HETATM   24  N1  UNL     1       1.971  14.718   1.662  1.00  0.00    -0.252 N
ATOM     25  H1  UNL     1       1.385  15.552   1.619  1.00  0.00     0.191 HD
BRANCH  24  26
HETATM   26  N2  UNL     1       1.561  13.569   1.001  1.00  0.00    -0.341 N
ATOM     27  H22 UNL     1       1.829  12.666   1.393  1.00  0.00     0.177 HD
ATOM     28  H21 UNL     1       1.006  13.611   0.145  1.00  0.00     0.177 HD
ENDBRANCH  24  26
ENDBRANCH  21  22
ENDBRANCH  20  21
ENDBRANCH   3  20
BRANCH   5  29
HETATM   29  O6  UNL     1       4.031  21.468   3.368  1.00  0.00    -0.390 OA
ATOM     30  H6  UNL     1       3.744  22.327   3.081  1.00  0.00     0.210 HD
ENDBRANCH   5  29
BRANCH   4  31
HETATM   31  O5  UNL     1       4.772  18.769   2.653  1.00  0.00    -0.390 OA
ATOM     32  H5  UNL     1       4.668  17.858   2.403  1.00  0.00     0.210 HD
ENDBRANCH   4  31
TORSDOF 10
ENDMDL