MODEL 5
REMARK VINA RESULT: -6.664814428      1.550      2.490
REMARK  8 active torsions:
REMARK  status: ('A' for Active; 'I' for Inactive)
REMARK    1  A    between atoms: O1_2  and  C2_3
REMARK    2  A    between atoms: C2_3  and  C5_6
REMARK    3  A    between atoms: C5_6  and  C6_8
REMARK    4  A    between atoms: C6_8  and  C7_10
REMARK       I    between atoms: C7_10  and  N1_12
REMARK       I    between atoms: N2_14  and  C8_16
REMARK       I    between atoms: C8_16  and  N3_18
REMARK    5  A    between atoms: N3_18  and  C9_20
REMARK    6  A    between atoms: C11_22  and  O6_24
REMARK    7  A    between atoms: C13_27  and  O8_28
REMARK    8  A    between atoms: C14_30  and  O9_31
ROOT
HETATM    1  C7  UNL     1       1.482  21.409   1.127  1.00  0.00     0.314 C
HETATM    2  O4  UNL     1       0.454  21.450   1.892  1.00  0.00    -0.262 OA
HETATM    3  N1  UNL     1       2.704  21.843   1.647  1.00  0.00    -0.259 N
ATOM      4  H1  UNL     1       2.936  22.788   1.337  1.00  0.00     0.190 HD
HETATM    5  N2  UNL     1       3.546  21.390   2.361  1.00  0.00    -0.249 N
ATOM      6  H2  UNL     1       4.331  22.019   2.528  1.00  0.00     0.192 HD
HETATM    7  C8  UNL     1       3.656  20.154   3.010  1.00  0.00     0.335 C
HETATM    8  O5  UNL     1       4.611  19.977   3.873  1.00  0.00    -0.246 OA
HETATM    9  N3  UNL     1       2.827  19.029   2.838  1.00  0.00    -0.334 N
ATOM     10  H3  UNL     1       2.050  19.081   2.178  1.00  0.00     0.164 HD
ENDROOT
BRANCH   9  11
HETATM   11  C9  UNL     1       3.044  17.822   3.562  1.00  0.00     0.124 C
HETATM   12  C10 UNL     1       1.804  17.438   4.378  1.00  0.00     0.096 C
HETATM   13  C11 UNL     1       2.287  16.409   5.383  1.00  0.00     0.163 C
HETATM   14  C12 UNL     1       1.187  15.921   6.268  1.00  0.00     0.079 C
HETATM   15  O7  UNL     1       2.963  15.402   4.737  1.00  0.00    -0.323 OA
HETATM   16  C13 UNL     1       2.829  15.400   3.370  1.00  0.00     0.291 C
HETATM   17  C14 UNL     1       3.372  16.643   2.702  1.00  0.00     0.196 C
BRANCH  13  18
HETATM   18  O6  UNL     1       3.210  17.081   6.211  1.00  0.00    -0.365 OA
ATOM     19  H6  UNL     1       4.072  16.805   5.919  1.00  0.00     0.213 HD
ENDBRANCH  13  18
BRANCH  16  20
HETATM   20  O8  UNL     1       3.558  14.324   2.866  1.00  0.00    -0.368 OA
ATOM     21  H8  UNL     1       3.267  14.162   1.976  1.00  0.00     0.212 HD
ENDBRANCH  16  20
BRANCH  17  22
HETATM   22  O9  UNL     1       4.735  16.558   2.441  1.00  0.00    -0.389 OA
ATOM     23  H9  UNL     1       5.184  17.370   2.643  1.00  0.00     0.210 HD
ENDBRANCH  17  22
ENDBRANCH   9  11
BRANCH   1  24
HETATM   24  C6  UNL     1       1.365  20.925  -0.233  1.00  0.00     0.289 C
HETATM   25  O3  UNL     1       1.394  21.738  -1.177  1.00  0.00    -0.278 OA
BRANCH  24  26
HETATM   26  C5  UNL     1       1.215  19.516  -0.496  1.00  0.00     0.238 C
HETATM   27  O2  UNL     1       2.170  18.747  -0.142  1.00  0.00    -0.285 OA
BRANCH  26  28
HETATM   28  C2  UNL     1       0.047  18.905  -1.139  1.00  0.00     0.121 C
HETATM   29  C3  UNL     1      -0.044  19.143  -2.612  1.00  0.00     0.055 C
HETATM   30  C4  UNL     1       0.279  17.374  -1.002  1.00  0.00     0.055 C
BRANCH  28  31
HETATM   31  O1  UNL     1      -1.098  19.143  -0.446  1.00  0.00    -0.378 OA
HETATM   32  C1  UNL     1      -1.304  18.483   0.722  1.00  0.00     0.203 C
ENDBRANCH  28  31
ENDBRANCH  26  28
ENDBRANCH  24  26
ENDBRANCH   1  24
TORSDOF 8
ENDMDL