MODEL 3
REMARK VINA RESULT: -6.138089169      1.754      2.923
REMARK  10 active torsions:
REMARK  status: ('A' for Active; 'I' for Inactive)
REMARK    1  A    between atoms: O1_2  and  C2_3
REMARK    2  A    between atoms: C3_4  and  O2_5
REMARK    3  A    between atoms: O2_5  and  C4_6
REMARK    4  A    between atoms: C5_8  and  C6_9
REMARK    5  A    between atoms: C6_9  and  N1_10
REMARK    6  A    between atoms: C7_14  and  O4_15
REMARK    7  A    between atoms: C8_17  and  O5_18
REMARK    8  A    between atoms: C9_20  and  O6_21
REMARK    9  A    between atoms: C10_24  and  C11_25
REMARK   10  A    between atoms: C17_31  and  O8_32
ROOT
HETATM    1  C4  UNL     1       1.472  18.087   3.996  1.00  0.00     0.294 C
HETATM    2  O3  UNL     1       0.294  17.776   4.675  1.00  0.00    -0.349 OA
HETATM    3  C5  UNL     1      -0.144  16.511   4.327  1.00  0.00     0.181 C
HETATM    4  C7  UNL     1       0.780  15.520   5.004  1.00  0.00     0.180 C
HETATM    5  C8  UNL     1       2.126  15.683   4.338  1.00  0.00     0.183 C
HETATM    6  C9  UNL     1       2.563  17.097   4.207  1.00  0.00     0.204 C
ENDROOT
BRANCH   1   7
HETATM    7  O2  UNL     1       1.141  18.307   2.676  1.00  0.00    -0.326 OA
BRANCH   7   8
HETATM    8  C3  UNL     1       1.947  19.219   2.029  1.00  0.00     0.295 C
HETATM    9  C2  UNL     1       2.362  20.383   2.854  1.00  0.00     0.207 C
HETATM   10  C17 UNL     1       1.587  21.529   2.176  1.00  0.00     0.181 C
HETATM   11  C10 UNL     1       1.571  21.016   0.785  1.00  0.00     0.160 C
HETATM   12  O7  UNL     1       1.243  19.694   0.923  1.00  0.00    -0.350 OA
BRANCH   9  13
HETATM   13  O1  UNL     1       3.702  20.707   2.735  1.00  0.00    -0.383 OA
HETATM   14  C1  UNL     1       4.509  19.629   2.448  1.00  0.00     0.202 C
ENDBRANCH   9  13
BRANCH  10  15
HETATM   15  O8  UNL     1       0.362  21.566   2.797  1.00  0.00    -0.390 OA
ATOM     16  H8  UNL     1      -0.242  21.916   2.152  1.00  0.00     0.210 HD
ENDBRANCH  10  15
BRANCH  11  17
HETATM   17  C11 UNL     1       0.743  21.757  -0.189  1.00  0.00     0.017 C
HETATM   18  C12 UNL     1       1.009  23.207  -0.316  1.00  0.00     0.007 C
HETATM   19  C13 UNL     1       1.534  23.592  -1.699  1.00  0.00     0.000 C
HETATM   20  C14 UNL     1       0.458  23.314  -2.729  1.00  0.00     0.000 C
HETATM   21  C15 UNL     1       0.019  21.885  -2.553  1.00  0.00     0.000 C
HETATM   22  C16 UNL     1       0.893  21.127  -1.573  1.00  0.00     0.007 C
ENDBRANCH  11  17
ENDBRANCH   7   8
ENDBRANCH   1   7
BRANCH   6  23
HETATM   23  O6  UNL     1       3.286  17.426   5.374  1.00  0.00    -0.388 OA
ATOM     24  H6  UNL     1       3.793  16.675   5.660  1.00  0.00     0.210 HD
ENDBRANCH   6  23
BRANCH   3  25
HETATM   25  C6  UNL     1      -1.589  16.277   4.676  1.00  0.00     0.264 C
BRANCH  25  26
HETATM   26  N1  UNL     1      -1.920  16.648   6.014  1.00  0.00    -0.077 N
ATOM     27  H13 UNL     1      -1.091  16.632   6.608  1.00  0.00     0.274 HD
ATOM     28  H12 UNL     1      -2.148  17.641   6.067  1.00  0.00     0.274 HD
ATOM     29  H11 UNL     1      -2.667  16.085   6.421  1.00  0.00     0.274 HD
ENDBRANCH  25  26
ENDBRANCH   3  25
BRANCH   5  30
HETATM   30  O5  UNL     1       2.031  15.037   3.087  1.00  0.00    -0.390 OA
ATOM     31  H5  UNL     1       1.428  15.553   2.565  1.00  0.00     0.210 HD
ENDBRANCH   5  30
BRANCH   4  32
HETATM   32  O4  UNL     1       0.924  15.928   6.326  1.00  0.00    -0.390 OA
ATOM     33  H4  UNL     1       0.080  16.260   6.610  1.00  0.00     0.210 HD
ENDBRANCH   4  32
TORSDOF 10
ENDMDL