MODEL 3
REMARK VINA RESULT: -5.422869747      2.095      2.920
REMARK  11 active torsions:
REMARK  status: ('A' for Active; 'I' for Inactive)
REMARK    1  A    between atoms: O1_2  and  C2_3
REMARK    2  A    between atoms: C3_4  and  N1_5
REMARK    3  A    between atoms: C5_10  and  N2_11
REMARK    4  A    between atoms: C7_16  and  O2_17
REMARK    5  A    between atoms: O2_17  and  C8_18
REMARK    6  A    between atoms: C10_20  and  O3_21
REMARK    7  A    between atoms: C11_23  and  C12_24
REMARK    8  A    between atoms: C13_27  and  N3_28
REMARK    9  A    between atoms: N3_28  and  N4_30
REMARK   10  A    between atoms: N4_30  and  N5_31
REMARK   11  A    between atoms: C15_35  and  N6_36
ROOT
HETATM    1  C8  UNL     1       2.864  18.554   1.043  1.00  0.00     0.155 C
HETATM    2  C9  UNL     1       1.579  17.772   1.274  1.00  0.00     0.067 C
HETATM    3  C10 UNL     1       1.907  16.425   1.800  1.00  0.00     0.137 C
HETATM    4  C11 UNL     1       1.947  16.281   3.274  1.00  0.00     0.140 C
HETATM    5  C13 UNL     1       2.129  17.502   4.068  1.00  0.00     0.133 C
HETATM    6  C14 UNL     1       2.860  18.637   3.481  1.00  0.00     0.064 C
HETATM    7  C15 UNL     1       3.710  18.377   2.284  1.00  0.00     0.214 C
ENDROOT
BRANCH   1   8
HETATM    8  O2  UNL     1       2.580  19.877   0.884  1.00  0.00    -0.376 OA
BRANCH   8   9
HETATM    9  C7  UNL     1       1.332  20.182   0.411  1.00  0.00     0.155 C
HETATM   10  C2  UNL     1       0.682  21.024   1.527  1.00  0.00     0.180 C
HETATM   11  C3  UNL     1      -0.777  21.147   1.361  1.00  0.00     0.216 C
HETATM   12  C4  UNL     1      -1.115  20.890  -0.098  1.00  0.00     0.068 C
HETATM   13  C5  UNL     1      -0.116  21.535  -1.034  1.00  0.00     0.188 C
HETATM   14  C6  UNL     1       1.281  20.954  -0.865  1.00  0.00     0.067 C
BRANCH  10  15
HETATM   15  O1  UNL     1       1.399  22.183   1.612  1.00  0.00    -0.386 OA
HETATM   16  C1  UNL     1       0.988  23.067   2.580  1.00  0.00     0.202 C
ENDBRANCH  10  15
BRANCH  11  17
HETATM   17  N1  UNL     1      -1.458  20.085   2.113  1.00  0.00    -0.072 N
ATOM     18  H13 UNL     1      -0.882  19.248   2.201  1.00  0.00     0.274 HD
ATOM     19  H12 UNL     1      -1.544  20.312   3.104  1.00  0.00     0.274 HD
ATOM     20  H11 UNL     1      -2.363  19.882   1.688  1.00  0.00     0.274 HD
ENDBRANCH  11  17
BRANCH  13  21
HETATM   21  N2  UNL     1      -0.147  22.962  -0.876  1.00  0.00    -0.075 N
ATOM     22  H23 UNL     1      -0.950  23.269  -0.325  1.00  0.00     0.274 HD
ATOM     23  H22 UNL     1       0.593  23.296  -0.258  1.00  0.00     0.274 HD
ATOM     24  H21 UNL     1      -0.115  23.414  -1.790  1.00  0.00     0.274 HD
ENDBRANCH  13  21
ENDBRANCH   8   9
ENDBRANCH   1   8
BRANCH   7  25
HETATM   25  N6  UNL     1       4.758  19.381   2.246  1.00  0.00    -0.072 N
ATOM     26  H63 UNL     1       5.565  19.092   1.693  1.00  0.00     0.274 HD
ATOM     27  H62 UNL     1       4.504  20.200   1.694  1.00  0.00     0.274 HD
ATOM     28  H61 UNL     1       4.999  19.610   3.210  1.00  0.00     0.274 HD
ENDBRANCH   7  25
BRANCH   3  29
HETATM   29  O3  UNL     1       0.996  15.502   1.236  1.00  0.00    -0.395 OA
ATOM     30  H3  UNL     1       1.146  14.657   1.642  1.00  0.00     0.210 HD
ENDBRANCH   3  29
BRANCH   4  31
HETATM   31  C12 UNL     1       2.960  15.243   3.697  1.00  0.00     0.181 C
HETATM   32  O4  UNL     1       3.588  14.539   2.895  1.00  0.00    -0.648 OA
HETATM   33  O5  UNL     1       3.157  15.116   5.061  1.00  0.00    -0.648 OA
ENDBRANCH   4  31
BRANCH   5  34
HETATM   34  N3  UNL     1       0.813  17.966   4.543  1.00  0.00    -0.247 N
ATOM     35  H3  UNL     1       0.380  18.814   4.178  1.00  0.00     0.197 HD
BRANCH  34  36
HETATM   36  N4  UNL     1       0.264  17.275   5.406  1.00  0.00    -0.248 NA
BRANCH  36  37
HETATM   37  N5  UNL     1      -0.291  16.413   6.120  1.00  0.00    -0.261 N
ATOM     38  H52 UNL     1      -0.700  16.004   5.279  1.00  0.00     0.193 HD
ATOM     39  H51 UNL     1      -0.661  15.797   6.844  1.00  0.00     0.193 HD
ENDBRANCH  36  37
ENDBRANCH  34  36
ENDBRANCH   5  34
TORSDOF 11
ENDMDL