MODEL 3
REMARK VINA RESULT: -5.735754483      4.064      7.854
REMARK  9 active torsions:
REMARK  status: ('A' for Active; 'I' for Inactive)
REMARK    1  A    between atoms: C2_2  and  O1_4
REMARK    2  A    between atoms: O1_4  and  C4_5
REMARK    3  A    between atoms: C6_8  and  O3_9
REMARK    4  A    between atoms: O3_9  and  C7_10
REMARK    5  A    between atoms: C9_13  and  N1_14
REMARK    6  A    between atoms: N1_14  and  C10_16
REMARK    7  A    between atoms: C11_20  and  O5_21
REMARK    8  A    between atoms: C12_23  and  O6_24
REMARK    9  A    between atoms: C13_26  and  N3_27
ROOT
HETATM    1  C4  UNL     1       2.503  20.765   0.900  1.00  0.00     0.178 C
HETATM    2  C5  UNL     1       2.880  21.092   2.319  1.00  0.00     0.205 C
HETATM    3  O2  UNL     1       3.665  20.123   2.911  1.00  0.00    -0.356 OA
HETATM    4  C6  UNL     1       2.951  18.934   2.957  1.00  0.00     0.293 C
HETATM    5  C12 UNL     1       2.973  18.388   1.563  1.00  0.00     0.206 C
HETATM    6  C13 UNL     1       2.201  19.315   0.677  1.00  0.00     0.247 C
ENDROOT
BRANCH   4   7
HETATM    7  O3  UNL     1       3.379  18.068   3.920  1.00  0.00    -0.325 OA
BRANCH   7   8
HETATM    8  C7  UNL     1       2.463  17.402   4.677  1.00  0.00     0.301 C
HETATM    9  O4  UNL     1       1.189  17.387   4.208  1.00  0.00    -0.355 OA
HETATM   10  C8  UNL     1       0.177  17.248   5.117  1.00  0.00     0.207 C
HETATM   11  C9  UNL     1       0.152  15.908   5.805  1.00  0.00     0.172 C
HETATM   12  S2  UNL     1       1.838  15.433   6.353  1.00  0.00    -0.105 SA
HETATM   13  C11 UNL     1       2.898  15.949   4.953  1.00  0.00     0.236 C
BRANCH  11  14
HETATM   14  N1  UNL     1      -0.261  14.868   4.872  1.00  0.00    -0.354 N
ATOM     15  H1  UNL     1       0.209  13.964   4.878  1.00  0.00     0.162 HD
BRANCH  14  16
HETATM   16  C10 UNL     1      -1.316  15.111   3.951  1.00  0.00     0.182 C
HETATM   17  N2  UNL     1      -2.637  15.340   4.412  1.00  0.00    -0.070 NA
HETATM   18  S1  UNL     1      -1.048  15.137   2.327  1.00  0.00    -0.044 SA
ENDBRANCH  14  16
ENDBRANCH  11  14
BRANCH  13  19
HETATM   19  O5  UNL     1       2.614  15.101   3.914  1.00  0.00    -0.380 OA
ATOM     20  H5  UNL     1       2.580  14.190   4.179  1.00  0.00     0.211 HD
ENDBRANCH  13  19
ENDBRANCH   7   8
ENDBRANCH   4   7
BRANCH   5  21
HETATM   21  O6  UNL     1       2.477  17.093   1.478  1.00  0.00    -0.388 OA
ATOM     22  H6  UNL     1       2.848  16.600   0.757  1.00  0.00     0.210 HD
ENDBRANCH   5  21
BRANCH   6  23
HETATM   23  N3  UNL     1       0.791  19.017   0.857  1.00  0.00    -0.070 N
ATOM     24  H33 UNL     1       0.385  19.582   1.603  1.00  0.00     0.274 HD
ATOM     25  H32 UNL     1       0.237  19.361   0.073  1.00  0.00     0.274 HD
ATOM     26  H31 UNL     1       0.626  18.023   1.017  1.00  0.00     0.274 HD
ENDBRANCH   6  23
BRANCH   1  27
HETATM   27  O1  UNL     1       1.468  21.620   0.548  1.00  0.00    -0.377 OA
BRANCH  27  28
HETATM   28  C2  UNL     1       1.708  22.320  -0.620  1.00  0.00     0.114 C
HETATM   29  C1  UNL     1       1.458  23.805  -0.504  1.00  0.00     0.039 C
HETATM   30  C3  UNL     1       0.719  21.788  -1.664  1.00  0.00     0.039 C
ENDBRANCH  27  28
ENDBRANCH   1  27
TORSDOF 9
ENDMDL