MODEL 5
REMARK VINA RESULT: -6.117762531      1.066      1.363
REMARK  10 active torsions:
REMARK  status: ('A' for Active; 'I' for Inactive)
REMARK    1  A    between atoms: C2_2  and  C3_3
REMARK    2  A    between atoms: C2_2  and  C4_6
REMARK    3  A    between atoms: C3_3  and  O1_4
REMARK    4  A    between atoms: C7_9  and  O2_10
REMARK    5  A    between atoms: C10_14  and  O3_15
REMARK    6  A    between atoms: O3_15  and  C11_16
REMARK    7  A    between atoms: C12_18  and  O5_19
REMARK    8  A    between atoms: C13_21  and  O6_22
REMARK    9  A    between atoms: C14_24  and  O7_25
REMARK   10  A    between atoms: C17_29  and  O8_30
ROOT
HETATM    1  C4  UNL     1       2.369  19.201   1.227  1.00  0.00     0.152 C
HETATM    2  C5  UNL     1       3.149  19.862   2.373  1.00  0.00     0.040 C
HETATM    3  C6  UNL     1       3.699  18.741   3.179  1.00  0.00     0.046 C
HETATM    4  C7  UNL     1       2.789  17.528   3.245  1.00  0.00     0.110 C
HETATM    5  C8  UNL     1       1.400  17.782   2.791  1.00  0.00     0.161 C
HETATM    6  C9  UNL     1       0.469  18.205   3.930  1.00  0.00     0.067 C
HETATM    7  C10 UNL     1       0.425  16.998   4.855  1.00  0.00     0.133 C
HETATM    8  C15 UNL     1       1.764  16.928   5.492  1.00  0.00     0.042 C
HETATM    9  C16 UNL     1       1.773  15.690   6.399  1.00  0.00     0.015 C
HETATM   10  C17 UNL     1       2.947  16.921   4.589  1.00  0.00     0.161 C
HETATM   11  O9  UNL     1       1.225  18.717   1.816  1.00  0.00    -0.373 OA
ENDROOT
BRANCH   7  12
HETATM   12  O3  UNL     1      -0.518  17.257   5.864  1.00  0.00    -0.353 OA
BRANCH  12  13
HETATM   13  C11 UNL     1      -1.724  17.570   5.244  1.00  0.00     0.294 C
HETATM   14  O4  UNL     1      -2.594  17.928   6.267  1.00  0.00    -0.326 OA
HETATM   15  C12 UNL     1      -3.864  17.541   5.892  1.00  0.00     0.291 C
HETATM   16  C13 UNL     1      -3.759  16.505   4.807  1.00  0.00     0.206 C
HETATM   17  C14 UNL     1      -2.270  16.345   4.598  1.00  0.00     0.207 C
BRANCH  15  18
HETATM   18  O5  UNL     1      -4.527  18.688   5.413  1.00  0.00    -0.368 OA
ATOM     19  H5  UNL     1      -5.460  18.526   5.484  1.00  0.00     0.212 HD
ENDBRANCH  15  18
BRANCH  16  20
HETATM   20  O6  UNL     1      -4.357  15.324   5.216  1.00  0.00    -0.388 OA
ATOM     21  H6  UNL     1      -4.182  15.169   6.136  1.00  0.00     0.210 HD
ENDBRANCH  16  20
BRANCH  17  22
HETATM   22  O7  UNL     1      -1.798  15.163   5.166  1.00  0.00    -0.388 OA
ATOM     23  H7  UNL     1      -1.395  14.578   4.537  1.00  0.00     0.210 HD
ENDBRANCH  17  22
ENDBRANCH  12  13
ENDBRANCH   7  12
BRANCH  10  24
HETATM   24  O8  UNL     1       3.388  15.571   4.524  1.00  0.00    -0.392 OA
ATOM     25  H8  UNL     1       4.252  15.455   4.902  1.00  0.00     0.210 HD
ENDBRANCH  10  24
BRANCH   4  26
HETATM   26  O2  UNL     1       3.343  16.609   2.327  1.00  0.00    -0.385 OA
ATOM     27  H2  UNL     1       3.039  15.758   2.620  1.00  0.00     0.210 HD
ENDBRANCH   4  26
BRANCH   1  28
HETATM   28  C2  UNL     1       1.992  20.294   0.306  1.00  0.00    -0.037 C
HETATM   29  C1  UNL     1       2.355  21.530   0.605  1.00  0.00     0.019 C
BRANCH  28  30
HETATM   30  C3  UNL     1       1.218  20.010  -0.931  1.00  0.00     0.200 C
BRANCH  30  31
HETATM   31  O1  UNL     1       1.322  18.649  -1.214  1.00  0.00    -0.397 OA
ATOM     32  H1  UNL     1       1.960  18.268  -0.622  1.00  0.00     0.209 HD
ENDBRANCH  30  31
ENDBRANCH  28  30
ENDBRANCH   1  28
TORSDOF 10
ENDMDL