MODEL 2
REMARK VINA RESULT: -5.754479891      1.394      1.721
REMARK  9 active torsions:
REMARK  status: ('A' for Active; 'I' for Inactive)
REMARK    1  A    between atoms: O1_2  and  C2_3
REMARK    2  A    between atoms: C9_10  and  O2_11
REMARK    3  A    between atoms: O2_11  and  C10_12
REMARK    4  A    between atoms: C11_14  and  C12_15
REMARK    5  A    between atoms: C12_15  and  O4_16
REMARK    6  A    between atoms: C13_18  and  O5_19
REMARK    7  A    between atoms: C14_21  and  O6_22
REMARK    8  A    between atoms: C15_24  and  O7_25
REMARK    9  A    between atoms: O7_25  and  C16_26
ROOT
HETATM    1  C10 UNL     1       0.020  17.971   3.520  1.00  0.00     0.295 C
HETATM    2  O3  UNL     1      -0.896  18.281   4.524  1.00  0.00    -0.348 OA
HETATM    3  C11 UNL     1      -1.875  17.306   4.663  1.00  0.00     0.179 C
HETATM    4  C13 UNL     1      -1.197  16.052   5.181  1.00  0.00     0.180 C
HETATM    5  C14 UNL     1      -0.247  15.594   4.078  1.00  0.00     0.183 C
HETATM    6  C15 UNL     1       0.761  16.685   3.816  1.00  0.00     0.218 C
ENDROOT
BRANCH   1   7
HETATM    7  O2  UNL     1       0.896  19.035   3.419  1.00  0.00    -0.329 OA
BRANCH   7   8
HETATM    8  C9  UNL     1       0.607  19.820   2.307  1.00  0.00     0.267 C
HETATM    9  C8  UNL     1       1.643  20.893   2.090  1.00  0.00     0.071 C
HETATM   10  C7  UNL     1       2.181  20.603   0.693  1.00  0.00     0.053 C
HETATM   11  C2  UNL     1       1.260  19.605   0.151  1.00  0.00     0.170 C
HETATM   12  C6  UNL     1       2.319  21.899   0.001  1.00  0.00     0.010 C
HETATM   13  C3  UNL     1       0.407  19.987  -1.004  1.00  0.00     0.069 C
HETATM   14  O8  UNL     1       0.445  19.103   1.160  1.00  0.00    -0.325 OA
HETATM   15  C4  UNL     1       0.627  21.316  -1.613  1.00  0.00     0.005 C
HETATM   16  C5  UNL     1       1.065  22.392  -0.658  1.00  0.00     0.001 C
BRANCH  11  17
HETATM   17  O1  UNL     1       2.027  18.490  -0.263  1.00  0.00    -0.359 OA
HETATM   18  C1  UNL     1       1.247  17.426  -0.670  1.00  0.00     0.205 C
ENDBRANCH  11  17
ENDBRANCH   7   8
ENDBRANCH   1   7
BRANCH   6  19
HETATM   19  O7  UNL     1       1.481  16.346   2.656  1.00  0.00    -0.312 OA
BRANCH  19  20
HETATM   20  C16 UNL     1       2.846  16.363   2.582  1.00  0.00     0.225 C
HETATM   21  N1  UNL     1       3.445  17.467   2.293  1.00  0.00    -0.368 N
ATOM     22  H12 UNL     1       2.851  18.280   2.133  1.00  0.00     0.159 HD
ATOM     23  H11 UNL     1       4.463  17.479   2.237  1.00  0.00     0.159 HD
HETATM   24  N2  UNL     1       3.674  15.230   2.804  1.00  0.00    -0.057 NA
ENDBRANCH  19  20
ENDBRANCH   6  19
BRANCH   3  25
HETATM   25  C12 UNL     1      -2.928  17.785   5.605  1.00  0.00     0.198 C
BRANCH  25  26
HETATM   26  O4  UNL     1      -3.187  16.750   6.516  1.00  0.00    -0.398 OA
ATOM     27  H4  UNL     1      -2.354  16.352   6.744  1.00  0.00     0.209 HD
ENDBRANCH  25  26
ENDBRANCH   3  25
BRANCH   5  28
HETATM   28  O6  UNL     1      -1.012  15.316   2.933  1.00  0.00    -0.390 OA
ATOM     29  H6  UNL     1      -1.472  14.498   3.079  1.00  0.00     0.210 HD
ENDBRANCH   5  28
BRANCH   4  30
HETATM   30  O5  UNL     1      -0.420  16.379   6.286  1.00  0.00    -0.390 OA
ATOM     31  H5  UNL     1      -0.266  15.596   6.800  1.00  0.00     0.210 HD
ENDBRANCH   4  30
TORSDOF 9
ENDMDL