MODEL 3
REMARK VINA RESULT: -5.536081301      3.744      7.530
REMARK  7 active torsions:
REMARK  status: ('A' for Active; 'I' for Inactive)
REMARK       I    between atoms: C2_2  and  N1_4
REMARK    1  A    between atoms: N1_4  and  C3_6
REMARK    2  A    between atoms: C5_9  and  S1_10
REMARK    3  A    between atoms: S1_10  and  S2_11
REMARK    4  A    between atoms: S2_11  and  C6_12
REMARK    5  A    between atoms: C9_18  and  O3_19
REMARK    6  A    between atoms: C10_22  and  N3_23
REMARK       I    between atoms: N3_23  and  C11_25
REMARK    7  A    between atoms: C13_28  and  O6_29
ROOT
HETATM    1  C3  UNL     1       1.268  23.362  -0.031  1.00  0.00     0.139 C
HETATM    2  C4  UNL     1      -0.099  23.211   0.539  1.00  0.00     0.197 C
HETATM    3  O2  UNL     1      -0.187  22.402   1.635  1.00  0.00    -0.370 OA
HETATM    4  C5  UNL     1       0.499  21.206   1.570  1.00  0.00     0.219 C
HETATM    5  C10 UNL     1       1.970  21.508   1.480  1.00  0.00     0.155 C
HETATM    6  C13 UNL     1       2.135  22.163   0.092  1.00  0.00     0.169 C
ENDROOT
BRANCH   4   7
HETATM    7  S1  UNL     1       0.178  20.313   3.111  1.00  0.00    -0.061 SA
BRANCH   7   8
HETATM    8  S2  UNL     1      -0.028  18.249   2.653  1.00  0.00    -0.061 SA
BRANCH   8   9
HETATM    9  C6  UNL     1       1.245  17.342   3.536  1.00  0.00     0.222 C
HETATM   10  C7  UNL     1       1.240  15.910   3.042  1.00  0.00     0.276 C
HETATM   11  N2  UNL     1       2.463  15.303   3.518  1.00  0.00    -0.067 N
HETATM   12  C8  UNL     1       2.516  15.396   4.951  1.00  0.00     0.292 C
ATOM     13  H22 UNL     1       2.572  14.343   3.190  1.00  0.00     0.277 HD
ATOM     14  H21 UNL     1       3.291  15.702   3.075  1.00  0.00     0.277 HD
HETATM   15  C9  UNL     1       2.201  16.774   5.474  1.00  0.00     0.284 C
HETATM   16  O4  UNL     1       1.033  17.298   4.905  1.00  0.00    -0.342 OA
BRANCH  15  17
HETATM   17  O3  UNL     1       3.225  17.683   5.195  1.00  0.00    -0.369 OA
ATOM     18  H3  UNL     1       2.947  18.352   4.581  1.00  0.00     0.212 HD
ENDBRANCH  15  17
ENDBRANCH   8   9
ENDBRANCH   7   8
ENDBRANCH   4   7
BRANCH   5  19
HETATM   19  N3  UNL     1       2.689  20.250   1.476  1.00  0.00    -0.351 N
HETATM   20  C11 UNL     1       3.797  20.069   2.323  1.00  0.00     0.214 C
HETATM   21  C12 UNL     1       4.531  18.767   2.319  1.00  0.00     0.117 C
HETATM   22  O5  UNL     1       4.175  20.991   3.083  1.00  0.00    -0.274 OA
ATOM     23  H3  UNL     1       2.391  19.494   0.859  1.00  0.00     0.163 HD
ENDBRANCH   5  19
BRANCH   6  24
HETATM   24  O6  UNL     1       1.656  21.189  -0.812  1.00  0.00    -0.391 OA
ATOM     25  H6  UNL     1       2.349  20.555  -0.949  1.00  0.00     0.210 HD
ENDBRANCH   6  24
BRANCH   1  26
HETATM   26  N1  UNL     1       1.102  23.619  -1.471  1.00  0.00    -0.352 N
HETATM   27  C2  UNL     1       1.856  24.599  -2.142  1.00  0.00     0.214 C
HETATM   28  C1  UNL     1       1.627  24.795  -3.592  1.00  0.00     0.117 C
HETATM   29  O1  UNL     1       2.702  25.276  -1.478  1.00  0.00    -0.274 OA
ATOM     30  H1  UNL     1       0.421  23.071  -1.998  1.00  0.00     0.163 HD
ENDBRANCH   1  26
TORSDOF 7
ENDMDL