MODEL 3
REMARK VINA RESULT: -7.898280511      1.361      2.952
REMARK  3 active torsions:
REMARK  status: ('A' for Active; 'I' for Inactive)
REMARK    1  A    between atoms: C9_9  and  O1_10
REMARK    2  A    between atoms: C13_15  and  O2_16
REMARK    3  A    between atoms: C16_20  and  O3_21
ROOT
HETATM    1  C1  UNL     1       2.563  21.569   0.947  1.00  0.00     0.017 C
HETATM    2  C2  UNL     1       1.777  20.982   0.228  1.00  0.00    -0.082 C
HETATM    3  C3  UNL     1       0.866  20.288  -0.637  1.00  0.00    -0.002 C
HETATM    4  C4  UNL     1       0.476  20.781  -1.806  1.00  0.00    -0.004 C
HETATM    5  C5  UNL     1      -0.464  19.966  -2.600  1.00  0.00     0.028 C
HETATM    6  C6  UNL     1      -0.010  18.536  -2.746  1.00  0.00     0.024 C
HETATM    7  C7  UNL     1      -1.263  17.849  -3.241  1.00  0.00     0.016 C
HETATM    8  C8  UNL     1      -2.333  18.452  -2.365  1.00  0.00     0.033 A
HETATM    9  C9  UNL     1      -3.485  19.020  -3.134  1.00  0.00     0.067 A
HETATM   10  C10 UNL     1      -4.354  20.080  -2.505  1.00  0.00     0.047 A
HETATM   11  C11 UNL     1      -2.958  20.410  -2.823  1.00  0.00     0.035 A
HETATM   12  C12 UNL     1      -1.825  19.838  -2.032  1.00  0.00     0.006 A
HETATM   13  C13 UNL     1      -1.928  20.106  -0.557  1.00  0.00     0.129 C
HETATM   14  C14 UNL     1      -1.099  19.162   0.272  1.00  0.00     0.045 C
HETATM   15  C15 UNL     1       0.287  18.958  -0.282  1.00  0.00     0.058 C
HETATM   16  C16 UNL     1       0.338  17.976  -1.405  1.00  0.00     0.132 C
ENDROOT
BRANCH  16  17
HETATM   17  O3  UNL     1       1.667  17.500  -1.492  1.00  0.00    -0.394 OA
ATOM     18  H3  UNL     1       1.964  17.675  -2.377  1.00  0.00     0.210 HD
ENDBRANCH  16  17
BRANCH  13  19
HETATM   19  O2  UNL     1      -1.654  21.442  -0.259  1.00  0.00    -0.395 OA
ATOM     20  H2  UNL     1      -2.391  21.861   0.170  1.00  0.00     0.210 HD
ENDBRANCH  13  19
BRANCH   9  21
HETATM   21  O1  UNL     1      -3.693  18.670  -4.457  1.00  0.00    -0.389 OA
ATOM     22  H1  UNL     1      -3.736  19.334  -5.135  1.00  0.00     0.210 HD
ENDBRANCH   9  21
TORSDOF 3
ENDMDL