MODEL 3
REMARK VINA RESULT: -6.802630565      4.488      6.987
REMARK  4 active torsions:
REMARK  status: ('A' for Active; 'I' for Inactive)
REMARK    1  A    between atoms: C3_3  and  O1_4
REMARK    2  A    between atoms: C3_3  and  C4_6
REMARK    3  A    between atoms: C5_7  and  C6_8
REMARK    4  A    between atoms: N2_15  and  C12_16
ROOT
HETATM    1  C1  UNL     1      -4.173  18.452  -2.726  1.00  0.00     0.015 C
HETATM    2  C2  UNL     1      -3.961  19.626  -2.554  1.00  0.00    -0.073 C
HETATM    3  C3  UNL     1      -3.680  21.064  -2.342  1.00  0.00     0.276 C
ENDROOT
BRANCH   3   4
HETATM    4  O1  UNL     1      -3.196  21.621  -3.502  1.00  0.00    -0.372 OA
ATOM      5  H1  UNL     1      -3.060  22.554  -3.380  1.00  0.00     0.212 HD
ENDBRANCH   3   4
BRANCH   3   6
HETATM    6  C4  UNL     1      -2.657  21.232  -1.304  1.00  0.00    -0.057 C
HETATM    7  C5  UNL     1      -1.806  21.360  -0.456  1.00  0.00    -0.075 C
BRANCH   7   8
HETATM    8  C6  UNL     1      -0.781  21.521   0.534  1.00  0.00     0.069 C
HETATM    9  C7  UNL     1      -0.489  20.495   1.304  1.00  0.00    -0.054 C
HETATM   10  C8  UNL     1      -1.184  19.217   1.164  1.00  0.00     0.039 C
HETATM   11  C13 UNL     1       0.565  20.609   2.343  1.00  0.00     0.161 C
HETATM   12  C9  UNL     1      -0.471  18.032   1.692  1.00  0.00     0.045 C
HETATM   13  C10 UNL     1       0.995  18.169   1.857  1.00  0.00     0.194 C
HETATM   14  C11 UNL     1       1.430  17.223   2.910  1.00  0.00     0.084 C
HETATM   15  N2  UNL     1       1.459  19.483   2.163  1.00  0.00    -0.339 N
HETATM   16  N1  UNL     1       1.759  16.491   3.746  1.00  0.00    -0.195 NA
BRANCH  15  17
HETATM   17  C12 UNL     1       2.857  19.700   2.297  1.00  0.00     0.184 C
HETATM   18  N3  UNL     1       3.825  18.778   1.815  1.00  0.00    -0.070 NA
HETATM   19  S1  UNL     1       3.450  21.055   3.030  1.00  0.00    -0.044 SA
ENDBRANCH  15  17
ENDBRANCH   7   8
ENDBRANCH   3   6
TORSDOF 4
ENDMDL