MODEL 5
REMARK VINA RESULT: -6.385707056      2.617      5.396
REMARK  4 active torsions:
REMARK  status: ('A' for Active; 'I' for Inactive)
REMARK    1  A    between atoms: S1_2  and  C2_3
REMARK    2  A    between atoms: C2_3  and  N1_4
REMARK    3  A    between atoms: C2_3  and  N3_13
REMARK    4  A    between atoms: C10_16  and  O1_17
ROOT
HETATM    1  C2  UNL     1      -1.941  17.612  -2.530  1.00  0.00     0.140 C
ENDROOT
BRANCH   1   2
HETATM    2  S1  UNL     1      -1.391  16.576  -1.318  1.00  0.00    -0.099 SA
HETATM    3  C1  UNL     1       0.259  16.468  -0.652  1.00  0.00     0.099 C
ENDBRANCH   1   2
BRANCH   1   4
HETATM    4  N1  UNL     1      -1.685  17.380  -3.884  1.00  0.00    -0.360 N
HETATM    5  C3  UNL     1      -2.683  17.143  -4.857  1.00  0.00     0.126 C
HETATM    6  C4  UNL     1      -2.671  15.728  -5.389  1.00  0.00     0.047 C
HETATM    7  C5  UNL     1      -1.834  15.681  -6.657  1.00  0.00     0.234 C
HETATM    8  N2  UNL     1      -0.764  16.663  -6.560  1.00  0.00    -0.074 N
HETATM    9  C6  UNL     1       0.057  16.496  -5.443  1.00  0.00     0.252 C
ATOM     10  H22 UNL     1      -0.208  16.673  -7.415  1.00  0.00     0.277 HD
ATOM     11  H21 UNL     1      -1.142  17.610  -6.589  1.00  0.00     0.277 HD
HETATM   12  C7  UNL     1      -0.232  17.286  -4.192  1.00  0.00     0.152 C
ENDBRANCH   1   4
BRANCH   1  13
HETATM   13  N3  UNL     1      -2.530  18.763  -1.954  1.00  0.00    -0.362 N
HETATM   14  C8  UNL     1      -3.979  18.970  -2.093  1.00  0.00     0.127 C
HETATM   15  C9  UNL     1      -4.261  20.118  -3.020  1.00  0.00     0.051 C
HETATM   16  C10 UNL     1      -3.498  21.350  -2.574  1.00  0.00     0.121 C
HETATM   17  C11 UNL     1      -2.772  21.115  -1.287  1.00  0.00     0.051 C
HETATM   18  C12 UNL     1      -1.910  19.842  -1.286  1.00  0.00     0.127 C
BRANCH  16  19
HETATM   19  O1  UNL     1      -2.550  21.617  -3.551  1.00  0.00    -0.395 OA
ATOM     20  H1  UNL     1      -1.782  21.099  -3.342  1.00  0.00     0.210 HD
ENDBRANCH  16  19
ENDBRANCH   1  13
TORSDOF 4
ENDMDL