MODEL 3
REMARK VINA RESULT: -7.565875323      1.429      2.210
REMARK  2 active torsions:
REMARK  status: ('A' for Active; 'I' for Inactive)
REMARK    1  A    between atoms: C8_8  and  O1_9
REMARK    2  A    between atoms: C16_19  and  O2_20
ROOT
HETATM    1  C1  UNL     1       1.931  21.896  -0.104  1.00  0.00     0.011 C
HETATM    2  C2  UNL     1       0.867  20.791  -0.350  1.00  0.00    -0.009 C
HETATM    3  C3  UNL     1       0.022  21.383  -1.477  1.00  0.00    -0.005 C
HETATM    4  C4  UNL     1      -0.903  22.113  -0.479  1.00  0.00     0.016 C
HETATM    5  C5  UNL     1      -1.399  20.895   0.169  1.00  0.00    -0.023 A
HETATM    6  C6  UNL     1      -0.075  20.673   0.795  1.00  0.00     0.006 A
HETATM    7  C7  UNL     1      -1.162  19.889   1.102  1.00  0.00     0.031 A
HETATM    8  C8  UNL     1      -1.034  18.419   0.780  1.00  0.00     0.160 C
HETATM    9  C9  UNL     1      -1.877  17.894  -0.311  1.00  0.00     0.286 C
HETATM   10  N1  UNL     1      -1.274  17.001  -1.265  1.00  0.00     0.095 N
HETATM   11  C10 UNL     1      -0.346  16.084  -0.806  1.00  0.00     0.310 C
HETATM   12  C11 UNL     1      -0.879  17.765  -2.476  1.00  0.00     0.280 C
HETATM   13  C12 UNL     1      -0.880  19.072  -1.900  1.00  0.00     0.055 C
HETATM   14  C13 UNL     1      -0.710  20.405  -2.351  1.00  0.00    -0.001 C
HETATM   15  C14 UNL     1      -2.178  20.887  -2.241  1.00  0.00     0.014 C
HETATM   16  C15 UNL     1      -2.329  20.382  -0.789  1.00  0.00     0.032 C
HETATM   17  C16 UNL     1      -2.258  18.978  -1.189  1.00  0.00     0.101 C
ENDROOT
BRANCH   8  18
HETATM   18  O1  UNL     1      -1.405  17.660   1.928  1.00  0.00    -0.393 OA
ATOM     19  H1  UNL     1      -2.352  17.597   1.962  1.00  0.00     0.210 HD
ENDBRANCH   8  18
BRANCH  17  20
HETATM   20  O2  UNL     1      -3.296  18.640  -1.946  1.00  0.00    -0.387 OA
ATOM     21  H2  UNL     1      -3.436  17.700  -1.938  1.00  0.00     0.210 HD
ENDBRANCH  17  20
TORSDOF 2
ENDMDL