MODEL 3
REMARK VINA RESULT: -7.694431977      4.450      7.366
REMARK  1 active torsions:
REMARK  status: ('A' for Active; 'I' for Inactive)
REMARK    1  A    between atoms: N4_17  and  O1_18
ROOT
HETATM    1  N1  UNL     1       0.675  19.221   2.746  1.00  0.00    -0.405 N
ATOM      2  H11 UNL     1       1.135  18.320   2.881  1.00  0.00     0.155 HD
ATOM      3  H12 UNL     1       0.967  19.888   3.460  1.00  0.00     0.155 HD
HETATM    4  C1  UNL     1      -0.161  19.502   1.812  1.00  0.00    -0.014 C
HETATM    5  C2  UNL     1      -0.833  20.819   1.616  1.00  0.00     0.053 C
HETATM    6  C3  UNL     1      -1.309  20.687   0.175  1.00  0.00     0.013 C
HETATM    7  C4  UNL     1      -1.759  19.258   0.129  1.00  0.00     0.030 C
HETATM    8  C5  UNL     1      -0.583  18.536   0.777  1.00  0.00     0.065 C
HETATM    9  C6  UNL     1       0.412  18.459  -0.371  1.00  0.00     0.284 C
HETATM   10  N2  UNL     1      -0.406  18.184  -1.485  1.00  0.00     0.097 N
HETATM   11  C7  UNL     1       0.150  18.510  -2.759  1.00  0.00     0.316 C
HETATM   12  C8  UNL     1      -0.640  17.980  -3.898  1.00  0.00     0.212 C
HETATM   13  N3  UNL     1      -1.961  17.555  -3.573  1.00  0.00    -0.373 N
HETATM   14  C9  UNL     1      -2.823  17.381  -4.672  1.00  0.00     0.061 C
HETATM   15  C10 UNL     1      -2.099  16.646  -5.779  1.00  0.00     0.061 C
HETATM   16  C11 UNL     1      -0.838  16.011  -5.272  1.00  0.00     0.128 C
HETATM   17  N4  UNL     1       0.067  16.932  -4.646  1.00  0.00    -0.174 NA
HETATM   18  C12 UNL     1      -2.089  16.636  -2.508  1.00  0.00     0.126 C
HETATM   19  C13 UNL     1      -2.640  17.444  -1.320  1.00  0.00     0.056 C
HETATM   20  C14 UNL     1      -1.724  18.675  -1.262  1.00  0.00     0.229 C
ENDROOT
BRANCH  17  21
HETATM   21  O1  UNL     1       0.909  16.275  -3.830  1.00  0.00    -0.311 OA
ATOM     22  H1  UNL     1       0.786  15.338  -3.924  1.00  0.00     0.237 HD
ENDBRANCH  17  21
TORSDOF 1
ENDMDL