MODEL 2
REMARK VINA RESULT: -6.912501504      7.437      9.139
REMARK  5 active torsions:
REMARK  status: ('A' for Active; 'I' for Inactive)
REMARK    1  A    between atoms: O1_1  and  C1_3
REMARK    2  A    between atoms: C1_3  and  C2_4
REMARK    3  A    between atoms: C3_5  and  C4_6
REMARK    4  A    between atoms: C8_13  and  C9_14
REMARK    5  A    between atoms: C10_15  and  C11_16
ROOT
HETATM    1  C1  UNL     1      -3.500  18.311  -2.422  1.00  0.00     0.170 C
HETATM    2  C7  UNL     1      -4.162  19.526  -2.982  1.00  0.00     0.288 C
HETATM    3  N1  UNL     1      -3.245  20.454  -3.608  1.00  0.00    -0.049 N
ATOM      4  H11 UNL     1      -3.706  21.320  -3.887  1.00  0.00     0.279 HD
ATOM      5  H12 UNL     1      -2.951  20.139  -4.532  1.00  0.00     0.279 HD
HETATM    6  C8  UNL     1      -2.123  20.693  -2.733  1.00  0.00     0.211 C
HETATM    7  C13 UNL     1      -2.536  20.825  -1.299  1.00  0.00     0.221 C
HETATM    8  O3  UNL     1      -2.483  19.595  -0.705  1.00  0.00    -0.378 OA
HETATM    9  C14 UNL     1      -2.223  18.642  -1.673  1.00  0.00     0.173 C
HETATM   10  C15 UNL     1      -1.332  19.377  -2.684  1.00  0.00     0.090 C
ENDROOT
BRANCH   1  11
HETATM   11  O1  UNL     1      -4.395  17.701  -1.543  1.00  0.00    -0.373 OA
ATOM     12  H1  UNL     1      -3.943  17.102  -0.959  1.00  0.00     0.212 HD
ENDBRANCH   1  11
BRANCH   1  13
HETATM   13  C2  UNL     1      -3.177  17.416  -3.552  1.00  0.00    -0.063 C
HETATM   14  C3  UNL     1      -2.914  16.670  -4.461  1.00  0.00    -0.099 C
BRANCH  14  15
HETATM   15  C4  UNL     1      -2.589  15.745  -5.548  1.00  0.00     0.065 A
HETATM   16  C5  UNL     1      -2.684  16.153  -6.958  1.00  0.00     0.018 A
HETATM   17  C6  UNL     1      -1.319  16.091  -6.386  1.00  0.00     0.018 A
ENDBRANCH  14  15
ENDBRANCH   1  13
BRANCH   6  18
HETATM   18  C9  UNL     1      -1.335  21.788  -3.228  1.00  0.00    -0.062 C
HETATM   19  C10 UNL     1      -0.684  22.727  -3.638  1.00  0.00    -0.070 C
BRANCH  19  20
HETATM   20  C11 UNL     1       0.086  23.874  -4.119  1.00  0.00     0.224 A
HETATM   21  C12 UNL     1      -0.706  25.025  -4.608  1.00  0.00     0.214 A
HETATM   22  O2  UNL     1      -0.066  25.013  -3.344  1.00  0.00    -0.368 OA
ENDBRANCH  19  20
ENDBRANCH   6  18
TORSDOF 5
ENDMDL