MODEL 1
REMARK VINA RESULT: -6.806156070      0.000      0.000
REMARK  0 active torsions:
REMARK  status: ('A' for Active; 'I' for Inactive)
REMARK       I    between atoms: C1_4  and  N3_6
REMARK       I    between atoms: N4_9  and  C4_10
REMARK       I    between atoms: C4_10  and  N5_12
ROOT
HETATM    1  N1  UNL     1       3.823  18.975   3.656  1.00  0.00    -0.374 N
ATOM      2  H11 UNL     1       3.766  19.983   3.511  1.00  0.00     0.158 HD
ATOM      3  H12 UNL     1       4.721  18.534   3.850  1.00  0.00     0.158 HD
HETATM    4  C1  UNL     1       2.739  18.288   3.587  1.00  0.00     0.184 C
HETATM    5  N2  UNL     1       2.818  16.893   3.787  1.00  0.00    -0.064 NA
HETATM    6  N3  UNL     1       1.510  18.893   3.321  1.00  0.00    -0.353 N
HETATM    7  C2  UNL     1       1.386  20.266   2.885  1.00  0.00     0.145 C
HETATM    8  C3  UNL     1      -0.044  20.576   2.501  1.00  0.00     0.147 C
HETATM    9  N4  UNL     1      -0.625  19.528   1.684  1.00  0.00    -0.331 N
HETATM   10  C4  UNL     1      -1.392  19.856   0.558  1.00  0.00     0.320 C
HETATM   11  O1  UNL     1      -1.512  21.133   0.377  1.00  0.00    -0.247 OA
HETATM   12  N5  UNL     1      -2.032  19.037  -0.375  1.00  0.00    -0.333 N
HETATM   13  C5  UNL     1      -2.790  19.748  -1.436  1.00  0.00     0.137 C
HETATM   14  C6  UNL     1      -1.821  19.769  -2.636  1.00  0.00     0.093 C
HETATM   15  S1  UNL     1      -1.799  18.015  -3.170  1.00  0.00    -0.166 SA
HETATM   16  C7  UNL     1      -2.511  17.058  -1.794  1.00  0.00     0.093 C
HETATM   17  C8  UNL     1      -2.066  17.620  -0.459  1.00  0.00     0.137 C
HETATM   18  C9  UNL     1      -0.391  18.176   2.077  1.00  0.00     0.147 C
HETATM   19  C10 UNL     1       0.267  18.144   3.477  1.00  0.00     0.145 C
ENDROOT
TORSDOF 0
ENDMDL