MODEL 4
REMARK VINA RESULT: -6.874280024      5.473      7.292
REMARK  5 active torsions:
REMARK  status: ('A' for Active; 'I' for Inactive)
REMARK    1  A    between atoms: N1_1  and  C1_5
REMARK    2  A    between atoms: N2_8  and  C4_9
REMARK    3  A    between atoms: C4_9  and  O1_10
REMARK    4  A    between atoms: C4_9  and  N3_12
REMARK    5  A    between atoms: C9_17  and  O2_18
ROOT
HETATM    1  C4  UNL     1       0.635  18.455  -2.064  1.00  0.00     0.221 C
ENDROOT
BRANCH   1   2
HETATM    2  N2  UNL     1       0.463  19.844  -1.906  1.00  0.00    -0.327 N
HETATM    3  C3  UNL     1      -0.453  20.478  -2.852  1.00  0.00     0.133 C
HETATM    4  C2  UNL     1      -0.260  21.939  -3.018  1.00  0.00     0.053 C
HETATM    5  C1  UNL     1      -0.142  22.623  -1.675  1.00  0.00     0.189 C
HETATM    6  C13 UNL     1       1.010  22.063  -0.927  1.00  0.00     0.077 C
HETATM    7  C12 UNL     1       1.132  20.575  -0.906  1.00  0.00     0.069 C
BRANCH   5   8
HETATM    8  N1  UNL     1      -1.358  22.535  -0.909  1.00  0.00    -0.075 N
ATOM      9  H13 UNL     1      -2.024  21.900  -1.348  1.00  0.00     0.274 HD
ATOM     10  H12 UNL     1      -1.207  22.031  -0.034  1.00  0.00     0.274 HD
ATOM     11  H11 UNL     1      -1.776  23.450  -0.739  1.00  0.00     0.274 HD
ENDBRANCH   5   8
ENDBRANCH   1   2
BRANCH   1  12
HETATM   12  O1  UNL     1       1.553  17.879  -1.322  1.00  0.00    -0.332 OA
ATOM     13  H1  UNL     1       2.370  17.647  -1.747  1.00  0.00     0.221 HD
ENDBRANCH   1  12
BRANCH   1  14
HETATM   14  N3  UNL     1      -0.028  17.555  -2.902  1.00  0.00    -0.346 N
HETATM   15  C5  UNL     1       0.242  16.872  -4.138  1.00  0.00     0.131 C
HETATM   16  C6  UNL     1      -0.896  17.476  -4.986  1.00  0.00     0.012 C
HETATM   17  C7  UNL     1      -1.234  16.623  -6.156  1.00  0.00     0.009 C
HETATM   18  C10 UNL     1      -2.050  17.332  -3.985  1.00  0.00     0.038 C
HETATM   19  C8  UNL     1      -2.704  16.305  -6.016  1.00  0.00     0.032 C
HETATM   20  C9  UNL     1      -2.884  16.193  -4.514  1.00  0.00     0.124 C
HETATM   21  C11 UNL     1      -1.418  17.022  -2.650  1.00  0.00     0.134 C
BRANCH  20  22
HETATM   22  O2  UNL     1      -2.523  14.965  -4.014  1.00  0.00    -0.395 OA
ATOM     23  H2  UNL     1      -3.194  14.569  -3.470  1.00  0.00     0.210 HD
ENDBRANCH  20  22
ENDBRANCH   1  14
TORSDOF 5
ENDMDL