MODEL 1
REMARK VINA RESULT: -6.198449101      0.000      0.000
REMARK  14 active torsions:
REMARK  status: ('A' for Active; 'I' for Inactive)
REMARK    1  A    between atoms: C2_2  and  C3_3
REMARK    2  A    between atoms: C3_3  and  C4_4
REMARK    3  A    between atoms: C4_4  and  C5_5
REMARK    4  A    between atoms: C5_5  and  C6_6
REMARK    5  A    between atoms: C8_11  and  C9_12
REMARK    6  A    between atoms: C9_12  and  C10_13
REMARK    7  A    between atoms: C13_18  and  O2_19
REMARK    8  A    between atoms: C14_21  and  C15_22
REMARK    9  A    between atoms: C18_27  and  O3_28
REMARK   10  A    between atoms: C19_30  and  C20_31
REMARK   11  A    between atoms: C20_31  and  C21_32
REMARK   12  A    between atoms: C21_32  and  C22_33
REMARK   13  A    between atoms: C22_33  and  C23_34
REMARK   14  A    between atoms: C23_34  and  N4_35
ROOT
HETATM    1  C6  UNL     1       3.463  25.282   1.048  1.00  0.00     0.176 C
HETATM    2  N1  UNL     1       4.056  25.733   2.297  1.00  0.00    -0.346 N
ATOM      3  H1  UNL     1       3.530  26.424   2.832  1.00  0.00     0.163 HD
HETATM    4  C7  UNL     1       5.275  25.315   2.840  1.00  0.00     0.241 C
HETATM    5  O1  UNL     1       5.272  24.941   4.066  1.00  0.00    -0.271 OA
HETATM    6  C8  UNL     1       6.590  25.261   2.124  1.00  0.00     0.176 C
HETATM    7  N2  UNL     1       7.570  24.627   2.936  1.00  0.00    -0.356 N
ATOM      8  H2  UNL     1       7.401  23.622   2.998  1.00  0.00     0.162 HD
HETATM    9  C13 UNL     1       8.679  24.989   3.661  1.00  0.00     0.160 C
HETATM   10  C14 UNL     1       8.891  25.718   4.931  1.00  0.00     0.065 C
HETATM   11  N3  UNL     1       8.025  26.779   5.253  1.00  0.00    -0.338 N
ATOM     12  H3  UNL     1       7.654  27.247   4.425  1.00  0.00     0.167 HD
HETATM   13  C18 UNL     1       7.554  27.342   6.447  1.00  0.00     0.139 C
HETATM   14  C19 UNL     1       6.680  26.799   7.499  1.00  0.00     0.159 C
HETATM   15  N5  UNL     1       5.672  27.842   7.787  1.00  0.00    -0.348 N
ATOM     16  H5  UNL     1       6.009  28.795   7.924  1.00  0.00     0.163 HD
HETATM   17  C24 UNL     1       4.288  27.628   7.887  1.00  0.00     0.232 C
HETATM   18  O4  UNL     1       3.678  28.016   8.945  1.00  0.00    -0.272 OA
HETATM   19  C25 UNL     1       3.436  26.981   6.858  1.00  0.00     0.149 C
HETATM   20 BR1  UNL     1       2.816  28.377   5.681  1.00  0.00    -0.081 Br
HETATM   21  C26 UNL     1       2.339  26.167   7.448  1.00  0.00     0.025 C
HETATM   22  C27 UNL     1       0.991  26.387   6.843  1.00  0.00     0.002 C
HETATM   23  C28 UNL     1       0.554  25.200   5.977  1.00  0.00     0.000 C
HETATM   24  C29 UNL     1      -0.510  25.559   4.991  1.00  0.00     0.002 C
HETATM   25  C30 UNL     1      -0.288  24.993   3.608  1.00  0.00     0.020 C
HETATM   26  C31 UNL     1       1.016  25.533   3.074  1.00  0.00     0.122 C
HETATM   27  N6  UNL     1       1.007  25.643   1.629  1.00  0.00    -0.359 N
ATOM     28  H6  UNL     1       0.118  25.513   1.146  1.00  0.00     0.162 HD
HETATM   29  C32 UNL     1       2.138  25.917   0.855  1.00  0.00     0.240 C
HETATM   30  O5  UNL     1       2.044  26.773  -0.093  1.00  0.00    -0.271 OA
ENDROOT
BRANCH  14  31
HETATM   31  C20 UNL     1       7.325  26.543   8.828  1.00  0.00     0.034 C
BRANCH  31  32
HETATM   32  C21 UNL     1       8.095  25.270   8.935  1.00  0.00     0.004 C
BRANCH  32  33
HETATM   33  C22 UNL     1       9.398  25.534   9.664  1.00  0.00     0.027 C
BRANCH  33  34
HETATM   34  C23 UNL     1       9.611  26.988   9.983  1.00  0.00     0.229 C
BRANCH  34  35
HETATM   35  N4  UNL     1      10.928  27.396   9.508  1.00  0.00    -0.079 N
ATOM     36  H43 UNL     1      11.672  26.799   9.869  1.00  0.00     0.274 HD
ATOM     37  H42 UNL     1      11.059  27.202   8.515  1.00  0.00     0.274 HD
ATOM     38  H41 UNL     1      11.077  28.379   9.733  1.00  0.00     0.274 HD
ENDBRANCH  34  35
ENDBRANCH  33  34
ENDBRANCH  32  33
ENDBRANCH  31  32
ENDBRANCH  14  31
BRANCH  13  39
HETATM   39  O3  UNL     1       7.919  28.565   6.732  1.00  0.00    -0.348 OA
ATOM     40  H3  UNL     1       7.507  29.274   6.254  1.00  0.00     0.219 HD
ENDBRANCH  13  39
BRANCH  10  41
HETATM   41  C15 UNL     1       9.230  24.751   6.054  1.00  0.00     0.032 C
HETATM   42  C16 UNL     1       9.352  23.332   5.622  1.00  0.00     0.016 C
HETATM   43  C17 UNL     1      10.596  25.169   6.616  1.00  0.00     0.016 C
ENDBRANCH  10  41
BRANCH   9  44
HETATM   44  O2  UNL     1       9.811  24.611   3.126  1.00  0.00    -0.345 OA
ATOM     45  H2  UNL     1      10.580  24.950   3.568  1.00  0.00     0.219 HD
ENDBRANCH   9  44
BRANCH   6  46
HETATM   46  C9  UNL     1       6.885  26.560   1.498  1.00  0.00     0.038 C
BRANCH  46  47
HETATM   47  C10 UNL     1       8.070  26.633   0.601  1.00  0.00    -0.020 C
HETATM   48  C11 UNL     1       7.708  27.093  -0.797  1.00  0.00     0.009 C
HETATM   49  C12 UNL     1       8.954  27.767   1.161  1.00  0.00     0.009 C
ENDBRANCH  46  47
ENDBRANCH   6  46
BRANCH   1  50
HETATM   50  C5  UNL     1       3.284  23.760   1.017  1.00  0.00     0.035 C
BRANCH  50  51
HETATM   51  C4  UNL     1       2.729  23.464  -0.376  1.00  0.00     0.002 C
BRANCH  51  52
HETATM   52  C3  UNL     1       1.709  22.354  -0.329  1.00  0.00    -0.000 C
BRANCH  52  53
HETATM   53  C2  UNL     1       2.107  21.424   0.793  1.00  0.00    -0.005 C
HETATM   54  C1  UNL     1       2.097  19.985   0.384  1.00  0.00     0.005 C
ENDBRANCH  52  53
ENDBRANCH  51  52
ENDBRANCH  50  51
ENDBRANCH   1  50
TORSDOF 14
ENDMDL