MODEL 4
REMARK VINA RESULT: -10.140920269      5.288     13.757
REMARK  13 active torsions:
REMARK  status: ('A' for Active; 'I' for Inactive)
REMARK    1  A    between atoms: C2_2  and  N1_3
REMARK       I    between atoms: C3_5  and  N2_6
REMARK       I    between atoms: C3_5  and  N11_52
REMARK       I    between atoms: C4_8  and  N4_10
REMARK    2  A    between atoms: N4_10  and  C5_12
REMARK    3  A    between atoms: C9_18  and  C10_19
REMARK       I    between atoms: C10_19  and  N6_21
REMARK    4  A    between atoms: N6_21  and  C11_23
REMARK    5  A    between atoms: C11_23  and  C12_24
REMARK    6  A    between atoms: C12_24  and  C13_25
REMARK    7  A    between atoms: C13_25  and  C14_26
REMARK    8  A    between atoms: C14_26  and  N7_27
REMARK    9  A    between atoms: C18_34  and  N9_35
REMARK       I    between atoms: N9_35  and  C19_37
REMARK   10  A    between atoms: C19_37  and  O3_39
REMARK   11  A    between atoms: O3_39  and  C20_40
REMARK   12  A    between atoms: C20_40  and  C21_41
REMARK   13  A    between atoms: C21_41  and  C22_42
ROOT
HETATM    1  C5  UNL     1      11.402  22.869   5.605  1.00  0.00     0.132 A
HETATM    2  N5  UNL     1      11.837  22.802   4.332  1.00  0.00    -0.350 N
ATOM      3  H5  UNL     1      12.730  22.346   4.147  1.00  0.00     0.166 HD
HETATM    4  C6  UNL     1      11.154  23.305   3.301  1.00  0.00     0.103 A
HETATM    5  C7  UNL     1       9.960  23.918   3.518  1.00  0.00     0.010 A
HETATM    6  C8  UNL     1       9.020  24.542   2.700  1.00  0.00     0.050 A
HETATM    7  C9  UNL     1       7.971  25.010   3.457  1.00  0.00     0.102 A
HETATM    8  N10 UNL     1       8.246  24.692   4.711  1.00  0.00    -0.350 N
ATOM      9  H10 UNL     1       7.648  24.910   5.508  1.00  0.00     0.166 HD
HETATM   10  C26 UNL     1       9.429  24.035   4.795  1.00  0.00     0.070 A
HETATM   11  C27 UNL     1      10.190  23.490   5.830  1.00  0.00     0.105 A
HETATM   12 CL1  UNL     1       9.594  23.598   7.457  1.00  0.00    -0.078 Cl
ENDROOT
BRANCH   7  13
HETATM   13  C10 UNL     1       6.783  25.750   2.948  1.00  0.00     0.272 C
HETATM   14  O1  UNL     1       6.721  26.934   3.316  1.00  0.00    -0.266 OA
HETATM   15  N6  UNL     1       5.857  25.104   2.127  1.00  0.00    -0.332 N
ATOM     16  H6  UNL     1       6.068  24.123   1.944  1.00  0.00     0.168 HD
BRANCH  15  17
HETATM   17  C11 UNL     1       4.708  25.559   1.522  1.00  0.00     0.087 C
BRANCH  17  18
HETATM   18  C12 UNL     1       3.370  25.540   2.124  1.00  0.00    -0.008 C
BRANCH  18  19
HETATM   19  C13 UNL     1       2.887  26.549   3.062  1.00  0.00     0.048 C
BRANCH  19  20
HETATM   20  C14 UNL     1       3.213  26.180   4.488  1.00  0.00     0.129 C
BRANCH  20  21
HETATM   21  N7  UNL     1       3.237  27.195   5.482  1.00  0.00    -0.349 N
HETATM   22  C15 UNL     1       2.698  28.498   5.154  1.00  0.00     0.127 C
HETATM   23  C16 UNL     1       1.925  29.089   6.257  1.00  0.00     0.047 C
HETATM   24  C17 UNL     1       2.552  28.862   7.591  1.00  0.00     0.237 C
HETATM   25  N8  UNL     1       3.971  29.076   7.591  1.00  0.00    -0.045 N
HETATM   26  C18 UNL     1       4.669  27.740   7.639  1.00  0.00     0.381 C
ATOM     27  H82 UNL     1       4.278  29.646   6.804  1.00  0.00     0.280 HD
ATOM     28  H81 UNL     1       4.269  29.697   8.343  1.00  0.00     0.280 HD
HETATM   29  C25 UNL     1       3.873  26.881   6.742  1.00  0.00     0.270 C
HETATM   30  O4  UNL     1       3.699  25.673   7.094  1.00  0.00    -0.269 OA
BRANCH  26  31
HETATM   31  N9  UNL     1       5.978  28.067   7.116  1.00  0.00    -0.301 N
HETATM   32  C19 UNL     1       7.055  27.164   7.049  1.00  0.00     0.362 C
HETATM   33  O2  UNL     1       6.936  25.949   7.466  1.00  0.00    -0.238 OA
ATOM     34  H9  UNL     1       6.130  29.017   6.774  1.00  0.00     0.167 HD
BRANCH  32  35
HETATM   35  O3  UNL     1       8.311  27.468   6.553  1.00  0.00    -0.304 OA
BRANCH  35  36
HETATM   36  C20 UNL     1       9.503  27.029   7.171  1.00  0.00     0.181 C
BRANCH  36  37
HETATM   37  C21 UNL     1       9.643  27.738   8.493  1.00  0.00     0.031 C
BRANCH  37  38
HETATM   38  C22 UNL     1      10.170  26.873   9.600  1.00  0.00    -0.021 C
HETATM   39  C23 UNL     1       9.245  25.762  10.027  1.00  0.00     0.009 C
HETATM   40  C24 UNL     1      11.484  26.243   9.167  1.00  0.00     0.009 C
ENDBRANCH  37  38
ENDBRANCH  36  37
ENDBRANCH  35  36
ENDBRANCH  32  35
ENDBRANCH  26  31
ENDBRANCH  20  21
ENDBRANCH  19  20
ENDBRANCH  18  19
ENDBRANCH  17  18
ENDBRANCH  15  17
ENDBRANCH   7  13
BRANCH   1  41
HETATM   41  N4  UNL     1      12.098  22.372   6.573  1.00  0.00    -0.315 N
HETATM   42  C4  UNL     1      13.430  21.902   6.280  1.00  0.00     0.208 C
HETATM   43  N2  UNL     1      13.670  20.655   6.110  1.00  0.00    -0.164 N
HETATM   44  N3  UNL     1      14.521  22.818   6.167  1.00  0.00    -0.063 NA
HETATM   45  C3  UNL     1      14.972  20.204   5.820  1.00  0.00     0.678 C
ATOM     46  H2  UNL     1      12.908  19.981   6.186  1.00  0.00     0.187 HD
HETATM   47  N1  UNL     1      15.896  20.176   6.698  1.00  0.00    -0.226 N
HETATM   48  N11 UNL     1      15.239  19.766   4.491  1.00  0.00    -0.218 N
ATOM     49  H1  UNL     1      16.801  19.829   6.378  1.00  0.00     0.177 HD
HETATM   50  C28 UNL     1      16.580  19.654   3.963  1.00  0.00     0.141 C
HETATM   51  C32 UNL     1      14.158  19.404   3.583  1.00  0.00     0.141 C
HETATM   52  C29 UNL     1      16.882  18.189   3.742  1.00  0.00     0.020 C
HETATM   53  C30 UNL     1      15.698  17.488   3.147  1.00  0.00     0.003 C
HETATM   54  C31 UNL     1      14.694  18.440   2.559  1.00  0.00     0.020 C
ATOM     55  H4  UNL     1      11.717  22.314   7.518  1.00  0.00     0.170 HD
BRANCH  47  56
HETATM   56  C2  UNL     1      15.830  20.565   8.065  1.00  0.00     0.133 C
HETATM   57  C1  UNL     1      17.009  21.410   8.501  1.00  0.00     0.027 C
ENDBRANCH  47  56
ENDBRANCH   1  41
TORSDOF 13
ENDMDL