MODEL 1
REMARK VINA RESULT: -7.974020567      0.000      0.000
REMARK  12 active torsions:
REMARK  status: ('A' for Active; 'I' for Inactive)
REMARK    1  A    between atoms: C2_2  and  C4_4
REMARK    2  A    between atoms: C4_4  and  C5_5
REMARK    3  A    between atoms: C9_12  and  C10_13
REMARK    4  A    between atoms: C11_14  and  C12_15
REMARK    5  A    between atoms: C12_15  and  C13_16
REMARK    6  A    between atoms: C13_16  and  C14_17
REMARK    7  A    between atoms: C14_17  and  C15_18
REMARK    8  A    between atoms: C23_30  and  O4_31
REMARK    9  A    between atoms: C24_33  and  C25_34
REMARK   10  A    between atoms: C25_34  and  C26_35
REMARK   11  A    between atoms: C26_35  and  C27_36
REMARK   12  A    between atoms: C27_36  and  N3_37
ROOT
HETATM    1  C5  UNL     1       8.922  26.229   7.766  1.00  0.00     0.177 C
HETATM    2  N1  UNL     1       9.937  25.270   8.181  1.00  0.00    -0.348 N
ATOM      3  H1  UNL     1       9.682  24.625   8.929  1.00  0.00     0.163 HD
HETATM    4  C6  UNL     1      11.223  25.148   7.656  1.00  0.00     0.218 C
HETATM    5  O1  UNL     1      12.181  24.963   8.479  1.00  0.00    -0.274 OA
HETATM    6  C7  UNL     1      11.557  25.215   6.234  1.00  0.00     0.103 C
HETATM    7  C8  UNL     1      12.454  24.089   5.801  1.00  0.00     0.021 C
HETATM    8  C9  UNL     1      11.688  22.898   5.228  1.00  0.00     0.030 C
HETATM    9  C16 UNL     1      12.278  22.506   3.951  1.00  0.00    -0.022 C
HETATM   10  C17 UNL     1      11.609  22.415   2.799  1.00  0.00    -0.026 C
HETATM   11  C18 UNL     1      10.139  22.713   2.679  1.00  0.00     0.053 C
HETATM   12  C19 UNL     1       9.875  24.154   2.775  1.00  0.00    -0.027 C
HETATM   13  C20 UNL     1       8.755  24.744   3.146  1.00  0.00    -0.027 C
HETATM   14  C21 UNL     1       7.506  24.045   3.551  1.00  0.00     0.072 C
HETATM   15  C22 UNL     1       6.333  24.882   3.170  1.00  0.00     0.141 C
HETATM   16  N2  UNL     1       6.419  26.188   3.738  1.00  0.00    -0.351 N
ATOM     17  H2  UNL     1       7.047  26.795   3.211  1.00  0.00     0.163 HD
HETATM   18  C23 UNL     1       5.864  26.830   4.821  1.00  0.00     0.136 C
HETATM   19  C24 UNL     1       5.978  26.706   6.272  1.00  0.00     0.159 C
HETATM   20  N6  UNL     1       6.605  25.553   6.820  1.00  0.00    -0.347 N
ATOM     21  H6  UNL     1       6.275  24.656   6.465  1.00  0.00     0.163 HD
HETATM   22  C29 UNL     1       7.628  25.494   7.794  1.00  0.00     0.241 C
HETATM   23  O5  UNL     1       7.485  24.746   8.834  1.00  0.00    -0.271 OA
HETATM   24  C30 UNL     1       6.446  25.034   1.647  1.00  0.00     0.229 C
HETATM   25  O6  UNL     1       7.400  24.608   0.995  1.00  0.00    -0.286 OA
HETATM   26  C31 UNL     1       5.318  25.730   1.042  1.00  0.00     0.201 C
HETATM   27  O7  UNL     1       5.512  26.325  -0.045  1.00  0.00    -0.289 OA
HETATM   28  C32 UNL     1       3.970  25.728   1.712  1.00  0.00     0.115 C
HETATM   29  C33 UNL     1       3.961  24.578   2.654  1.00  0.00     0.003 C
HETATM   30  C34 UNL     1       5.035  24.185   3.321  1.00  0.00     0.045 C
HETATM   31 CL1  UNL     1       4.918  22.805   4.375  1.00  0.00    -0.086 Cl
ENDROOT
BRANCH   8  32
HETATM   32  C10 UNL     1      11.730  21.848   6.251  1.00  0.00    -0.022 C
HETATM   33  C11 UNL     1      12.631  21.159   6.842  1.00  0.00    -0.030 C
BRANCH  33  34
HETATM   34  C12 UNL     1      14.090  21.124   6.741  1.00  0.00     0.027 C
BRANCH  34  35
HETATM   35  C13 UNL     1      14.766  21.630   8.012  1.00  0.00     0.014 C
BRANCH  35  36
HETATM   36  C14 UNL     1      16.096  22.238   7.581  1.00  0.00     0.113 C
BRANCH  36  37
HETATM   37  C15 UNL     1      17.133  21.213   7.797  1.00  0.00     0.172 C
HETATM   38  O2  UNL     1      17.778  21.245   8.874  1.00  0.00    -0.648 OA
HETATM   39  O3  UNL     1      17.376  20.248   6.831  1.00  0.00    -0.648 OA
ENDBRANCH  36  37
ENDBRANCH  35  36
ENDBRANCH  34  35
ENDBRANCH  33  34
ENDBRANCH   8  32
BRANCH   1  40
HETATM   40  C4  UNL     1       8.901  27.455   8.614  1.00  0.00     0.038 C
BRANCH  40  41
HETATM   41  C2  UNL     1       9.528  27.369   9.956  1.00  0.00    -0.020 C
HETATM   42  C1  UNL     1       8.699  28.270  10.897  1.00  0.00     0.009 C
HETATM   43  C3  UNL     1      10.932  27.856  10.078  1.00  0.00     0.009 C
ENDBRANCH  40  41
ENDBRANCH   1  40
BRANCH  19  44
HETATM   44  C25 UNL     1       4.569  26.877   6.878  1.00  0.00     0.035 C
BRANCH  44  45
HETATM   45  C26 UNL     1       4.531  27.919   7.946  1.00  0.00     0.022 C
BRANCH  45  46
HETATM   46  C27 UNL     1       3.422  28.901   7.524  1.00  0.00     0.122 C
BRANCH  46  47
HETATM   47  N3  UNL     1       4.139  30.007   6.891  1.00  0.00    -0.367 N
HETATM   48  C28 UNL     1       3.693  31.197   7.019  1.00  0.00     0.196 C
HETATM   49  N4  UNL     1       2.523  31.446   7.759  1.00  0.00    -0.067 NA
HETATM   50  N5  UNL     1       4.385  32.269   6.412  1.00  0.00    -0.067 NA
ATOM     51  H3  UNL     1       4.986  29.831   6.351  1.00  0.00     0.161 HD
ENDBRANCH  46  47
ENDBRANCH  45  46
ENDBRANCH  44  45
ENDBRANCH  19  44
BRANCH  18  52
HETATM   52  O4  UNL     1       5.025  27.797   4.506  1.00  0.00    -0.348 OA
ATOM     53  H4  UNL     1       4.294  27.891   5.106  1.00  0.00     0.219 HD
ENDBRANCH  18  52
TORSDOF 12
ENDMDL