MODEL 3
REMARK VINA RESULT: -6.395535097      3.592      7.106
REMARK  11 active torsions:
REMARK  status: ('A' for Active; 'I' for Inactive)
REMARK    1  A    between atoms: C2_2  and  C3_3
REMARK    2  A    between atoms: C3_3  and  C5_5
REMARK    3  A    between atoms: C5_5  and  N1_6
REMARK    4  A    between atoms: C5_5  and  C28_46
REMARK       I    between atoms: N1_6  and  C6_8
REMARK       I    between atoms: C6_8  and  N2_10
REMARK    5  A    between atoms: N2_10  and  C7_12
REMARK    6  A    between atoms: C10_15  and  C11_16
REMARK    7  A    between atoms: C13_22  and  C14_23
REMARK    8  A    between atoms: C14_23  and  C15_24
REMARK    9  A    between atoms: C22_37  and  C23_38
REMARK   10  A    between atoms: C23_38  and  C24_39
REMARK   11  A    between atoms: C28_46  and  C29_48
ROOT
HETATM    1  C7  UNL     1       4.507  25.514   3.735  1.00  0.00     0.178 C
HETATM    2  C8  UNL     1       5.920  25.002   3.778  1.00  0.00     0.037 C
HETATM    3  C9  UNL     1       6.786  25.719   2.752  1.00  0.00     0.028 C
HETATM    4  C10 UNL     1       7.993  24.781   2.574  1.00  0.00     0.094 C
HETATM    5  N3  UNL     1       8.294  24.107   3.794  1.00  0.00    -0.354 N
ATOM      6  H3  UNL     1       7.886  23.175   3.856  1.00  0.00     0.162 HD
HETATM    7  C12 UNL     1       9.031  24.466   4.912  1.00  0.00     0.240 C
HETATM    8  O2  UNL     1       9.257  23.500   5.749  1.00  0.00    -0.271 OA
HETATM    9  C13 UNL     1       9.604  25.754   5.320  1.00  0.00     0.177 C
HETATM   10  N4  UNL     1       8.719  26.818   5.618  1.00  0.00    -0.346 N
ATOM     11  H4  UNL     1       8.514  27.426   4.825  1.00  0.00     0.163 HD
HETATM   12  C18 UNL     1       8.072  27.188   6.808  1.00  0.00     0.240 C
HETATM   13  O3  UNL     1       8.305  28.356   7.315  1.00  0.00    -0.271 OA
HETATM   14  C19 UNL     1       7.109  26.413   7.627  1.00  0.00     0.172 C
HETATM   15  C20 UNL     1       7.829  25.931   8.871  1.00  0.00     0.042 C
HETATM   16  N5  UNL     1       6.038  27.295   8.129  1.00  0.00    -0.346 N
ATOM     17  H5  UNL     1       6.257  27.891   8.927  1.00  0.00     0.163 HD
HETATM   18  C21 UNL     1       4.751  27.377   7.601  1.00  0.00     0.241 C
HETATM   19  O4  UNL     1       3.767  27.565   8.404  1.00  0.00    -0.271 OA
HETATM   20  C22 UNL     1       4.370  27.270   6.174  1.00  0.00     0.177 C
HETATM   21  N6  UNL     1       3.548  26.065   5.972  1.00  0.00    -0.346 N
ATOM     22  H6  UNL     1       2.732  25.916   6.566  1.00  0.00     0.163 HD
HETATM   23  C27 UNL     1       3.858  25.111   4.980  1.00  0.00     0.241 C
HETATM   24  O5  UNL     1       3.568  23.919   5.181  1.00  0.00    -0.271 OA
ENDROOT
BRANCH   1  25
HETATM   25  N2  UNL     1       3.868  24.949   2.556  1.00  0.00    -0.330 N
HETATM   26  C6  UNL     1       3.199  25.741   1.599  1.00  0.00     0.317 C
HETATM   27  N1  UNL     1       2.595  25.170   0.468  1.00  0.00    -0.331 N
HETATM   28  O1  UNL     1       3.142  26.974   1.765  1.00  0.00    -0.247 OA
ATOM     29  H1  UNL     1       2.652  24.161   0.328  1.00  0.00     0.165 HD
ATOM     30  H2  UNL     1       3.905  23.939   2.415  1.00  0.00     0.165 HD
BRANCH  27  31
HETATM   31  C5  UNL     1       1.873  26.002  -0.531  1.00  0.00     0.160 C
BRANCH  31  32
HETATM   32  C3  UNL     1       0.478  25.499  -0.631  1.00  0.00     0.011 C
HETATM   33  C4  UNL     1      -0.542  26.311   0.137  1.00  0.00     0.012 C
BRANCH  32  34
HETATM   34  C2  UNL     1       0.298  24.074  -0.192  1.00  0.00     0.002 C
HETATM   35  C1  UNL     1      -0.492  23.288  -1.238  1.00  0.00     0.005 C
ENDBRANCH  32  34
ENDBRANCH  31  32
BRANCH  31  36
HETATM   36  C28 UNL     1       2.656  25.882  -1.775  1.00  0.00     0.153 C
HETATM   37  O6  UNL     1       3.841  26.253  -1.688  1.00  0.00    -0.295 OA
BRANCH  36  38
HETATM   38  C29 UNL     1       2.191  25.402  -3.064  1.00  0.00     0.049 C
HETATM   39  C30 UNL     1       2.501  23.892  -3.229  1.00  0.00     0.017 C
HETATM   40  C31 UNL     1       2.669  26.049  -4.307  1.00  0.00     0.017 C
ENDBRANCH  36  38
ENDBRANCH  31  36
ENDBRANCH  27  31
ENDBRANCH   1  25
BRANCH   4  41
HETATM   41  C11 UNL     1       9.102  25.456   1.857  1.00  0.00     0.110 C
HETATM   42 BR1  UNL     1      10.551  24.205   1.580  1.00  0.00    -0.094 Br
ENDBRANCH   4  41
BRANCH  20  43
HETATM   43  C23 UNL     1       3.487  28.425   5.752  1.00  0.00     0.038 C
BRANCH  43  44
HETATM   44  C24 UNL     1       2.049  28.000   5.536  1.00  0.00    -0.020 C
HETATM   45  C25 UNL     1       1.561  28.528   4.206  1.00  0.00     0.009 C
HETATM   46  C26 UNL     1       1.157  28.633   6.597  1.00  0.00     0.009 C
ENDBRANCH  43  44
ENDBRANCH  20  43
BRANCH   9  47
HETATM   47  C14 UNL     1      10.701  25.566   6.351  1.00  0.00     0.038 C
BRANCH  47  48
HETATM   48  C15 UNL     1      11.513  24.326   6.197  1.00  0.00    -0.020 C
HETATM   49  C16 UNL     1      12.282  24.084   7.523  1.00  0.00     0.009 C
HETATM   50  C17 UNL     1      12.647  24.477   5.177  1.00  0.00     0.009 C
ENDBRANCH  47  48
ENDBRANCH   9  47
TORSDOF 11
ENDMDL