MODEL 2
REMARK VINA RESULT: -11.075584188      2.197      3.820
REMARK  12 active torsions:
REMARK  status: ('A' for Active; 'I' for Inactive)
REMARK    1  A    between atoms: C2_2  and  C4_4
REMARK    2  A    between atoms: C4_4  and  C5_5
REMARK    3  A    between atoms: C5_5  and  N1_6
REMARK    4  A    between atoms: N1_6  and  N2_7
REMARK    5  A    between atoms: N1_6  and  S1_38
REMARK       I    between atoms: N2_7  and  C6_9
REMARK    6  A    between atoms: C6_9  and  C7_11
REMARK    7  A    between atoms: C7_11  and  C8_12
REMARK    8  A    between atoms: C7_11  and  N6_24
REMARK    9  A    between atoms: C8_12  and  C9_13
REMARK       I    between atoms: N3_17  and  C13_18
REMARK       I    between atoms: N6_24  and  C15_26
REMARK   10  A    between atoms: C15_26  and  C16_28
REMARK   11  A    between atoms: S1_38  and  C26_41
REMARK   12  A    between atoms: C29_44  and  N7_45
ROOT
HETATM    1  C7  UNL     1      10.044  22.717   5.205  1.00  0.00     0.201 C
ENDROOT
BRANCH   1   2
HETATM    2  C6  UNL     1      11.208  21.936   5.648  1.00  0.00     0.259 C
HETATM    3  N2  UNL     1      12.554  22.159   5.352  1.00  0.00    -0.270 N
ATOM      4  H2  UNL     1      12.788  22.973   4.783  1.00  0.00     0.185 HD
HETATM    5  O1  UNL     1      10.972  20.912   6.389  1.00  0.00    -0.269 OA
BRANCH   3   6
HETATM    6  N1  UNL     1      13.630  21.322   5.794  1.00  0.00    -0.089 NA
BRANCH   6   7
HETATM    7  C5  UNL     1      14.132  21.812   6.987  1.00  0.00     0.101 C
BRANCH   7   8
HETATM    8  C4  UNL     1      14.606  20.962   8.059  1.00  0.00     0.016 C
BRANCH   8   9
HETATM    9  C2  UNL     1      15.798  20.759   8.506  1.00  0.00    -0.087 C
HETATM   10  C1  UNL     1      16.028  19.602   9.478  1.00  0.00     0.043 C
HETATM   11  C3  UNL     1      17.011  21.513   8.161  1.00  0.00     0.043 C
ENDBRANCH   8   9
ENDBRANCH   7   8
ENDBRANCH   6   7
BRANCH   6  12
HETATM   12  S1  UNL     1      14.626  21.176   4.425  1.00  0.00     0.267 S
HETATM   13  O3  UNL     1      15.433  22.494   4.351  1.00  0.00    -0.204 OA
HETATM   14  O4  UNL     1      13.710  21.269   3.194  1.00  0.00    -0.204 OA
BRANCH  12  15
HETATM   15  C26 UNL     1      15.649  19.836   4.246  1.00  0.00     0.115 A
HETATM   16  C27 UNL     1      16.932  19.868   4.820  1.00  0.00     0.030 A
HETATM   17  C28 UNL     1      17.823  18.832   4.676  1.00  0.00     0.031 A
HETATM   18  C29 UNL     1      17.491  17.711   3.962  1.00  0.00     0.037 A
HETATM   19  C31 UNL     1      16.230  17.673   3.396  1.00  0.00     0.073 A
HETATM   20  C32 UNL     1      15.327  18.718   3.537  1.00  0.00     0.141 A
HETATM   21  F1  UNL     1      14.115  18.510   2.963  1.00  0.00    -0.204 F
BRANCH  18  22
HETATM   22  N7  UNL     1      18.379  16.623   3.811  1.00  0.00    -0.333 N
HETATM   23  C30 UNL     1      18.672  15.871   4.796  1.00  0.00     0.201 C
HETATM   24  N8  UNL     1      18.111  16.107   6.067  1.00  0.00    -0.066 NA
HETATM   25  N9  UNL     1      19.565  14.792   4.604  1.00  0.00    -0.066 NA
ATOM     26  H7  UNL     1      18.792  16.435   2.898  1.00  0.00     0.168 HD
ENDBRANCH  18  22
ENDBRANCH  12  15
ENDBRANCH   6  12
ENDBRANCH   3   6
ENDBRANCH   1   2
BRANCH   1  27
HETATM   27  C8  UNL     1      10.115  23.453   3.957  1.00  0.00     0.012 C
BRANCH  27  28
HETATM   28  C9  UNL     1       8.972  23.987   3.226  1.00  0.00    -0.063 C
HETATM   29  C10 UNL     1       7.682  23.283   3.181  1.00  0.00     0.037 C
HETATM   30  C11 UNL     1       6.534  24.254   3.507  1.00  0.00     0.024 C
HETATM   31  C12 UNL     1       6.555  25.296   2.376  1.00  0.00     0.126 C
HETATM   32  N3  UNL     1       7.829  25.967   2.522  1.00  0.00    -0.352 N
HETATM   33  C13 UNL     1       8.119  27.069   1.696  1.00  0.00     0.184 C
HETATM   34  C14 UNL     1       8.778  25.506   3.509  1.00  0.00     0.159 C
HETATM   35  N4  UNL     1       8.863  28.012   2.154  1.00  0.00    -0.374 N
HETATM   36  N5  UNL     1       7.623  27.189   0.366  1.00  0.00    -0.064 NA
ATOM     37  H42 UNL     1       9.218  27.927   3.106  1.00  0.00     0.158 HD
ATOM     38  H41 UNL     1       9.074  28.811   1.555  1.00  0.00     0.158 HD
ENDBRANCH  27  28
ENDBRANCH   1  27
BRANCH   1  39
HETATM   39  N6  UNL     1       9.758  23.622   6.346  1.00  0.00    -0.344 N
HETATM   40  C15 UNL     1      10.566  24.710   6.674  1.00  0.00     0.223 C
HETATM   41  O2  UNL     1      11.595  24.920   5.941  1.00  0.00    -0.273 OA
ATOM     42  H6  UNL     1       8.933  23.440   6.917  1.00  0.00     0.163 HD
BRANCH  40  43
HETATM   43  C16 UNL     1      10.354  25.642   7.782  1.00  0.00     0.086 C
HETATM   44  C17 UNL     1       9.731  26.958   7.385  1.00  0.00    -0.001 C
HETATM   45  C18 UNL     1       9.919  27.932   8.525  1.00  0.00     0.010 C
HETATM   46  C22 UNL     1       8.235  26.818   7.169  1.00  0.00     0.010 C
HETATM   47  C19 UNL     1       9.323  27.367   9.800  1.00  0.00    -0.013 C
HETATM   48  C20 UNL     1       7.825  27.284   9.596  1.00  0.00     0.009 C
HETATM   49  C25 UNL     1       9.920  26.012  10.143  1.00  0.00     0.010 C
HETATM   50  C21 UNL     1       7.580  26.341   8.434  1.00  0.00    -0.013 C
HETATM   51  C23 UNL     1       8.156  25.008   8.803  1.00  0.00     0.010 C
HETATM   52  C24 UNL     1       9.657  25.071   8.967  1.00  0.00    -0.001 C
ENDBRANCH  40  43
ENDBRANCH   1  39
TORSDOF 12
ENDMDL