MODEL 3
REMARK VINA RESULT: -7.636782112      2.971      7.576
REMARK  12 active torsions:
REMARK  status: ('A' for Active; 'I' for Inactive)
REMARK    1  A    between atoms: C2_2  and  C3_3
REMARK    2  A    between atoms: C3_3  and  N1_4
REMARK    3  A    between atoms: C7_8  and  C8_9
REMARK    4  A    between atoms: C8_9  and  C9_10
REMARK    5  A    between atoms: C13_15  and  C14_16
REMARK    6  A    between atoms: C19_24  and  C20_25
REMARK    7  A    between atoms: C20_25  and  C21_26
REMARK    8  A    between atoms: C21_26  and  C22_27
REMARK    9  A    between atoms: C22_27  and  N3_28
REMARK   10  A    between atoms: C25_37  and  C26_38
REMARK   11  A    between atoms: C31_49  and  C32_50
REMARK   12  A    between atoms: C32_50  and  C34_52
ROOT
HETATM    1  N1  UNL     1       1.606  28.229   7.099  1.00  0.00     0.105 N
HETATM    2  C4  UNL     1       2.872  27.587   7.129  1.00  0.00     0.314 C
HETATM    3  C5  UNL     1       3.256  26.850   5.841  1.00  0.00     0.142 C
HETATM    4  C6  UNL     1       4.595  26.213   6.159  1.00  0.00     0.068 C
HETATM    5  C7  UNL     1       5.728  26.637   5.305  1.00  0.00     0.091 C
HETATM    6  N2  UNL     1       6.464  25.489   4.749  1.00  0.00    -0.354 N
ATOM      7  H2  UNL     1       7.127  25.018   5.364  1.00  0.00     0.162 HD
HETATM    8  C18 UNL     1       6.331  24.991   3.454  1.00  0.00     0.240 C
HETATM    9  O1  UNL     1       6.660  23.766   3.276  1.00  0.00    -0.271 OA
HETATM   10  C19 UNL     1       5.859  25.686   2.239  1.00  0.00     0.176 C
HETATM   11  N6  UNL     1       4.648  25.175   1.674  1.00  0.00    -0.346 N
ATOM     12  H6  UNL     1       4.718  24.823   0.720  1.00  0.00     0.163 HD
HETATM   13  C24 UNL     1       3.377  25.096   2.263  1.00  0.00     0.241 C
HETATM   14  O2  UNL     1       2.380  25.686   1.703  1.00  0.00    -0.271 OA
HETATM   15  C25 UNL     1       3.005  24.385   3.510  1.00  0.00     0.180 C
HETATM   16  N7  UNL     1       2.074  25.099   4.342  1.00  0.00    -0.345 N
ATOM     17  H7  UNL     1       1.117  25.127   3.992  1.00  0.00     0.163 HD
HETATM   18  C29 UNL     1       2.277  25.758   5.551  1.00  0.00     0.248 C
HETATM   19  O3  UNL     1       1.548  25.403   6.549  1.00  0.00    -0.271 OA
HETATM   20  N8  UNL     1       3.277  27.851   4.827  1.00  0.00    -0.340 N
ATOM     21  H8  UNL     1       3.618  27.652   3.887  1.00  0.00     0.163 HD
HETATM   22  C30 UNL     1       2.793  29.163   5.198  1.00  0.00     0.252 C
HETATM   23  O4  UNL     1       3.322  30.209   4.747  1.00  0.00    -0.271 OA
HETATM   24  C31 UNL     1       1.645  29.314   6.130  1.00  0.00     0.317 C
ENDROOT
BRANCH   1  25
HETATM   25  C3  UNL     1       1.469  28.887   8.403  1.00  0.00     0.273 C
BRANCH  25  26
HETATM   26  C2  UNL     1       0.600  28.158   9.364  1.00  0.00     0.026 C
HETATM   27  C1  UNL     1      -0.543  27.423   8.750  1.00  0.00     0.007 C
ENDBRANCH  25  26
ENDBRANCH   1  25
BRANCH   5  28
HETATM   28  C8  UNL     1       6.668  27.597   5.941  1.00  0.00     0.063 C
BRANCH  28  29
HETATM   29  C9  UNL     1       7.497  27.153   7.033  1.00  0.00    -0.056 A
HETATM   30  C10 UNL     1       7.357  27.629   8.308  1.00  0.00     0.009 A
HETATM   31  C11 UNL     1       8.141  27.220   9.364  1.00  0.00     0.025 A
HETATM   32  C12 UNL     1       9.125  26.279   9.141  1.00  0.00     0.040 A
HETATM   33 CL1  UNL     1      10.112  25.770  10.508  1.00  0.00    -0.084 Cl
HETATM   34  C13 UNL     1       9.297  25.777   7.878  1.00  0.00    -0.033 A
HETATM   35  C17 UNL     1       8.487  26.214   6.836  1.00  0.00     0.016 A
BRANCH  34  36
HETATM   36  C14 UNL     1      10.373  24.761   7.668  1.00  0.00     0.012 C
HETATM   37  C15 UNL     1       9.864  23.654   6.752  1.00  0.00     0.015 C
HETATM   38  C16 UNL     1      11.632  25.353   7.120  1.00  0.00     0.015 C
ENDBRANCH  34  36
ENDBRANCH  28  29
ENDBRANCH   5  28
BRANCH  24  39
HETATM   39  C32 UNL     1       0.397  29.348   5.278  1.00  0.00     0.024 C
HETATM   40  C33 UNL     1      -0.512  30.414   5.879  1.00  0.00     0.012 C
BRANCH  39  41
HETATM   41  C34 UNL     1      -0.361  28.057   5.279  1.00  0.00     0.002 C
HETATM   42  C35 UNL     1      -0.466  27.581   3.847  1.00  0.00     0.005 C
ENDBRANCH  39  41
ENDBRANCH  24  39
BRANCH  15  43
HETATM   43  C26 UNL     1       2.382  23.062   3.013  1.00  0.00     0.009 C
HETATM   44  C27 UNL     1       3.131  21.865   3.543  1.00  0.00     0.012 C
HETATM   45  C28 UNL     1       0.932  22.945   3.299  1.00  0.00     0.012 C
ENDBRANCH  15  43
BRANCH  10  46
HETATM   46  C20 UNL     1       7.011  25.603   1.247  1.00  0.00     0.036 C
BRANCH  46  47
HETATM   47  C21 UNL     1       8.245  26.298   1.712  1.00  0.00     0.022 C
BRANCH  47  48
HETATM   48  C22 UNL     1       9.433  25.471   1.219  1.00  0.00     0.122 C
BRANCH  48  49
HETATM   49  N3  UNL     1       9.992  24.717   2.328  1.00  0.00    -0.367 N
HETATM   50  C23 UNL     1       9.892  23.432   2.376  1.00  0.00     0.196 C
HETATM   51  N4  UNL     1       9.239  22.702   1.362  1.00  0.00    -0.067 NA
HETATM   52  N5  UNL     1      10.453  22.736   3.477  1.00  0.00    -0.067 NA
ATOM     53  H3  UNL     1      10.472  25.211   3.081  1.00  0.00     0.161 HD
ENDBRANCH  48  49
ENDBRANCH  47  48
ENDBRANCH  46  47
ENDBRANCH  10  46
TORSDOF 12
ENDMDL