MODEL 3
REMARK VINA RESULT: -8.933070944      1.126      1.317
REMARK  13 active torsions:
REMARK  status: ('A' for Active; 'I' for Inactive)
REMARK    1  A    between atoms: C2_2  and  C4_4
REMARK    2  A    between atoms: C4_4  and  C5_5
REMARK    3  A    between atoms: C5_5  and  C6_6
REMARK       I    between atoms: C6_6  and  N1_8
REMARK    4  A    between atoms: N1_8  and  C7_10
REMARK    5  A    between atoms: N2_13  and  C10_14
REMARK    6  A    between atoms: C10_14  and  O2_15
REMARK    7  A    between atoms: C10_14  and  C11_17
REMARK    8  A    between atoms: C11_17  and  C12_18
REMARK    9  A    between atoms: C11_17  and  N4_26
REMARK   10  A    between atoms: C12_18  and  C13_19
REMARK       I    between atoms: N4_26  and  C18_28
REMARK       I    between atoms: C18_28  and  N5_30
REMARK   11  A    between atoms: C20_35  and  C21_36
REMARK       I    between atoms: C21_36  and  N8_38
REMARK   12  A    between atoms: N8_38  and  C22_40
REMARK   13  A    between atoms: C27_45  and  C28_46
ROOT
HETATM    1  C7  UNL     1       9.780  22.657   3.564  1.00  0.00     0.086 C
HETATM    2  C8  UNL     1       9.182  23.158   4.806  1.00  0.00     0.045 C
HETATM    3  C9  UNL     1       9.124  24.593   5.134  1.00  0.00     0.128 C
HETATM    4  N2  UNL     1       8.521  25.522   4.251  1.00  0.00    -0.346 N
HETATM    5  C20 UNL     1       8.245  25.339   2.831  1.00  0.00     0.183 C
HETATM    6  C27 UNL     1       9.385  24.616   2.170  1.00  0.00     0.030 C
HETATM    7  C29 UNL     1       9.213  23.150   2.285  1.00  0.00     0.033 C
ENDROOT
BRANCH   4   8
HETATM    8  C10 UNL     1       8.196  26.776   4.765  1.00  0.00     0.162 C
BRANCH   8   9
HETATM    9  O2  UNL     1       8.702  27.785   4.066  1.00  0.00    -0.345 OA
ATOM     10  H2  UNL     1       8.457  28.641   4.401  1.00  0.00     0.219 HD
ENDBRANCH   8   9
BRANCH   8  11
HETATM   11  C11 UNL     1       7.431  27.280   5.902  1.00  0.00     0.065 C
BRANCH  11  12
HETATM   12  C12 UNL     1       8.108  27.956   7.006  1.00  0.00     0.068 C
BRANCH  12  13
HETATM   13  C13 UNL     1       8.320  27.127   8.287  1.00  0.00     0.010 C
HETATM   14  C14 UNL     1       9.349  27.895   9.154  1.00  0.00     0.011 C
HETATM   15  C15 UNL     1       9.426  27.075  10.445  1.00  0.00     0.046 C
HETATM   16  C16 UNL     1      10.029  25.722  10.135  1.00  0.00     0.071 C
HETATM   17  N3  UNL     1      10.065  25.412   8.770  1.00  0.00    -0.328 N
HETATM   18 BR1  UNL     1      11.685  24.995   8.000  1.00  0.00     0.049 Br
HETATM   19  C17 UNL     1       9.026  25.863   7.911  1.00  0.00     0.140 C
ENDBRANCH  12  13
ENDBRANCH  11  12
BRANCH  11  20
HETATM   20  N4  UNL     1       6.189  26.586   6.119  1.00  0.00    -0.308 N
HETATM   21  C18 UNL     1       5.040  26.614   5.308  1.00  0.00     0.326 C
HETATM   22  O3  UNL     1       5.027  27.303   4.265  1.00  0.00    -0.247 OA
HETATM   23  N5  UNL     1       3.885  25.874   5.649  1.00  0.00    -0.285 N
HETATM   24  C19 UNL     1       2.688  26.331   5.701  1.00  0.00     0.204 C
ATOM     25  H5  UNL     1       4.016  24.888   5.873  1.00  0.00     0.172 HD
HETATM   26  N6  UNL     1       2.313  27.669   5.426  1.00  0.00    -0.066 NA
HETATM   27  N7  UNL     1       1.655  25.418   6.064  1.00  0.00    -0.066 NA
ATOM     28  H4  UNL     1       6.137  26.008   6.957  1.00  0.00     0.170 HD
ENDBRANCH  11  20
ENDBRANCH   8  11
ENDBRANCH   4   8
BRANCH   5  29
HETATM   29  C21 UNL     1       6.989  24.749   2.456  1.00  0.00     0.241 C
HETATM   30  O4  UNL     1       6.671  24.702   1.216  1.00  0.00    -0.271 OA
HETATM   31  N8  UNL     1       6.029  24.192   3.347  1.00  0.00    -0.355 N
ATOM     32  H8  UNL     1       6.228  24.206   4.348  1.00  0.00     0.162 HD
BRANCH  31  33
HETATM   33  C22 UNL     1       4.783  23.606   2.898  1.00  0.00     0.084 C
HETATM   34  C23 UNL     1       3.725  24.617   2.559  1.00  0.00     0.025 C
HETATM   35  C24 UNL     1       2.496  23.706   2.430  1.00  0.00     0.002 C
HETATM   36  C25 UNL     1       2.679  22.700   3.529  1.00  0.00     0.002 C
HETATM   37  C26 UNL     1       4.108  22.821   4.002  1.00  0.00     0.025 C
ENDBRANCH  31  33
ENDBRANCH   5  29
BRANCH   6  38
HETATM   38  C28 UNL     1       9.615  24.982   0.738  1.00  0.00     0.093 C
HETATM   39  S1  UNL     1      11.402  25.063   0.454  1.00  0.00    -0.097 SA
ENDBRANCH   6  38
BRANCH   1  40
HETATM   40  N1  UNL     1      11.211  22.843   3.580  1.00  0.00    -0.356 N
HETATM   41  C6  UNL     1      12.075  22.022   4.385  1.00  0.00     0.217 C
HETATM   42  O1  UNL     1      11.516  21.133   5.073  1.00  0.00    -0.274 OA
ATOM     43  H1  UNL     1      11.621  23.578   3.004  1.00  0.00     0.162 HD
BRANCH  41  44
HETATM   44  C5  UNL     1      13.537  22.162   4.444  1.00  0.00     0.103 C
BRANCH  44  45
HETATM   45  C4  UNL     1      14.288  21.469   3.349  1.00  0.00     0.013 C
BRANCH  45  46
HETATM   46  C2  UNL     1      13.994  20.012   3.187  1.00  0.00    -0.022 C
HETATM   47  C1  UNL     1      14.624  19.246   4.353  1.00  0.00     0.009 C
HETATM   48  C3  UNL     1      14.681  19.446   1.940  1.00  0.00     0.009 C
ENDBRANCH  45  46
ENDBRANCH  44  45
ENDBRANCH  41  44
ENDBRANCH   1  40
TORSDOF 13
ENDMDL