MODEL 2
REMARK VINA RESULT: -7.880024413      4.709     11.563
REMARK  11 active torsions:
REMARK  status: ('A' for Active; 'I' for Inactive)
REMARK    1  A    between atoms: C2_2  and  C3_3
REMARK    2  A    between atoms: C3_3  and  C4_4
REMARK    3  A    between atoms: C16_18  and  C17_19
REMARK       I    between atoms: C17_19  and  N2_21
REMARK    4  A    between atoms: N2_21  and  C18_23
REMARK    5  A    between atoms: C20_25  and  C21_26
REMARK       I    between atoms: C21_26  and  N3_28
REMARK    6  A    between atoms: N3_28  and  C22_30
REMARK    7  A    between atoms: C22_30  and  C23_31
REMARK    8  A    between atoms: C22_30  and  C25_35
REMARK    9  A    between atoms: C23_31  and  C24_32
REMARK   10  A    between atoms: C29_43  and  C30_44
REMARK   11  A    between atoms: C30_44  and  C31_45
ROOT
HETATM    1  C18 UNL     1      11.759  24.112   5.750  1.00  0.00     0.036 A
HETATM    2  C19 UNL     1      10.903  24.094   4.693  1.00  0.00     0.049 A
HETATM    3  C20 UNL     1       9.562  24.502   4.743  1.00  0.00     0.061 A
HETATM    4  C26 UNL     1       9.092  24.949   5.957  1.00  0.00     0.059 A
HETATM    5  N5  UNL     1       7.896  25.381   6.386  1.00  0.00    -0.358 N
ATOM      6  H5  UNL     1       7.064  25.468   5.803  1.00  0.00     0.166 HD
HETATM    7  C27 UNL     1       7.955  25.689   7.718  1.00  0.00     0.013 A
HETATM    8  C28 UNL     1       6.832  26.197   8.540  1.00  0.00     0.068 C
HETATM    9  C29 UNL     1       9.215  25.448   8.153  1.00  0.00    -0.015 A
HETATM   10  C32 UNL     1       9.959  24.977   7.062  1.00  0.00     0.002 A
HETATM   11  C33 UNL     1      11.256  24.569   6.960  1.00  0.00     0.044 A
ENDROOT
BRANCH   1  12
HETATM   12  N2  UNL     1      13.109  23.664   5.741  1.00  0.00    -0.326 N
HETATM   13  C17 UNL     1      13.599  22.470   6.320  1.00  0.00     0.231 C
HETATM   14  O2  UNL     1      12.785  21.743   6.894  1.00  0.00    -0.272 OA
ATOM     15  H2  UNL     1      13.790  24.261   5.272  1.00  0.00     0.169 HD
BRANCH  13  16
HETATM   16  C16 UNL     1      15.048  22.207   6.180  1.00  0.00     0.051 C
HETATM   17  C8  UNL     1      15.490  20.805   6.110  1.00  0.00     0.034 C
HETATM   18  C7  UNL     1      15.934  20.353   7.464  1.00  0.00     0.033 C
HETATM   19  C9  UNL     1      14.646  19.834   5.383  1.00  0.00     0.093 C
HETATM   20  C6  UNL     1      14.936  19.651   8.305  1.00  0.00     0.009 C
HETATM   21  C35 UNL     1      16.473  21.627   8.051  1.00  0.00     0.109 C
HETATM   22  C5  UNL     1      15.238  19.577   9.761  1.00  0.00     0.005 C
HETATM   23  C4  UNL     1      16.313  20.453  10.280  1.00  0.00    -0.008 C
HETATM   24  C36 UNL     1      16.348  21.727   9.529  1.00  0.00     0.049 C
HETATM   25  C34 UNL     1      15.710  22.760   7.428  1.00  0.00     0.063 C
HETATM   26  F1  UNL     1      17.806  21.791   7.724  1.00  0.00    -0.242 F
HETATM   27  C10 UNL     1      15.535  18.635   5.006  1.00  0.00     0.027 C
HETATM   28  N1  UNL     1      14.274  20.259   4.068  1.00  0.00    -0.347 N
HETATM   29  C11 UNL     1      14.884  18.068   3.752  1.00  0.00     0.022 C
HETATM   30  C12 UNL     1      13.783  19.044   3.413  1.00  0.00     0.126 C
HETATM   31  C13 UNL     1      14.327  21.524   3.449  1.00  0.00     0.220 C
HETATM   32  O1  UNL     1      13.422  21.686   2.560  1.00  0.00    -0.273 OA
HETATM   33  C14 UNL     1      15.231  22.627   3.674  1.00  0.00     0.104 C
HETATM   34  C15 UNL     1      15.629  22.988   5.021  1.00  0.00     0.029 C
BRANCH  23  35
HETATM   35  C3  UNL     1      17.647  19.751  10.415  1.00  0.00     0.031 C
BRANCH  35  36
HETATM   36  C2  UNL     1      17.451  18.331  10.783  1.00  0.00    -0.037 C
HETATM   37  C1  UNL     1      18.116  17.395  10.127  1.00  0.00     0.007 C
ENDBRANCH  35  36
ENDBRANCH  23  35
ENDBRANCH  13  16
ENDBRANCH   1  12
BRANCH   3  38
HETATM   38  C21 UNL     1       8.785  24.497   3.534  1.00  0.00     0.254 C
HETATM   39  O3  UNL     1       8.756  23.364   2.913  1.00  0.00    -0.268 OA
HETATM   40  N3  UNL     1       8.084  25.546   2.967  1.00  0.00    -0.342 N
ATOM     41  H3  UNL     1       8.081  26.463   3.411  1.00  0.00     0.163 HD
BRANCH  40  42
HETATM   42  C22 UNL     1       7.327  25.317   1.688  1.00  0.00     0.194 C
BRANCH  42  43
HETATM   43  C23 UNL     1       5.938  24.970   2.096  1.00  0.00     0.135 C
BRANCH  43  44
HETATM   44  C24 UNL     1       5.200  26.088   2.689  1.00  0.00     0.233 C
HETATM   45  N4  UNL     1       3.892  26.406   2.144  1.00  0.00    -0.062 NA
HETATM   46  O4  UNL     1       5.562  26.824   3.634  1.00  0.00    -0.277 OA
ENDBRANCH  43  44
ENDBRANCH  42  43
BRANCH  42  47
HETATM   47  C25 UNL     1       7.436  26.572   0.901  1.00  0.00     0.197 C
HETATM   48  O5  UNL     1       8.041  27.586   1.399  1.00  0.00    -0.646 OA
HETATM   49  O6  UNL     1       6.933  26.767  -0.363  1.00  0.00    -0.646 OA
ENDBRANCH  42  47
ENDBRANCH  40  42
ENDBRANCH   3  38
BRANCH   9  50
HETATM   50  C30 UNL     1       9.787  25.620   9.510  1.00  0.00     0.141 C
BRANCH  50  51
HETATM   51  C31 UNL     1      10.227  27.013   9.750  1.00  0.00     0.235 C
HETATM   52  N6  UNL     1       9.297  27.962  10.240  1.00  0.00    -0.062 NA
HETATM   53  O7  UNL     1      11.412  27.360   9.523  1.00  0.00    -0.277 OA
ENDBRANCH  50  51
ENDBRANCH   9  50
TORSDOF 11
ENDMDL