MODEL 2
REMARK VINA RESULT: -9.955885236      2.498     10.337
REMARK  14 active torsions:
REMARK  status: ('A' for Active; 'I' for Inactive)
REMARK    1  A    between atoms: C2_2  and  C4_4
REMARK    2  A    between atoms: C4_4  and  N1_5
REMARK    3  A    between atoms: C10_12  and  C11_13
REMARK    4  A    between atoms: C11_13  and  C12_14
REMARK    5  A    between atoms: C12_14  and  C13_15
REMARK    6  A    between atoms: C13_15  and  C14_16
REMARK    7  A    between atoms: C14_16  and  N2_17
REMARK       I    between atoms: N2_17  and  C15_19
REMARK       I    between atoms: C15_19  and  N5_32
REMARK       I    between atoms: N3_20  and  C16_22
REMARK    8  A    between atoms: C16_22  and  C17_24
REMARK    9  A    between atoms: C17_24  and  N4_25
REMARK   10  A    between atoms: C17_24  and  C18_29
REMARK   11  A    between atoms: C18_29  and  O2_30
REMARK   12  A    between atoms: N5_32  and  C19_34
REMARK   13  A    between atoms: C19_34  and  C20_35
REMARK   14  A    between atoms: C27_47  and  C28_48
ROOT
HETATM    1  C13 UNL     1      13.935  20.658   3.897  1.00  0.00     0.020 C
ENDROOT
BRANCH   1   2
HETATM    2  C12 UNL     1      12.663  21.380   4.267  1.00  0.00     0.003 C
BRANCH   2   3
HETATM    3  C11 UNL     1      12.840  22.858   4.149  1.00  0.00     0.018 C
BRANCH   3   4
HETATM    4  C10 UNL     1      11.477  23.569   4.047  1.00  0.00     0.100 C
HETATM    5  C9  UNL     1      10.466  22.516   4.088  1.00  0.00    -0.017 C
HETATM    6  C8  UNL     1       9.563  22.243   3.190  1.00  0.00    -0.028 C
HETATM    7  C7  UNL     1       9.361  22.954   1.904  1.00  0.00     0.048 C
HETATM    8  C6  UNL     1       8.382  24.098   2.035  1.00  0.00     0.103 C
HETATM    9  C5  UNL     1       7.573  24.041   3.284  1.00  0.00     0.146 C
HETATM   10 CL1  UNL     1       9.166  25.674   1.780  1.00  0.00    -0.123 Cl
HETATM   11  N1  UNL     1       7.380  25.415   3.802  1.00  0.00    -0.349 N
HETATM   12  C34 UNL     1       8.053  25.885   4.931  1.00  0.00     0.243 C
HETATM   13  C27 UNL     1       8.965  25.108   5.810  1.00  0.00     0.180 C
HETATM   14  O5  UNL     1       7.898  27.100   5.277  1.00  0.00    -0.271 OA
HETATM   15  N7  UNL     1      10.321  25.437   5.401  1.00  0.00    -0.347 N
HETATM   16  C26 UNL     1      11.392  24.598   5.098  1.00  0.00     0.226 C
ATOM     17  H7  UNL     1      10.519  26.435   5.324  1.00  0.00     0.163 HD
HETATM   18  O4  UNL     1      12.435  24.756   5.842  1.00  0.00    -0.273 OA
BRANCH  11  19
HETATM   19  C4  UNL     1       6.453  26.230   3.072  1.00  0.00     0.129 C
BRANCH  19  20
HETATM   20  C2  UNL     1       5.059  25.706   3.080  1.00  0.00    -0.005 C
HETATM   21  C1  UNL     1       4.493  25.717   1.651  1.00  0.00     0.011 C
HETATM   22  C3  UNL     1       4.147  26.509   3.965  1.00  0.00     0.011 C
ENDBRANCH  19  20
ENDBRANCH  11  19
BRANCH  13  23
HETATM   23  C28 UNL     1       8.879  25.556   7.274  1.00  0.00     0.018 C
HETATM   24  C29 UNL     1       9.015  24.449   8.259  1.00  0.00     0.007 C
HETATM   25  C30 UNL     1       8.778  25.093   9.640  1.00  0.00     0.000 C
HETATM   26  C31 UNL     1       9.924  25.998   9.963  1.00  0.00     0.000 C
HETATM   27  C32 UNL     1      10.797  26.217   8.769  1.00  0.00     0.000 C
HETATM   28  C33 UNL     1       9.998  26.565   7.552  1.00  0.00     0.007 C
ENDBRANCH  13  23
ENDBRANCH   3   4
ENDBRANCH   2   3
ENDBRANCH   1   2
BRANCH   1  29
HETATM   29  C14 UNL     1      15.149  21.515   4.058  1.00  0.00     0.138 C
BRANCH  29  30
HETATM   30  N2  UNL     1      16.047  21.098   5.110  1.00  0.00    -0.226 N
HETATM   31  C15 UNL     1      15.809  20.002   5.983  1.00  0.00     0.677 C
HETATM   32  N3  UNL     1      16.389  18.887   5.655  1.00  0.00    -0.158 N
HETATM   33  N5  UNL     1      14.991  20.133   7.112  1.00  0.00    -0.208 N
HETATM   34  C16 UNL     1      17.202  18.738   4.518  1.00  0.00     0.268 C
ATOM     35  H3  UNL     1      16.247  18.074   6.256  1.00  0.00     0.187 HD
HETATM   36  O1  UNL     1      17.834  19.735   4.077  1.00  0.00    -0.270 OA
ATOM     37  H5  UNL     1      13.988  20.022   6.962  1.00  0.00     0.179 HD
ATOM     38  H2  UNL     1      16.910  21.626   5.235  1.00  0.00     0.177 HD
BRANCH  34  39
HETATM   39  C17 UNL     1      17.318  17.423   3.841  1.00  0.00     0.298 C
BRANCH  39  40
HETATM   40  N4  UNL     1      18.701  17.064   3.767  1.00  0.00    -0.064 N
ATOM     41  H43 UNL     1      18.852  16.203   3.240  1.00  0.00     0.275 HD
ATOM     42  H42 UNL     1      19.236  17.692   3.166  1.00  0.00     0.275 HD
ATOM     43  H41 UNL     1      19.079  17.015   4.712  1.00  0.00     0.275 HD
ENDBRANCH  39  40
BRANCH  39  44
HETATM   44  C18 UNL     1      16.729  17.573   2.459  1.00  0.00     0.206 C
BRANCH  44  45
HETATM   45  O2  UNL     1      17.425  18.511   1.699  1.00  0.00    -0.398 OA
ATOM     46  H2  UNL     1      16.853  18.967   1.091  1.00  0.00     0.209 HD
ENDBRANCH  44  45
ENDBRANCH  39  44
ENDBRANCH  34  39
BRANCH  33  47
HETATM   47  C19 UNL     1      15.414  20.411   8.468  1.00  0.00     0.125 C
HETATM   48  C21 UNL     1      16.752  21.061   8.392  1.00  0.00     0.041 C
HETATM   49  C22 UNL     1      17.481  21.191   9.686  1.00  0.00     0.003 C
HETATM   50  C23 UNL     1      17.466  19.949  10.519  1.00  0.00     0.000 C
HETATM   51  C24 UNL     1      16.817  18.786   9.799  1.00  0.00     0.003 C
HETATM   52  C25 UNL     1      15.457  19.141   9.263  1.00  0.00     0.041 C
BRANCH  47  53
HETATM   53  C20 UNL     1      14.387  21.337   9.067  1.00  0.00     0.260 C
HETATM   54  N6  UNL     1      13.670  22.166   8.163  1.00  0.00    -0.060 NA
HETATM   55  O3  UNL     1      14.188  21.363  10.296  1.00  0.00    -0.274 OA
ENDBRANCH  47  53
ENDBRANCH  33  47
ENDBRANCH  29  30
ENDBRANCH   1  29
TORSDOF 14
ENDMDL