MODEL 2
REMARK VINA RESULT: -6.834252618      0.769      1.019
REMARK  14 active torsions:
REMARK  status: ('A' for Active; 'I' for Inactive)
REMARK    1  A    between atoms: C5_5  and  C6_6
REMARK    2  A    between atoms: C6_6  and  C7_7
REMARK    3  A    between atoms: C9_12  and  C10_13
REMARK    4  A    between atoms: C10_13  and  C11_14
REMARK    5  A    between atoms: C15_21  and  C16_22
REMARK    6  A    between atoms: C16_22  and  C17_23
REMARK    7  A    between atoms: C17_23  and  C18_24
REMARK    8  A    between atoms: C18_24  and  N3_25
REMARK    9  A    between atoms: C21_32  and  O3_33
REMARK   10  A    between atoms: C22_35  and  C23_36
REMARK   11  A    between atoms: C23_36  and  C24_37
REMARK   12  A    between atoms: N8_45  and  C30_46
REMARK   13  A    between atoms: C30_46  and  C31_47
REMARK   14  A    between atoms: C34_51  and  O4_52
ROOT
HETATM    1  C7  UNL     1       4.546  24.252   2.788  1.00  0.00     0.195 C
HETATM    2  N1  UNL     1       4.982  24.881   1.554  1.00  0.00    -0.337 N
ATOM      3  H1  UNL     1       4.407  24.713   0.729  1.00  0.00     0.164 HD
HETATM    4  C8  UNL     1       6.117  25.700   1.378  1.00  0.00     0.242 C
HETATM    5  O1  UNL     1       6.091  26.601   0.497  1.00  0.00    -0.271 OA
HETATM    6  C9  UNL     1       7.368  25.595   2.155  1.00  0.00     0.177 C
HETATM    7  N2  UNL     1       7.492  26.694   3.091  1.00  0.00    -0.346 N
ATOM      8  H2  UNL     1       6.778  27.414   2.982  1.00  0.00     0.163 HD
HETATM    9  C14 UNL     1       8.386  26.947   4.092  1.00  0.00     0.241 C
HETATM   10  O2  UNL     1       8.995  28.086   4.045  1.00  0.00    -0.271 OA
HETATM   11  C15 UNL     1       8.835  26.162   5.284  1.00  0.00     0.177 C
HETATM   12  N6  UNL     1       8.390  26.864   6.505  1.00  0.00    -0.355 N
HETATM   13  C20 UNL     1       9.335  26.852   7.628  1.00  0.00     0.152 C
HETATM   14  C21 UNL     1       7.210  27.568   6.717  1.00  0.00     0.137 C
HETATM   15  C22 UNL     1       5.802  27.390   6.466  1.00  0.00     0.152 C
HETATM   16  N7  UNL     1       5.231  26.277   5.910  1.00  0.00    -0.405 N
ATOM     17  H7  UNL     1       5.593  25.341   6.096  1.00  0.00     0.154 HD
HETATM   18  C27 UNL     1       4.086  26.491   5.040  1.00  0.00     0.167 C
HETATM   19  C28 UNL     1       3.484  25.201   4.656  1.00  0.00     0.004 C
HETATM   20  C29 UNL     1       2.295  24.943   5.593  1.00  0.00     0.065 C
HETATM   21  N8  UNL     1       3.310  24.845   3.321  1.00  0.00    -0.343 N
ENDROOT
BRANCH   1  22
HETATM   22  C6  UNL     1       4.528  22.786   2.550  1.00  0.00     0.088 C
BRANCH  22  23
HETATM   23  C5  UNL     1       3.291  22.061   2.642  1.00  0.00    -0.021 A
HETATM   24  C4  UNL     1       2.434  22.042   1.568  1.00  0.00     0.010 A
HETATM   25  C3  UNL     1       1.266  21.323   1.571  1.00  0.00     0.007 A
HETATM   26  C2  UNL     1       0.905  20.585   2.665  1.00  0.00    -0.059 A
HETATM   27  C1  UNL     1      -0.363  19.810   2.658  1.00  0.00     0.048 C
HETATM   28  C35 UNL     1       1.750  20.593   3.749  1.00  0.00     0.043 A
HETATM   29  C34 UNL     1       2.948  21.333   3.746  1.00  0.00     0.072 A
BRANCH  29  30
HETATM   30  O4  UNL     1       3.674  21.241   4.913  1.00  0.00    -0.360 OA
ATOM     31  H4  UNL     1       3.321  21.274   5.795  1.00  0.00     0.217 HD
ENDBRANCH  29  30
ENDBRANCH  22  23
ENDBRANCH   1  22
BRANCH  21  32
HETATM   32  C30 UNL     1       2.694  25.550   2.322  1.00  0.00     0.091 C
BRANCH  32  33
HETATM   33  C31 UNL     1       1.268  25.536   1.969  1.00  0.00     0.062 C
HETATM   34  C32 UNL     1       0.622  26.917   2.353  1.00  0.00     0.038 C
HETATM   35  C33 UNL     1       0.874  25.335   0.557  1.00  0.00     0.038 C
HETATM   36 CL1  UNL     1       0.265  24.443   2.999  1.00  0.00    -0.114 Cl
ENDBRANCH  32  33
ENDBRANCH  21  32
BRANCH   6  37
HETATM   37  C10 UNL     1       8.541  25.491   1.235  1.00  0.00     0.038 C
BRANCH  37  38
HETATM   38  C11 UNL     1       9.636  24.590   1.593  1.00  0.00    -0.020 C
HETATM   39  C12 UNL     1       9.266  23.132   1.690  1.00  0.00     0.009 C
HETATM   40  C13 UNL     1      10.929  24.818   0.893  1.00  0.00     0.009 C
ENDBRANCH  37  38
ENDBRANCH   6  37
BRANCH  15  41
HETATM   41  C23 UNL     1       5.049  27.653   7.794  1.00  0.00     0.037 C
BRANCH  41  42
HETATM   42  C24 UNL     1       3.579  27.866   7.504  1.00  0.00    -0.012 A
HETATM   43  C25 UNL     1       2.980  29.195   7.820  1.00  0.00     0.005 A
HETATM   44  C26 UNL     1       2.629  28.048   8.665  1.00  0.00     0.005 A
ENDBRANCH  41  42
ENDBRANCH  15  41
BRANCH  11  45
HETATM   45  C16 UNL     1       8.467  24.735   5.223  1.00  0.00     0.037 C
BRANCH  45  46
HETATM   46  C17 UNL     1       9.568  23.726   5.322  1.00  0.00     0.022 C
BRANCH  46  47
HETATM   47  C18 UNL     1       9.984  23.340   6.696  1.00  0.00     0.122 C
BRANCH  47  48
HETATM   48  N3  UNL     1      11.421  23.126   6.727  1.00  0.00    -0.367 N
HETATM   49  C19 UNL     1      11.955  21.966   6.554  1.00  0.00     0.196 C
HETATM   50  N4  UNL     1      13.375  21.885   6.606  1.00  0.00    -0.067 NA
HETATM   51  N5  UNL     1      11.236  20.786   6.321  1.00  0.00    -0.067 NA
ATOM     52  H3  UNL     1      12.031  23.926   6.892  1.00  0.00     0.161 HD
ENDBRANCH  47  48
ENDBRANCH  46  47
ENDBRANCH  45  46
ENDBRANCH  11  45
BRANCH  14  53
HETATM   53  O3  UNL     1       7.408  28.727   7.317  1.00  0.00    -0.348 OA
ATOM     54  H3  UNL     1       7.725  28.630   8.208  1.00  0.00     0.219 HD
ENDBRANCH  14  53
TORSDOF 14
ENDMDL