MODEL 4
REMARK VINA RESULT: -6.756123414      3.759      6.396
REMARK  1 active torsions:
REMARK  status: ('A' for Active; 'I' for Inactive)
REMARK       I    between atoms: C2_2  and  N1_4
REMARK    1  A    between atoms: N1_4  and  N2_6
ROOT
HETATM    1  N2  UNL     1     117.021  40.542  66.178  1.00  0.00    -0.277 N
ATOM      2  H2  UNL     1     117.273  39.574  65.976  1.00  0.00     0.189 HD
HETATM    3  C3  UNL     1     117.519  41.039  67.225  1.00  0.00     0.206 C
HETATM    4  N3  UNL     1     118.365  40.188  67.986  1.00  0.00    -0.260 N
ATOM      5  H3  UNL     1     118.656  39.348  67.486  1.00  0.00     0.190 HD
HETATM    6  N4  UNL     1     118.871  40.271  69.269  1.00  0.00    -0.197 N
ATOM      7  H4  UNL     1     118.938  39.453  69.876  1.00  0.00     0.216 HD
HETATM    8  O2  UNL     1     119.273  41.499  69.675  1.00  0.00    -0.186 OA
HETATM    9  C4  UNL     1     118.751  42.778  69.585  1.00  0.00     0.245 C
HETATM   10  N5  UNL     1     119.197  43.688  70.388  1.00  0.00    -0.364 N
ATOM     11  H51 UNL     1     118.812  44.631  70.322  1.00  0.00     0.159 HD
ATOM     12  H52 UNL     1     119.918  43.383  71.042  1.00  0.00     0.159 HD
HETATM   13  N6  UNL     1     117.742  43.205  68.671  1.00  0.00    -0.285 N
ATOM     14  H6  UNL     1     117.367  44.145  68.798  1.00  0.00     0.172 HD
HETATM   15  C5  UNL     1     117.202  42.419  67.576  1.00  0.00     0.295 C
HETATM   16  O3  UNL     1     116.367  42.957  66.827  1.00  0.00    -0.264 OA
ENDROOT
BRANCH   1  17
HETATM   17  N1  UNL     1     116.181  41.147  65.277  1.00  0.00    -0.269 N
HETATM   18  C2  UNL     1     116.291  41.053  63.863  1.00  0.00     0.232 C
HETATM   19  C1  UNL     1     115.392  41.701  62.916  1.00  0.00     0.119 C
HETATM   20  O1  UNL     1     117.251  40.348  63.426  1.00  0.00    -0.272 OA
ATOM     21  H1  UNL     1     115.416  41.710  65.652  1.00  0.00     0.190 HD
ENDBRANCH   1  17
TORSDOF 1
ENDMDL