MODEL 5
REMARK VINA RESULT: -6.940483022      1.825      2.287
REMARK  2 active torsions:
REMARK  status: ('A' for Active; 'I' for Inactive)
REMARK       I    between atoms: C2_2  and  N1_4
REMARK    1  A    between atoms: N1_4  and  N2_6
REMARK    2  A    between atoms: N3_8  and  C3_10
ROOT
HETATM    1  C3  UNL     1     119.258  40.197  62.250  1.00  0.00     0.205 A
HETATM    2  N4  UNL     1     119.182  39.359  61.210  1.00  0.00    -0.276 N
ATOM      3  H4  UNL     1     119.426  39.699  60.280  1.00  0.00     0.189 HD
HETATM    4  N5  UNL     1     118.797  38.102  61.355  1.00  0.00    -0.250 N
ATOM      5  H5  UNL     1     118.752  37.499  60.534  1.00  0.00     0.192 HD
HETATM    6  C4  UNL     1     118.463  37.598  62.554  1.00  0.00     0.341 A
HETATM    7  O2  UNL     1     118.095  36.398  62.705  1.00  0.00    -0.245 OA
HETATM    8  N6  UNL     1     118.528  38.400  63.610  1.00  0.00    -0.271 N
ATOM      9  H6  UNL     1     118.280  38.039  64.531  1.00  0.00     0.174 HD
HETATM   10  C5  UNL     1     118.922  39.697  63.484  1.00  0.00     0.296 A
HETATM   11  O3  UNL     1     118.961  40.408  64.543  1.00  0.00    -0.264 OA
ENDROOT
BRANCH   1  12
HETATM   12  N3  UNL     1     119.653  41.544  62.162  1.00  0.00    -0.265 N
HETATM   13  N2  UNL     1     118.838  42.471  61.962  1.00  0.00    -0.238 N
ATOM     14  H2  UNL     1     119.236  43.409  61.916  1.00  0.00     0.208 HD
ATOM     15  H3  UNL     1     120.641  41.774  62.264  1.00  0.00     0.190 HD
BRANCH  13  16
HETATM   16  N1  UNL     1     117.476  42.392  61.798  1.00  0.00    -0.256 N
HETATM   17  C2  UNL     1     116.548  42.650  62.826  1.00  0.00     0.233 C
HETATM   18  C1  UNL     1     115.082  42.525  62.510  1.00  0.00     0.119 C
HETATM   19  O1  UNL     1     116.833  42.975  63.986  1.00  0.00    -0.272 OA
ATOM     20  H1  UNL     1     117.117  42.132  60.879  1.00  0.00     0.191 HD
ENDBRANCH  13  16
ENDBRANCH   1  12
TORSDOF 2
ENDMDL