MODEL 2
REMARK VINA RESULT: -6.593284774      5.206      6.787
REMARK  4 active torsions:
REMARK  status: ('A' for Active; 'I' for Inactive)
REMARK    1  A    between atoms: O1_2  and  C2_3
REMARK    2  A    between atoms: C2_3  and  C3_7
REMARK    3  A    between atoms: N5_17  and  N6_19
REMARK    4  A    between atoms: N6_19  and  O3_21
ROOT
HETATM    1  C3  UNL     1     118.019  40.807  62.846  1.00  0.00     0.101 A
HETATM    2  C4  UNL     1     118.791  41.818  62.317  1.00  0.00     0.138 A
HETATM    3  N2  UNL     1     118.162  43.088  62.131  1.00  0.00    -0.081 NA
HETATM    4  N3  UNL     1     120.099  41.621  61.984  1.00  0.00    -0.296 N
ATOM      5  H3  UNL     1     120.662  42.377  61.593  1.00  0.00     0.171 HD
HETATM    6  C5  UNL     1     120.621  40.401  62.187  1.00  0.00     0.327 A
HETATM    7  O2  UNL     1     121.821  40.209  61.886  1.00  0.00    -0.247 OA
HETATM    8  N4  UNL     1     119.910  39.384  62.700  1.00  0.00    -0.292 N
ATOM      9  H4  UNL     1     120.348  38.473  62.839  1.00  0.00     0.172 HD
HETATM   10  C6  UNL     1     118.598  39.572  63.036  1.00  0.00     0.143 A
HETATM   11  N5  UNL     1     117.871  38.643  63.527  1.00  0.00    -0.265 N
ATOM     12  H5  UNL     1     116.895  38.815  63.768  1.00  0.00     0.190 HD
ENDROOT
BRANCH   1  13
HETATM   13  C2  UNL     1     116.610  41.058  63.193  1.00  0.00     0.153 C
HETATM   14  N1  UNL     1     115.765  41.447  62.306  1.00  0.00    -0.379 N
ATOM     15  H12 UNL     1     114.789  41.621  62.546  1.00  0.00     0.158 HD
ATOM     16  H11 UNL     1     116.090  41.580  61.348  1.00  0.00     0.158 HD
BRANCH  13  17
HETATM   17  O1  UNL     1     116.168  40.879  64.492  1.00  0.00    -0.340 OA
HETATM   18  C1  UNL     1     116.751  41.513  65.606  1.00  0.00     0.211 C
ENDBRANCH  13  17
ENDBRANCH   1  13
BRANCH  11  19
HETATM   19  N6  UNL     1     118.446  37.386  63.726  1.00  0.00    -0.208 N
ATOM     20  H6  UNL     1     118.893  37.208  64.625  1.00  0.00     0.215 HD
BRANCH  19  21
HETATM   21  O3  UNL     1     118.450  36.480  62.895  1.00  0.00    -0.274 OA
ATOM     22  H3  UNL     1     119.221  36.178  62.428  1.00  0.00     0.246 HD
ENDBRANCH  19  21
ENDBRANCH  11  19
TORSDOF 4
ENDMDL