MODEL 3
REMARK VINA RESULT: -6.161712821      1.392      1.407
REMARK  3 active torsions:
REMARK  status: ('A' for Active; 'I' for Inactive)
REMARK    1  A    between atoms: O1_2  and  N1_3
REMARK    2  A    between atoms: C2_5  and  C3_6
REMARK    3  A    between atoms: C5_11  and  N4_12
ROOT
HETATM    1  C3  UNL     1     117.940  41.463  64.365  1.00  0.00     0.068 A
HETATM    2  C4  UNL     1     118.075  41.412  63.001  1.00  0.00     0.147 A
HETATM    3  N2  UNL     1     117.725  42.567  62.246  1.00  0.00    -0.081 NA
HETATM    4  N3  UNL     1     118.523  40.327  62.356  1.00  0.00    -0.178 N
ATOM      5  H3  UNL     1     118.613  40.320  61.340  1.00  0.00     0.185 HD
HETATM    6  C5  UNL     1     118.854  39.241  63.090  1.00  0.00     0.678 A
HETATM    7  N5  UNL     1     118.736  39.248  64.416  1.00  0.00    -0.175 N
ATOM      8  H5  UNL     1     118.995  38.407  64.931  1.00  0.00     0.186 HD
HETATM    9  C6  UNL     1     118.282  40.337  65.125  1.00  0.00     0.145 A
HETATM   10  N6  UNL     1     118.182  40.334  66.334  1.00  0.00    -0.278 N
ATOM     11  H6  UNL     1     118.503  39.393  66.556  1.00  0.00     0.179 HD
HETATM   12  C7  UNL     1     117.925  40.780  67.484  1.00  0.00     0.183 C
HETATM   13  N7  UNL     1     117.677  41.171  68.532  1.00  0.00    -0.172 NA
ENDROOT
BRANCH   1  14
HETATM   14  C2  UNL     1     117.457  42.666  64.992  1.00  0.00     0.132 C
HETATM   15  N1  UNL     1     116.197  42.977  64.889  1.00  0.00    -0.277 N
ATOM     16  H1  UNL     1     115.605  42.338  64.358  1.00  0.00     0.193 HD
BRANCH  15  17
HETATM   17  O1  UNL     1     115.600  44.068  65.419  1.00  0.00    -0.286 OA
HETATM   18  C1  UNL     1     116.238  45.078  66.119  1.00  0.00     0.237 C
ENDBRANCH  15  17
ENDBRANCH   1  14
BRANCH   6  19
HETATM   19  N4  UNL     1     119.286  38.193  62.463  1.00  0.00    -0.234 N
ATOM     20  H42 UNL     1     120.283  38.046  62.308  1.00  0.00     0.174 HD
ATOM     21  H41 UNL     1     118.597  37.518  62.130  1.00  0.00     0.174 HD
ENDBRANCH   6  19
TORSDOF 3
ENDMDL