MODEL 2
REMARK VINA RESULT: -7.035946365      2.448      4.674
REMARK  2 active torsions:
REMARK  status: ('A' for Active; 'I' for Inactive)
REMARK    1  A    between atoms: N1_1  and  C1_4
REMARK    2  A    between atoms: C2_7  and  N3_8
ROOT
HETATM    1  C1  UNL     1     118.077  40.405  65.194  1.00  0.00     0.679 A
HETATM    2  N2  UNL     1     117.457  41.318  64.446  1.00  0.00    -0.169 N
ATOM      3  H2  UNL     1     116.888  42.021  64.917  1.00  0.00     0.186 HD
HETATM    4  C2  UNL     1     117.539  41.364  63.102  1.00  0.00     0.219 A
HETATM    5  C3  UNL     1     118.310  40.411  62.468  1.00  0.00     0.132 A
HETATM    6  N4  UNL     1     118.631  40.132  61.194  1.00  0.00    -0.302 N
ATOM      7  H4  UNL     1     118.302  40.663  60.387  1.00  0.00     0.171 HD
HETATM    8  C4  UNL     1     119.439  39.065  61.122  1.00  0.00     0.326 A
HETATM    9  O3  UNL     1     119.943  38.515  60.085  1.00  0.00    -0.247 OA
HETATM   10  N5  UNL     1     119.642  38.650  62.377  1.00  0.00    -0.292 N
ATOM     11  H5  UNL     1     120.218  37.853  62.649  1.00  0.00     0.172 HD
HETATM   12  C5  UNL     1     118.969  39.447  63.226  1.00  0.00     0.156 A
HETATM   13  N6  UNL     1     118.827  39.478  64.571  1.00  0.00    -0.174 N
ATOM     14  H6  UNL     1     119.307  38.775  65.132  1.00  0.00     0.186 HD
ENDROOT
BRANCH   1  15
HETATM   15  N1  UNL     1     117.968  40.398  66.495  1.00  0.00    -0.234 N
ATOM     16  H12 UNL     1     117.083  40.642  66.938  1.00  0.00     0.174 HD
ATOM     17  H11 UNL     1     118.754  40.150  67.095  1.00  0.00     0.174 HD
ENDBRANCH   1  15
BRANCH   4  18
HETATM   18  N3  UNL     1     116.871  42.346  62.326  1.00  0.00    -0.095 N
HETATM   19  O1  UNL     1     116.272  41.938  61.305  1.00  0.00    -0.530 OA
HETATM   20  O2  UNL     1     116.856  43.672  62.641  1.00  0.00    -0.530 OA
ENDBRANCH   4  18
TORSDOF 2
ENDMDL