MODEL 5
REMARK VINA RESULT: -5.003596834      1.536      2.281
REMARK  3 active torsions:
REMARK  status: ('A' for Active; 'I' for Inactive)
REMARK    1  A    between atoms: N1_1  and  C1_4
REMARK    2  A    between atoms: C2_8  and  S2_9
REMARK    3  A    between atoms: S2_9  and  N3_10
ROOT
HETATM    1  C1  UNL     1     117.738  41.188  63.577  1.00  0.00     0.112 A
HETATM    2  S1  UNL     1     118.595  40.341  64.779  1.00  0.00     0.006 SA
HETATM    3  N2  UNL     1     119.178  39.076  63.837  1.00  0.00    -0.312 N
ATOM      4  H2  UNL     1     119.762  38.296  64.138  1.00  0.00     0.175 HD
HETATM    5  C2  UNL     1     118.712  39.314  62.609  1.00  0.00     0.182 A
HETATM    6  C3  UNL     1     117.946  40.432  62.456  1.00  0.00     0.121 A
HETATM    7  N4  UNL     1     117.373  40.813  61.166  1.00  0.00    -0.096 NA
ENDROOT
BRANCH   5   8
HETATM    8  S2  UNL     1     119.110  38.183  61.275  1.00  0.00     0.274 S
HETATM    9  O1  UNL     1     117.901  37.446  60.838  1.00  0.00    -0.199 OA
HETATM   10  O2  UNL     1     119.771  38.917  60.177  1.00  0.00    -0.199 OA
BRANCH   8  11
HETATM   11  N3  UNL     1     120.267  37.019  61.881  1.00  0.00    -0.323 N
ATOM     12  H32 UNL     1     120.177  36.499  62.755  1.00  0.00     0.169 HD
ATOM     13  H31 UNL     1     121.034  36.960  61.212  1.00  0.00     0.169 HD
ENDBRANCH   8  11
ENDBRANCH   5   8
BRANCH   1  14
HETATM   14  N1  UNL     1     117.036  42.302  63.662  1.00  0.00    -0.391 N
ATOM     15  H12 UNL     1     116.291  42.607  63.036  1.00  0.00     0.157 HD
ATOM     16  H11 UNL     1     117.092  43.061  64.342  1.00  0.00     0.157 HD
ENDBRANCH   1  14
TORSDOF 3
ENDMDL