MODEL 2
REMARK VINA RESULT: -6.132980087      2.884      5.263
REMARK  4 active torsions:
REMARK  status: ('A' for Active; 'I' for Inactive)
REMARK    1  A    between atoms: C3_4  and  C4_5
REMARK    2  A    between atoms: C4_5  and  O1_6
REMARK    3  A    between atoms: C4_5  and  N2_8
REMARK    4  A    between atoms: N2_8  and  N3_10
ROOT
HETATM    1  N1  UNL     1     116.453  43.466  64.040  1.00  0.00    -0.191 NA
HETATM    2  C1  UNL     1     116.946  43.415  65.078  1.00  0.00     0.106 C
HETATM    3  C2  UNL     1     117.554  43.410  66.365  1.00  0.00     0.129 A
HETATM    4  C3  UNL     1     117.897  42.258  66.996  1.00  0.00     0.070 A
HETATM    5  C5  UNL     1     118.496  42.394  68.271  1.00  0.00     0.103 A
HETATM    6  N4  UNL     1     118.890  41.243  69.010  1.00  0.00    -0.098 NA
HETATM    7  C6  UNL     1     118.725  43.604  68.858  1.00  0.00     0.144 A
HETATM    8  N5  UNL     1     119.338  43.703  70.164  1.00  0.00    -0.081 NA
HETATM    9  N6  UNL     1     118.373  44.724  68.208  1.00  0.00    -0.309 N
ATOM     10  H6  UNL     1     118.538  45.638  68.630  1.00  0.00     0.170 HD
HETATM   11  C7  UNL     1     117.807  44.630  67.002  1.00  0.00     0.268 A
HETATM   12  O2  UNL     1     117.480  45.677  66.400  1.00  0.00    -0.266 OA
ENDROOT
BRANCH   4  13
HETATM   13  C4  UNL     1     117.704  40.943  66.474  1.00  0.00     0.168 C
BRANCH  13  14
HETATM   14  O1  UNL     1     116.518  40.451  66.763  1.00  0.00    -0.344 OA
ATOM     15  H1  UNL     1     116.424  39.542  66.503  1.00  0.00     0.219 HD
ENDBRANCH  13  14
BRANCH  13  16
HETATM   16  N2  UNL     1     118.476  40.064  65.731  1.00  0.00    -0.286 N
ATOM     17  H2  UNL     1     119.310  39.629  66.125  1.00  0.00     0.188 HD
BRANCH  16  18
HETATM   18  N3  UNL     1     118.053  39.785  64.375  1.00  0.00    -0.343 N
ATOM     19  H32 UNL     1     117.840  38.830  64.088  1.00  0.00     0.176 HD
ATOM     20  H31 UNL     1     117.980  40.574  63.733  1.00  0.00     0.176 HD
ENDBRANCH  16  18
ENDBRANCH  13  16
ENDBRANCH   4  13
TORSDOF 4
ENDMDL