MODEL 5
REMARK VINA RESULT: -6.442166352      0.266      2.128
REMARK  3 active torsions:
REMARK  status: ('A' for Active; 'I' for Inactive)
REMARK    1  A    between atoms: O1_2  and  C2_3
REMARK    2  A    between atoms: C2_3  and  C3_5
REMARK    3  A    between atoms: C5_10  and  N3_11
ROOT
HETATM    1  N3  UNL     1     117.842  40.159  64.765  1.00  0.00    -0.126 N
ATOM      2  H3  UNL     1     116.950  39.716  64.545  1.00  0.00     0.197 HD
HETATM    3  C6  UNL     1     118.933  39.990  63.909  1.00  0.00     0.196 C
HETATM    4  N4  UNL     1     119.847  39.839  63.193  1.00  0.00    -0.171 NA
ENDROOT
BRANCH   1   5
HETATM    5  C5  UNL     1     117.959  40.868  65.826  1.00  0.00     0.694 A
HETATM    6  N2  UNL     1     118.127  40.275  67.019  1.00  0.00    -0.177 N
HETATM    7  C4  UNL     1     118.254  40.970  68.152  1.00  0.00     0.152 A
ATOM      8  H2  UNL     1     118.158  39.257  67.062  1.00  0.00     0.185 HD
HETATM    9  C3  UNL     1     118.209  42.370  68.083  1.00  0.00     0.125 A
HETATM   10  N1  UNL     1     118.431  40.357  69.420  1.00  0.00    -0.081 NA
HETATM   11  C7  UNL     1     118.038  42.962  66.860  1.00  0.00     0.134 A
HETATM   12  N5  UNL     1     117.914  42.190  65.739  1.00  0.00    -0.175 N
HETATM   13  N6  UNL     1     117.987  44.221  66.709  1.00  0.00    -0.384 N
ATOM     14  H5  UNL     1     117.786  42.634  64.829  1.00  0.00     0.186 HD
ATOM     15  H62 UNL     1     118.080  44.797  67.546  1.00  0.00     0.157 HD
ATOM     16  H61 UNL     1     117.859  44.662  65.797  1.00  0.00     0.157 HD
BRANCH   9  17
HETATM   17  C2  UNL     1     118.353  43.110  69.345  1.00  0.00     0.300 C
HETATM   18  O2  UNL     1     119.523  43.319  69.807  1.00  0.00    -0.259 OA
BRANCH  17  19
HETATM   19  O1  UNL     1     117.334  43.618  70.109  1.00  0.00    -0.322 OA
HETATM   20  C1  UNL     1     116.050  43.026  70.154  1.00  0.00     0.213 C
ENDBRANCH  17  19
ENDBRANCH   9  17
ENDBRANCH   1   5
TORSDOF 3
ENDMDL