MODEL 5
REMARK VINA RESULT: -7.064816768      4.742      6.694
REMARK  2 active torsions:
REMARK  status: ('A' for Active; 'I' for Inactive)
REMARK    1  A    between atoms: N1_1  and  N2_4
REMARK       I    between atoms: N2_4  and  C1_6
REMARK    2  A    between atoms: C1_6  and  C2_8
ROOT
HETATM    1  C2  UNL     1     118.298  41.062  66.155  1.00  0.00     0.191 A
HETATM    2  N3  UNL     1     118.076  40.272  67.219  1.00  0.00    -0.279 N
ATOM      3  H3  UNL     1     117.901  39.278  67.071  1.00  0.00     0.189 HD
HETATM    4  N4  UNL     1     118.076  40.743  68.449  1.00  0.00    -0.281 N
ATOM      5  H4  UNL     1     117.905  40.128  69.244  1.00  0.00     0.188 HD
HETATM    6  C3  UNL     1     118.308  42.062  68.631  1.00  0.00     0.168 A
HETATM    7  N5  UNL     1     118.376  42.844  69.730  1.00  0.00    -0.280 N
ATOM      8  H5  UNL     1     118.246  42.517  70.687  1.00  0.00     0.189 HD
HETATM    9  N6  UNL     1     118.634  44.095  69.388  1.00  0.00    -0.263 N
ATOM     10  H6  UNL     1     118.732  44.872  70.043  1.00  0.00     0.190 HD
HETATM   11  C4  UNL     1     118.746  44.193  68.052  1.00  0.00     0.290 A
HETATM   12  O2  UNL     1     118.987  45.221  67.377  1.00  0.00    -0.264 OA
HETATM   13  C5  UNL     1     118.543  42.910  67.563  1.00  0.00     0.151 A
HETATM   14  N7  UNL     1     118.530  42.376  66.346  1.00  0.00    -0.329 N
ATOM     15  H7  UNL     1     118.700  42.974  65.537  1.00  0.00     0.168 HD
ENDROOT
BRANCH   1  16
HETATM   16  C1  UNL     1     118.290  40.498  64.801  1.00  0.00     0.304 C
HETATM   17  N2  UNL     1     118.810  39.203  64.594  1.00  0.00    -0.270 N
ATOM     18  H2  UNL     1     119.178  38.698  65.399  1.00  0.00     0.189 HD
HETATM   19  O1  UNL     1     117.815  41.206  63.882  1.00  0.00    -0.263 OA
BRANCH  17  20
HETATM   20  N1  UNL     1     118.849  38.578  63.350  1.00  0.00    -0.342 N
ATOM     21  H12 UNL     1     119.683  38.036  63.128  1.00  0.00     0.176 HD
ATOM     22  H11 UNL     1     118.095  38.635  62.665  1.00  0.00     0.176 HD
ENDBRANCH  17  20
ENDBRANCH   1  16
TORSDOF 2
ENDMDL