MODEL 1
REMARK VINA RESULT: -7.361392915      0.000      0.000
REMARK  3 active torsions:
REMARK  status: ('A' for Active; 'I' for Inactive)
REMARK    1  A    between atoms: N1_1  and  C1_4
REMARK    2  A    between atoms: N5_17  and  N6_18
REMARK    3  A    between atoms: N6_18  and  O3_20
ROOT
HETATM    1  C1  UNL     1     118.644  41.038  65.240  1.00  0.00     0.680 A
HETATM    2  N2  UNL     1     119.514  41.606  64.387  1.00  0.00    -0.154 N
ATOM      3  H2  UNL     1     119.870  42.536  64.603  1.00  0.00     0.187 HD
HETATM    4  C2  UNL     1     119.938  41.000  63.258  1.00  0.00     0.292 A
HETATM    5  O1  UNL     1     120.761  41.578  62.485  1.00  0.00    -0.265 OA
HETATM    6  C3  UNL     1     119.474  39.742  62.938  1.00  0.00     0.176 A
HETATM    7  C4  UNL     1     118.579  39.161  63.816  1.00  0.00     0.160 A
HETATM    8  N3  UNL     1     118.185  39.811  64.937  1.00  0.00    -0.174 N
ATOM      9  H3  UNL     1     117.524  39.358  65.569  1.00  0.00     0.186 HD
HETATM   10  N4  UNL     1     118.298  37.960  63.266  1.00  0.00    -0.290 N
ATOM     11  H4  UNL     1     117.662  37.269  63.665  1.00  0.00     0.172 HD
HETATM   12  C5  UNL     1     118.978  37.807  62.116  1.00  0.00     0.349 A
HETATM   13  O2  UNL     1     118.963  36.814  61.334  1.00  0.00    -0.244 OA
HETATM   14  N5  UNL     1     119.725  38.929  61.900  1.00  0.00    -0.176 N
ENDROOT
BRANCH  14  15
HETATM   15  N6  UNL     1     120.582  39.194  60.822  1.00  0.00    -0.199 N
ATOM     16  H6  UNL     1     121.561  39.446  60.959  1.00  0.00     0.216 HD
BRANCH  15  17
HETATM   17  O3  UNL     1     120.066  39.102  59.670  1.00  0.00    -0.274 OA
ATOM     18  H3  UNL     1     119.120  39.183  59.631  1.00  0.00     0.246 HD
ENDBRANCH  15  17
ENDBRANCH  14  15
BRANCH   1  19
HETATM   19  N1  UNL     1     118.254  41.654  66.327  1.00  0.00    -0.234 N
ATOM     20  H12 UNL     1     117.529  42.371  66.293  1.00  0.00     0.174 HD
ATOM     21  H11 UNL     1     118.663  41.437  67.236  1.00  0.00     0.174 HD
ENDBRANCH   1  19
TORSDOF 3
ENDMDL