MODEL 5
REMARK VINA RESULT: -7.835177084      2.917      4.595
REMARK  8 active torsions:
REMARK  status: ('A' for Active; 'I' for Inactive)
REMARK    1  A    between atoms: C2_2  and  N1_3
REMARK    2  A    between atoms: N1_3  and  C3_5
REMARK    3  A    between atoms: C6_10  and  O1_11
REMARK    4  A    between atoms: N3_14  and  O2_16
REMARK    5  A    between atoms: C9_18  and  N4_19
REMARK    6  A    between atoms: N4_19  and  N5_21
REMARK    7  A    between atoms: C10_23  and  C12_25
REMARK    8  A    between atoms: C12_25  and  N6_27
ROOT
HETATM    1  C3  UNL     1      63.015 -67.828   3.866  1.00  0.00     0.680 C
HETATM    2  N2  UNL     1      63.049 -66.563   3.407  1.00  0.00    -0.193 N
ATOM      3  H2  UNL     1      63.396 -66.476   2.451  1.00  0.00     0.184 HD
HETATM    4  C4  UNL     1      62.711 -65.395   3.972  1.00  0.00     0.058 C
HETATM    5  C5  UNL     1      62.684 -64.167   3.138  1.00  0.00     0.072 C
HETATM    6  C6  UNL     1      62.370 -65.203   5.311  1.00  0.00     0.123 C
HETATM    7  C8  UNL     1      62.656 -66.058   6.357  1.00  0.00     0.135 C
HETATM    8  N3  UNL     1      62.739 -65.531   7.528  1.00  0.00    -0.263 N
ATOM      9  H3  UNL     1      62.950 -66.126   8.329  1.00  0.00     0.194 HD
HETATM   10  C9  UNL     1      62.868 -67.430   6.292  1.00  0.00     0.167 C
HETATM   11  N7  UNL     1      63.025 -68.181   5.171  1.00  0.00    -0.173 N
ATOM     12  H7  UNL     1      63.176 -69.175   5.342  1.00  0.00     0.186 HD
ENDROOT
BRANCH  10  13
HETATM   13  N4  UNL     1      62.911 -67.993   7.432  1.00  0.00    -0.283 N
ATOM     14  H4  UNL     1      62.135 -67.808   8.068  1.00  0.00     0.188 HD
BRANCH  13  15
HETATM   15  N5  UNL     1      63.903 -68.827   7.890  1.00  0.00    -0.306 N
HETATM   16  C10 UNL     1      63.709 -70.079   8.140  1.00  0.00     0.029 C
HETATM   17  C11 UNL     1      62.347 -70.622   7.915  1.00  0.00     0.067 C
ATOM     18  H5  UNL     1      64.835 -68.439   8.039  1.00  0.00     0.186 HD
BRANCH  16  19
HETATM   19  C12 UNL     1      64.755 -70.985   8.629  1.00  0.00     0.225 C
HETATM   20  C13 UNL     1      65.991 -70.767   7.765  1.00  0.00     0.046 C
BRANCH  19  21
HETATM   21  N6  UNL     1      65.116 -70.695   9.990  1.00  0.00    -0.070 N
ATOM     22  H63 UNL     1      65.022 -69.700  10.196  1.00  0.00     0.275 HD
ATOM     23  H62 UNL     1      64.425 -71.058  10.645  1.00  0.00     0.275 HD
ATOM     24  H61 UNL     1      66.053 -71.033  10.211  1.00  0.00     0.275 HD
ENDBRANCH  19  21
ENDBRANCH  16  19
ENDBRANCH  13  15
ENDBRANCH  10  13
BRANCH   6  25
HETATM   25  O1  UNL     1      61.686 -64.063   5.637  1.00  0.00    -0.352 OA
HETATM   26  C7  UNL     1      60.279 -63.924   5.498  1.00  0.00     0.210 C
ENDBRANCH   6  25
BRANCH   8  27
HETATM   27  O2  UNL     1      62.551 -64.185   7.723  1.00  0.00    -0.289 OA
ATOM     28  H2  UNL     1      61.703 -63.834   7.970  1.00  0.00     0.244 HD
ENDBRANCH   8  27
BRANCH   1  29
HETATM   29  N1  UNL     1      62.968 -68.797   3.051  1.00  0.00    -0.226 N
ATOM     30  H1  UNL     1      63.781 -69.413   3.036  1.00  0.00     0.177 HD
BRANCH  29  31
HETATM   31  C2  UNL     1      61.914 -69.127   2.154  1.00  0.00     0.133 C
HETATM   32  C1  UNL     1      62.178 -70.397   1.366  1.00  0.00     0.027 C
ENDBRANCH  29  31
ENDBRANCH   1  29
TORSDOF 8
ENDMDL