MODEL 3
REMARK VINA RESULT: -8.032015234      4.917      6.690
REMARK  5 active torsions:
REMARK  status: ('A' for Active; 'I' for Inactive)
REMARK    1  A    between atoms: C4_4  and  C5_5
REMARK       I    between atoms: C5_5  and  N1_7
REMARK    2  A    between atoms: N1_7  and  N2_9
REMARK    3  A    between atoms: C6_11  and  C7_12
REMARK    4  A    between atoms: C9_19  and  C10_20
REMARK       I    between atoms: C10_20  and  N5_22
REMARK    5  A    between atoms: N5_22  and  N6_24
ROOT
HETATM    1  C7  UNL     1      62.421 -68.014   4.653  1.00  0.00     0.086 A
HETATM    2  N3  UNL     1      61.984 -67.873   3.382  1.00  0.00    -0.305 N
ATOM      3  H3  UNL     1      61.456 -67.068   3.044  1.00  0.00     0.171 HD
HETATM    4  C8  UNL     1      62.325 -68.911   2.627  1.00  0.00     0.325 A
HETATM    5  O2  UNL     1      62.082 -69.102   1.415  1.00  0.00    -0.247 OA
HETATM    6  N4  UNL     1      62.990 -69.732   3.421  1.00  0.00    -0.302 N
ATOM      7  H4  UNL     1      63.386 -70.626   3.128  1.00  0.00     0.171 HD
HETATM    8  C9  UNL     1      63.077 -69.215   4.702  1.00  0.00     0.134 A
ENDROOT
BRANCH   1   9
HETATM    9  C6  UNL     1      62.199 -67.048   5.690  1.00  0.00     0.139 C
HETATM   10  N2  UNL     1      62.345 -67.203   6.958  1.00  0.00    -0.307 N
ATOM     11  H2  UNL     1      62.656 -68.105   7.319  1.00  0.00     0.186 HD
BRANCH  10  12
HETATM   12  N1  UNL     1      62.090 -66.168   7.843  1.00  0.00    -0.266 N
HETATM   13  C5  UNL     1      63.145 -65.597   8.578  1.00  0.00     0.270 C
HETATM   14  O1  UNL     1      64.314 -66.057   8.401  1.00  0.00    -0.266 OA
ATOM     15  H1  UNL     1      61.139 -65.821   7.962  1.00  0.00     0.190 HD
BRANCH  13  16
HETATM   16  C4  UNL     1      62.918 -64.480   9.545  1.00  0.00     0.041 A
HETATM   17  C3  UNL     1      62.203 -63.385   9.252  1.00  0.00     0.031 A
HETATM   18  C2  UNL     1      62.070 -62.438  10.223  1.00  0.00    -0.021 A
HETATM   19  C1  UNL     1      61.321 -61.132  10.135  1.00  0.00     0.056 C
HETATM   20  S1  UNL     1      62.946 -63.096  11.524  1.00  0.00    -0.106 SA
HETATM   21  C11 UNL     1      63.457 -64.554  10.803  1.00  0.00     0.067 A
ENDBRANCH  13  16
ENDBRANCH  10  12
ENDBRANCH   1   9
BRANCH   8  22
HETATM   22  C10 UNL     1      63.752 -69.896   5.794  1.00  0.00     0.288 C
HETATM   23  O3  UNL     1      63.191 -70.363   6.793  1.00  0.00    -0.264 OA
HETATM   24  N5  UNL     1      65.162 -70.052   5.735  1.00  0.00    -0.271 N
ATOM     25  H5  UNL     1      65.689 -69.692   4.939  1.00  0.00     0.189 HD
BRANCH  24  26
HETATM   26  N6  UNL     1      65.816 -70.702   6.775  1.00  0.00    -0.342 N
ATOM     27  H62 UNL     1      65.832 -70.274   7.700  1.00  0.00     0.176 HD
ATOM     28  H61 UNL     1      66.269 -71.597   6.595  1.00  0.00     0.176 HD
ENDBRANCH  24  26
ENDBRANCH   8  22
TORSDOF 5
ENDMDL