MODEL 3
REMARK VINA RESULT: -7.780151988      1.892      2.729
REMARK  5 active torsions:
REMARK  status: ('A' for Active; 'I' for Inactive)
REMARK    1  A    between atoms: C2_2  and  C4_4
REMARK    2  A    between atoms: C4_4  and  C5_5
REMARK    3  A    between atoms: C4_4  and  C10_16
REMARK    4  A    between atoms: C10_16  and  O3_17
REMARK    5  A    between atoms: C10_16  and  C11_19
ROOT
HETATM    1  C4  UNL     1      61.054 -66.943   2.973  1.00  0.00    -0.000 C
ENDROOT
BRANCH   1   2
HETATM    2  C2  UNL     1      59.845 -66.916   3.725  1.00  0.00    -0.061 C
HETATM    3  C1  UNL     1      58.997 -67.906   3.897  1.00  0.00     0.019 C
HETATM    4  C3  UNL     1      59.347 -65.614   4.375  1.00  0.00     0.048 C
ENDBRANCH   1   2
BRANCH   1   5
HETATM    5  C5  UNL     1      61.133 -66.834   1.519  1.00  0.00     0.064 A
HETATM    6  C6  UNL     1      61.325 -67.917   0.688  1.00  0.00     0.026 A
HETATM    7  C7  UNL     1      61.454 -69.268   1.182  1.00  0.00     0.069 C
HETATM    8  N1  UNL     1      61.405 -67.692  -0.651  1.00  0.00    -0.312 N
HETATM    9  C8  UNL     1      61.319 -66.505  -1.234  1.00  0.00     0.327 A
ATOM     10  H1  UNL     1      61.543 -68.502  -1.255  1.00  0.00     0.170 HD
HETATM   11  O1  UNL     1      61.398 -66.367  -2.486  1.00  0.00    -0.247 OA
HETATM   12  N2  UNL     1      61.144 -65.437  -0.470  1.00  0.00    -0.275 N
HETATM   13  C9  UNL     1      61.058 -65.604   0.869  1.00  0.00     0.262 A
ATOM     14  H2  UNL     1      61.076 -64.507  -0.884  1.00  0.00     0.173 HD
HETATM   15  O2  UNL     1      60.910 -64.497   1.489  1.00  0.00    -0.267 OA
ENDBRANCH   1   5
BRANCH   1  16
HETATM   16  C10 UNL     1      62.381 -66.698   3.694  1.00  0.00     0.211 C
BRANCH  16  17
HETATM   17  O3  UNL     1      62.107 -65.709   4.687  1.00  0.00    -0.384 OA
ATOM     18  H3  UNL     1      62.804 -65.786   5.328  1.00  0.00     0.211 HD
ENDBRANCH  16  17
BRANCH  16  19
HETATM   19  C11 UNL     1      62.802 -67.858   4.532  1.00  0.00     0.103 A
HETATM   20  N3  UNL     1      63.289 -68.969   3.984  1.00  0.00    -0.293 N
HETATM   21  N4  UNL     1      63.588 -69.963   4.712  1.00  0.00    -0.279 N
ATOM     22  H3  UNL     1      63.422 -69.021   2.974  1.00  0.00     0.187 HD
HETATM   23  C12 UNL     1      63.406 -69.870   6.028  1.00  0.00     0.158 A
ATOM     24  H4  UNL     1      63.961 -70.816   4.297  1.00  0.00     0.189 HD
HETATM   25  N5  UNL     1      63.653 -70.770   6.946  1.00  0.00    -0.379 N
HETATM   26  S1  UNL     1      62.775 -68.265   6.155  1.00  0.00    -0.035 SA
ATOM     27  H52 UNL     1      64.025 -71.717   6.872  1.00  0.00     0.158 HD
ATOM     28  H51 UNL     1      63.513 -70.700   7.954  1.00  0.00     0.158 HD
ENDBRANCH  16  19
ENDBRANCH   1  16
TORSDOF 5
ENDMDL