MODEL 1
REMARK VINA RESULT: -7.742191776      0.000      0.000
REMARK  7 active torsions:
REMARK  status: ('A' for Active; 'I' for Inactive)
REMARK    1  A    between atoms: N1_1  and  C1_5
REMARK    2  A    between atoms: C7_11  and  O1_12
REMARK    3  A    between atoms: O1_12  and  C8_13
REMARK    4  A    between atoms: C8_13  and  C9_15
REMARK    5  A    between atoms: C9_15  and  O3_16
REMARK    6  A    between atoms: C9_15  and  C10_19
REMARK       I    between atoms: C10_19  and  N2_21
REMARK    7  A    between atoms: N2_21  and  C11_23
ROOT
HETATM    1  C8  UNL     1      61.054 -69.048   2.555  1.00  0.00     0.316 C
HETATM    2  O2  UNL     1      61.992 -69.417   1.801  1.00  0.00    -0.260 OA
ENDROOT
BRANCH   1   3
HETATM    3  O1  UNL     1      61.292 -69.028   3.906  1.00  0.00    -0.310 OA
BRANCH   3   4
HETATM    4  C7  UNL     1      62.542 -68.669   4.487  1.00  0.00     0.162 C
HETATM    5  C1  UNL     1      62.965 -69.647   5.551  1.00  0.00     0.212 C
HETATM    6  C2  UNL     1      62.831 -69.139   6.938  1.00  0.00     0.035 C
HETATM    7  C3  UNL     1      64.018 -68.375   7.441  1.00  0.00     0.002 C
HETATM    8  C4  UNL     1      63.999 -66.926   6.937  1.00  0.00     0.000 C
HETATM    9  C5  UNL     1      63.935 -66.899   5.427  1.00  0.00     0.002 C
HETATM   10  C6  UNL     1      62.563 -67.247   4.953  1.00  0.00     0.035 C
BRANCH   5  11
HETATM   11  N1  UNL     1      64.301 -70.161   5.345  1.00  0.00    -0.073 N
ATOM     12  H13 UNL     1      64.825 -69.605   4.668  1.00  0.00     0.274 HD
ATOM     13  H12 UNL     1      64.899 -70.009   6.156  1.00  0.00     0.274 HD
ATOM     14  H11 UNL     1      64.254 -71.144   5.080  1.00  0.00     0.274 HD
ENDBRANCH   5  11
ENDBRANCH   3   4
ENDBRANCH   1   3
BRANCH   1  15
HETATM   15  C9  UNL     1      59.772 -68.667   1.922  1.00  0.00     0.287 C
HETATM   16  S1  UNL     1      58.498 -68.305   3.180  1.00  0.00    -0.035 SA
BRANCH  15  17
HETATM   17  O3  UNL     1      59.319 -69.776   1.210  1.00  0.00    -0.363 OA
ATOM     18  H3  UNL     1      58.831 -69.449   0.463  1.00  0.00     0.212 HD
ENDBRANCH  15  17
BRANCH  15  19
HETATM   19  C10 UNL     1      59.882 -67.513   1.031  1.00  0.00     0.274 C
HETATM   20  O4  UNL     1      59.179 -66.461   1.187  1.00  0.00    -0.268 OA
HETATM   21  N2  UNL     1      60.791 -67.532  -0.055  1.00  0.00    -0.353 N
ATOM     22  H2  UNL     1      61.366 -68.362  -0.204  1.00  0.00     0.163 HD
BRANCH  21  23
HETATM   23  C11 UNL     1      60.932 -66.403  -0.966  1.00  0.00     0.084 A
HETATM   24  C12 UNL     1      61.733 -66.504  -2.193  1.00  0.00     0.027 A
HETATM   25  C13 UNL     1      62.237 -65.703  -1.050  1.00  0.00     0.027 A
ENDBRANCH  21  23
ENDBRANCH  15  19
ENDBRANCH   1  15
TORSDOF 7
ENDMDL