MODEL 3
REMARK VINA RESULT: -7.236771803      2.101      2.241
REMARK  6 active torsions:
REMARK  status: ('A' for Active; 'I' for Inactive)
REMARK    1  A    between atoms: C2_2  and  C4_4
REMARK    2  A    between atoms: C4_4  and  O1_5
REMARK    3  A    between atoms: C4_4  and  C5_7
REMARK    4  A    between atoms: C5_7  and  N1_8
REMARK       I    between atoms: N1_8  and  C6_10
REMARK       I    between atoms: C6_10  and  N2_12
REMARK    5  A    between atoms: N2_12  and  C7_14
REMARK    6  A    between atoms: C10_19  and  O3_20
ROOT
HETATM    1  C7  UNL     1      60.880 -68.559   3.386  1.00  0.00     0.146 C
HETATM    2  C8  UNL     1      59.947 -67.589   4.009  1.00  0.00     0.115 C
HETATM    3  S1  UNL     1      59.561 -66.173   2.906  1.00  0.00    -0.095 SA
HETATM    4  S2  UNL     1      58.762 -67.158   1.160  1.00  0.00    -0.093 SA
HETATM    5  C9  UNL     1      59.530 -68.825   1.277  1.00  0.00     0.141 C
HETATM    6  C10 UNL     1      60.868 -68.630   1.910  1.00  0.00     0.176 C
HETATM    7  C11 UNL     1      61.712 -69.777   1.506  1.00  0.00     0.100 C
HETATM    8  N3  UNL     1      62.376 -70.677   1.200  1.00  0.00    -0.194 NA
ENDROOT
BRANCH   6   9
HETATM    9  O3  UNL     1      61.518 -67.490   1.386  1.00  0.00    -0.373 OA
ATOM     10  H3  UNL     1      61.247 -67.364   0.484  1.00  0.00     0.212 HD
ENDBRANCH   6   9
BRANCH   1  11
HETATM   11  N2  UNL     1      62.238 -68.303   3.823  1.00  0.00    -0.334 N
HETATM   12  C6  UNL     1      62.855 -69.011   4.872  1.00  0.00     0.316 C
HETATM   13  N1  UNL     1      64.181 -68.759   5.294  1.00  0.00    -0.341 N
HETATM   14  O2  UNL     1      62.190 -69.904   5.453  1.00  0.00    -0.247 OA
ATOM     15  H1  UNL     1      64.721 -68.034   4.821  1.00  0.00     0.164 HD
ATOM     16  H2  UNL     1      62.773 -67.577   3.347  1.00  0.00     0.164 HD
BRANCH  13  17
HETATM   17  C5  UNL     1      64.797 -69.501   6.379  1.00  0.00     0.156 C
BRANCH  17  18
HETATM   18  C4  UNL     1      63.997 -69.261   7.622  1.00  0.00     0.139 C
BRANCH  18  19
HETATM   19  C2  UNL     1      64.095 -70.370   8.627  1.00  0.00     0.008 C
HETATM   20  C1  UNL     1      65.306 -71.245   8.419  1.00  0.00     0.012 C
HETATM   21  C3  UNL     1      62.817 -71.180   8.710  1.00  0.00     0.012 C
ENDBRANCH  18  19
BRANCH  18  22
HETATM   22  O1  UNL     1      64.374 -68.069   8.232  1.00  0.00    -0.394 OA
ATOM     23  H1  UNL     1      63.607 -67.515   8.319  1.00  0.00     0.210 HD
ENDBRANCH  18  22
ENDBRANCH  17  18
ENDBRANCH  13  17
ENDBRANCH   1  11
TORSDOF 6
ENDMDL