MODEL 3
REMARK VINA RESULT: -8.029229674      2.545      3.984
REMARK  6 active torsions:
REMARK  status: ('A' for Active; 'I' for Inactive)
REMARK    1  A    between atoms: C2_2  and  O1_3
REMARK    2  A    between atoms: O1_3  and  C3_4
REMARK    3  A    between atoms: C3_4  and  C4_6
REMARK    4  A    between atoms: C5_7  and  N1_8
REMARK       I    between atoms: N1_8  and  C6_10
REMARK    5  A    between atoms: C6_10  and  C7_12
REMARK    6  A    between atoms: C9_24  and  O5_25
ROOT
HETATM    1  C4  UNL     1      63.852 -68.334   6.655  1.00  0.00     0.125 A
HETATM    2  C5  UNL     1      63.883 -66.983   6.914  1.00  0.00     0.114 A
HETATM    3  S1  UNL     1      63.742 -66.310   5.327  1.00  0.00     0.007 SA
HETATM    4  N5  UNL     1      63.654 -67.718   4.447  1.00  0.00    -0.304 N
ATOM      5  H5  UNL     1      63.561 -67.816   3.435  1.00  0.00     0.176 HD
HETATM    6  C9  UNL     1      63.732 -68.686   5.351  1.00  0.00     0.165 A
ENDROOT
BRANCH   2   7
HETATM    7  N1  UNL     1      63.998 -66.248   8.126  1.00  0.00    -0.312 N
HETATM    8  C6  UNL     1      62.870 -65.516   8.594  1.00  0.00     0.292 C
HETATM    9  O3  UNL     1      61.794 -65.533   7.928  1.00  0.00    -0.264 OA
ATOM     10  H1  UNL     1      64.873 -66.245   8.650  1.00  0.00     0.170 HD
BRANCH   8  11
HETATM   11  C7  UNL     1      62.912 -64.742   9.823  1.00  0.00     0.193 A
HETATM   12  N2  UNL     1      63.361 -65.128  11.031  1.00  0.00    -0.277 N
HETATM   13  N3  UNL     1      63.236 -64.136  11.909  1.00  0.00    -0.250 N
ATOM     14  H2  UNL     1      63.743 -66.050  11.244  1.00  0.00     0.189 HD
HETATM   15  C8  UNL     1      62.695 -63.090  11.259  1.00  0.00     0.340 A
ATOM     16  H3  UNL     1      63.501 -64.164  12.894  1.00  0.00     0.192 HD
HETATM   17  O4  UNL     1      62.415 -61.948  11.746  1.00  0.00    -0.245 OA
HETATM   18  N4  UNL     1      62.503 -63.474   9.987  1.00  0.00    -0.288 N
ATOM     19  H4  UNL     1      62.104 -62.888   9.253  1.00  0.00     0.172 HD
ENDBRANCH   8  11
ENDBRANCH   2   7
BRANCH   1  20
HETATM   20  C3  UNL     1      63.947 -69.354   7.750  1.00  0.00     0.300 C
HETATM   21  O2  UNL     1      63.028 -70.188   7.850  1.00  0.00    -0.259 OA
BRANCH  20  22
HETATM   22  O1  UNL     1      64.977 -69.413   8.629  1.00  0.00    -0.318 OA
BRANCH  22  23
HETATM   23  C2  UNL     1      65.599 -70.590   9.088  1.00  0.00     0.174 C
HETATM   24  C1  UNL     1      66.435 -71.207   7.976  1.00  0.00     0.034 C
ENDBRANCH  22  23
ENDBRANCH  20  22
ENDBRANCH   1  20
BRANCH   6  25
HETATM   25  O5  UNL     1      63.689 -69.925   4.952  1.00  0.00    -0.345 OA
ATOM     26  H5  UNL     1      64.083 -70.220   4.140  1.00  0.00     0.219 HD
ENDBRANCH   6  25
TORSDOF 6
ENDMDL