MODEL 3
REMARK VINA RESULT: -6.695708421      2.700      4.981
REMARK  8 active torsions:
REMARK  status: ('A' for Active; 'I' for Inactive)
REMARK    1  A    between atoms: C3_5  and  N2_6
REMARK    2  A    between atoms: N2_6  and  O1_8
REMARK    3  A    between atoms: C5_14  and  N4_15
REMARK    4  A    between atoms: N4_15  and  N5_16
REMARK       I    between atoms: N4_15  and  C10_22
REMARK    5  A    between atoms: N5_16  and  C6_18
REMARK    6  A    between atoms: C10_22  and  O4_24
REMARK    7  A    between atoms: O4_24  and  C11_25
REMARK    8  A    between atoms: C11_25  and  C12_26
ROOT
HETATM    1  C1  UNL     1      61.043 -66.063   4.892  1.00  0.00     0.071 C
HETATM    2  C2  UNL     1      61.716 -67.284   4.384  1.00  0.00     0.057 A
HETATM    3  N1  UNL     1      62.346 -68.053   5.309  1.00  0.00    -0.192 N
ATOM      4  H1  UNL     1      62.342 -67.777   6.291  1.00  0.00     0.184 HD
HETATM    5  C3  UNL     1      62.984 -69.192   4.927  1.00  0.00     0.705 A
HETATM    6  N3  UNL     1      63.006 -69.581   3.648  1.00  0.00    -0.152 N
ATOM      7  H3  UNL     1      63.486 -70.437   3.369  1.00  0.00     0.187 HD
HETATM    8  C4  UNL     1      62.385 -68.820   2.749  1.00  0.00     0.290 A
HETATM    9  O2  UNL     1      62.436 -69.238   1.542  1.00  0.00    -0.265 OA
HETATM   10  C5  UNL     1      61.732 -67.669   3.086  1.00  0.00     0.152 A
ENDROOT
BRANCH  10  11
HETATM   11  N4  UNL     1      61.079 -66.942   2.071  1.00  0.00    -0.196 N
HETATM   12  C10 UNL     1      61.952 -65.894   1.540  1.00  0.00     0.387 C
HETATM   13  O3  UNL     1      63.096 -65.674   1.972  1.00  0.00    -0.236 OA
BRANCH  11  14
HETATM   14  N5  UNL     1      59.866 -67.037   1.539  1.00  0.00    -0.316 N
ATOM     15  H5  UNL     1      59.648 -66.334   0.833  1.00  0.00     0.181 HD
BRANCH  14  16
HETATM   16  C6  UNL     1      58.865 -67.932   1.793  1.00  0.00     0.035 C
HETATM   17  C7  UNL     1      59.053 -69.384   1.424  1.00  0.00     0.039 C
HETATM   18  C8  UNL     1      57.641 -67.512   0.941  1.00  0.00     0.039 C
HETATM   19  C9  UNL     1      58.284 -67.921   3.203  1.00  0.00     0.039 C
ENDBRANCH  14  16
ENDBRANCH  11  14
BRANCH  12  20
HETATM   20  O4  UNL     1      61.519 -65.085   0.500  1.00  0.00    -0.296 OA
BRANCH  20  21
HETATM   21  C11 UNL     1      62.231 -65.089  -0.747  1.00  0.00     0.249 C
BRANCH  21  22
HETATM   22  C12 UNL     1      61.997 -66.410  -1.381  1.00  0.00     0.257 C
HETATM   23  O5  UNL     1      60.842 -66.836  -1.460  1.00  0.00    -0.305 OA
ENDBRANCH  21  22
ENDBRANCH  20  21
ENDBRANCH  12  20
ENDBRANCH  10  11
BRANCH   5  24
HETATM   24  N2  UNL     1      63.583 -69.926   5.830  1.00  0.00    -0.098 N
ATOM     25  H2  UNL     1      63.120 -70.138   6.713  1.00  0.00     0.213 HD
BRANCH  24  26
HETATM   26  O1  UNL     1      64.852 -70.412   5.570  1.00  0.00    -0.276 OA
ATOM     27  H1  UNL     1      65.172 -71.159   6.062  1.00  0.00     0.245 HD
ENDBRANCH  24  26
ENDBRANCH   5  24
TORSDOF 8
ENDMDL