MODEL 5
REMARK VINA RESULT: -7.574851474      4.459      8.102
REMARK  5 active torsions:
REMARK  status: ('A' for Active; 'I' for Inactive)
REMARK    1  A    between atoms: O1_2  and  C2_3
REMARK    2  A    between atoms: C2_3  and  C3_5
REMARK    3  A    between atoms: C4_6  and  N1_7
REMARK       I    between atoms: N1_7  and  C5_9
REMARK    4  A    between atoms: C5_9  and  C6_11
REMARK    5  A    between atoms: C6_11  and  N2_12
REMARK       I    between atoms: N2_12  and  C7_14
ROOT
HETATM    1  C3  UNL     1      61.966 -66.580   1.674  1.00  0.00     0.088 A
HETATM    2  C4  UNL     1      61.488 -67.289   0.617  1.00  0.00     0.096 A
HETATM    3  S1  UNL     1      61.766 -68.944   1.146  1.00  0.00    -0.051 SA
HETATM    4  C8  UNL     1      62.476 -68.628   2.646  1.00  0.00     0.104 A
HETATM    5  N4  UNL     1      63.029 -69.230   3.753  1.00  0.00    -0.293 N
ATOM      6  H4  UNL     1      63.130 -70.232   3.921  1.00  0.00     0.187 HD
HETATM    7  N5  UNL     1      63.389 -68.283   4.529  1.00  0.00    -0.303 N
ATOM      8  H5  UNL     1      63.835 -68.423   5.435  1.00  0.00     0.186 HD
HETATM    9  C9  UNL     1      63.102 -67.044   3.990  1.00  0.00     0.036 A
HETATM   10  C10 UNL     1      63.451 -65.801   4.703  1.00  0.00     0.070 C
HETATM   11  C11 UNL     1      62.494 -67.259   2.743  1.00  0.00     0.042 A
ENDROOT
BRANCH   2  12
HETATM   12  N1  UNL     1      61.126 -66.998  -0.731  1.00  0.00    -0.319 N
HETATM   13  C5  UNL     1      61.824 -66.332  -1.737  1.00  0.00     0.240 C
HETATM   14  O3  UNL     1      62.988 -65.890  -1.601  1.00  0.00    -0.271 OA
ATOM     15  H1  UNL     1      60.202 -67.333  -1.004  1.00  0.00     0.169 HD
BRANCH  13  16
HETATM   16  C6  UNL     1      61.214 -66.094  -3.087  1.00  0.00     0.227 C
BRANCH  16  17
HETATM   17  N2  UNL     1      61.193 -64.679  -3.338  1.00  0.00    -0.337 N
HETATM   18  C7  UNL     1      60.016 -63.922  -3.192  1.00  0.00     0.329 C
HETATM   19  N3  UNL     1      60.010 -62.539  -3.441  1.00  0.00    -0.040 NA
HETATM   20  O4  UNL     1      58.948 -64.493  -2.832  1.00  0.00    -0.251 OA
ATOM     21  H2  UNL     1      62.052 -64.212  -3.629  1.00  0.00     0.164 HD
ENDBRANCH  16  17
ENDBRANCH  13  16
ENDBRANCH   2  12
BRANCH   1  22
HETATM   22  C2  UNL     1      61.611 -65.129   1.781  1.00  0.00     0.296 C
HETATM   23  O2  UNL     1      62.365 -64.184   1.567  1.00  0.00    -0.259 OA
BRANCH  22  24
HETATM   24  O1  UNL     1      60.320 -64.713   2.176  1.00  0.00    -0.322 OA
HETATM   25  C1  UNL     1      59.986 -64.425   3.514  1.00  0.00     0.213 C
ENDBRANCH  22  24
ENDBRANCH   1  22
TORSDOF 5
ENDMDL