MODEL 5
REMARK VINA RESULT: -8.116360119      4.033      6.347
REMARK  5 active torsions:
REMARK  status: ('A' for Active; 'I' for Inactive)
REMARK    1  A    between atoms: C3_3  and  C4_4
REMARK       I    between atoms: C4_4  and  N1_6
REMARK    2  A    between atoms: N1_6  and  C5_7
REMARK    3  A    between atoms: N1_6  and  C9_12
REMARK    4  A    between atoms: C5_7  and  C6_8
REMARK    5  A    between atoms: C11_19  and  O3_20
ROOT
HETATM    1  C6  UNL     1      60.588 -65.508  -1.600  1.00  0.00     0.107 C
HETATM    2  C7  UNL     1      61.919 -65.550  -2.302  1.00  0.00     0.027 C
HETATM    3  C8  UNL     1      59.657 -64.669  -2.379  1.00  0.00     0.065 C
HETATM    4  N2  UNL     1      58.924 -64.020  -3.006  1.00  0.00    -0.197 NA
ENDROOT
BRANCH   1   5
HETATM    5  C5  UNL     1      60.622 -64.988  -0.210  1.00  0.00     0.153 C
BRANCH   5   6
HETATM    6  N1  UNL     1      60.976 -65.939   0.811  1.00  0.00    -0.293 N
HETATM    7  C4  UNL     1      62.246 -65.927   1.392  1.00  0.00     0.286 C
HETATM    8  O1  UNL     1      63.074 -65.049   1.060  1.00  0.00    -0.265 OA
BRANCH   7   9
HETATM    9  C3  UNL     1      62.613 -66.932   2.385  1.00  0.00     0.178 A
HETATM   10  C2  UNL     1      62.906 -66.621   3.711  1.00  0.00     0.049 A
HETATM   11  C1  UNL     1      62.897 -65.273   4.320  1.00  0.00     0.057 C
HETATM   12  C12 UNL     1      63.200 -67.817   4.320  1.00  0.00     0.274 A
HETATM   13  N5  UNL     1      63.076 -68.746   3.376  1.00  0.00    -0.225 N
HETATM   14  O5  UNL     1      63.522 -67.956   5.547  1.00  0.00    -0.266 OA
HETATM   15  O4  UNL     1      62.732 -68.225   2.243  1.00  0.00    -0.229 OA
ATOM     16  H5  UNL     1      63.233 -69.743   3.527  1.00  0.00     0.198 HD
ENDBRANCH   7   9
BRANCH   6  17
HETATM   17  C9  UNL     1      60.012 -66.895   1.203  1.00  0.00     0.166 A
HETATM   18  N3  UNL     1      59.725 -68.067   0.575  1.00  0.00    -0.291 N
HETATM   19  C10 UNL     1      58.761 -68.740   1.227  1.00  0.00     0.328 A
ATOM     20  H3  UNL     1      60.181 -68.392  -0.277  1.00  0.00     0.172 HD
HETATM   21  O2  UNL     1      58.294 -69.866   0.868  1.00  0.00    -0.247 OA
HETATM   22  N4  UNL     1      58.428 -67.992   2.284  1.00  0.00    -0.286 N
HETATM   23  C11 UNL     1      59.158 -66.864   2.312  1.00  0.00     0.189 A
ATOM     24  H4  UNL     1      57.719 -68.243   2.972  1.00  0.00     0.172 HD
BRANCH  23  25
HETATM   25  O3  UNL     1      59.069 -65.881   3.257  1.00  0.00    -0.343 OA
ATOM     26  H3  UNL     1      58.525 -65.102   3.225  1.00  0.00     0.219 HD
ENDBRANCH  23  25
ENDBRANCH   6  17
ENDBRANCH   5   6
ENDBRANCH   1   5
TORSDOF 5
ENDMDL