MODEL 4
REMARK VINA RESULT: -6.440357600      2.536      5.151
REMARK  3 active torsions:
REMARK  status: ('A' for Active; 'I' for Inactive)
REMARK    1  A    between atoms: N1_2  and  N2_4
REMARK    2  A    between atoms: N2_4  and  C2_6
REMARK    3  A    between atoms: C4_11  and  N4_12
ROOT
HETATM    1  C2  UNL     1      -1.180   9.672  11.623  1.00  0.00     0.170 A
HETATM    2  N3  UNL     1      -1.018   8.592  10.794  1.00  0.00    -0.241 N
ATOM      3  H3  UNL     1      -0.748   8.628   9.811  1.00  0.00     0.196 HD
HETATM    4  O1  UNL     1      -1.265   7.534  11.464  1.00  0.00    -0.229 OA
HETATM    5  C3  UNL     1      -1.585   7.784  12.696  1.00  0.00     0.180 A
HETATM    6  C4  UNL     1      -1.931   6.985  13.790  1.00  0.00     0.185 A
HETATM    7  O2  UNL     1      -2.204   7.574  14.924  1.00  0.00    -0.241 OA
HETATM    8  C5  UNL     1      -2.165   8.874  15.069  1.00  0.00     0.372 A
HETATM    9  O3  UNL     1      -2.439   9.422  16.195  1.00  0.00    -0.238 OA
HETATM   10  N5  UNL     1      -1.839   9.681  14.051  1.00  0.00    -0.296 N
ATOM     11  H5  UNL     1      -1.815  10.691  14.187  1.00  0.00     0.171 HD
HETATM   12  C6  UNL     1      -1.542   9.151  12.842  1.00  0.00     0.125 A
ENDROOT
BRANCH   1  13
HETATM   13  N2  UNL     1      -1.013  10.894  11.280  1.00  0.00    -0.287 N
ATOM     14  H2  UNL     1      -1.805  11.523  11.411  1.00  0.00     0.188 HD
BRANCH  13  15
HETATM   15  N1  UNL     1       0.117  11.429  10.762  1.00  0.00    -0.339 N
HETATM   16  C1  UNL     1       0.251  11.663   9.317  1.00  0.00     0.167 C
ATOM     17  H1  UNL     1       0.887  11.672  11.383  1.00  0.00     0.179 HD
ENDBRANCH  13  15
ENDBRANCH   1  13
BRANCH   6  18
HETATM   18  N4  UNL     1      -1.970   5.694  13.647  1.00  0.00    -0.377 N
ATOM     19  H42 UNL     1      -1.470   5.059  14.269  1.00  0.00     0.158 HD
ATOM     20  H41 UNL     1      -2.519   5.293  12.887  1.00  0.00     0.158 HD
ENDBRANCH   6  18
TORSDOF 3
ENDMDL