MODEL 2
REMARK VINA RESULT: -6.722176070      4.062      6.118
REMARK  2 active torsions:
REMARK  status: ('A' for Active; 'I' for Inactive)
REMARK       I    between atoms: C2_2  and  N1_4
REMARK    1  A    between atoms: N1_4  and  C3_6
REMARK    2  A    between atoms: C4_9  and  N3_10
ROOT
HETATM    1  C3  UNL     1      -1.659   7.443  15.861  1.00  0.00     0.192 C
HETATM    2  N2  UNL     1      -1.411   8.209  14.788  1.00  0.00    -0.171 N
ATOM      3  H2  UNL     1      -2.005   9.036  14.719  1.00  0.00     0.186 HD
HETATM    4  C4  UNL     1      -0.519   8.086  13.781  1.00  0.00     0.680 C
HETATM    5  N4  UNL     1       0.498   7.183  13.684  1.00  0.00    -0.163 N
ATOM      6  H4  UNL     1       1.072   7.263  12.845  1.00  0.00     0.187 HD
HETATM    7  C5  UNL     1       0.858   6.197  14.534  1.00  0.00     0.209 C
HETATM    8  N5  UNL     1       1.693   5.154  14.049  1.00  0.00    -0.062 NA
HETATM    9  N6  UNL     1       0.470   6.134  15.844  1.00  0.00    -0.294 N
ATOM     10  H6  UNL     1       1.142   5.730  16.496  1.00  0.00     0.172 HD
HETATM   11  C6  UNL     1      -0.708   6.549  16.373  1.00  0.00     0.292 C
HETATM   12  O2  UNL     1      -1.052   6.097  17.489  1.00  0.00    -0.264 OA
ENDROOT
BRANCH   1  13
HETATM   13  N1  UNL     1      -2.898   7.502  16.532  1.00  0.00    -0.308 N
HETATM   14  C2  UNL     1      -4.116   6.953  16.085  1.00  0.00     0.219 C
HETATM   15  C1  UNL     1      -4.229   6.226  14.813  1.00  0.00     0.117 C
HETATM   16  O1  UNL     1      -5.181   7.074  16.791  1.00  0.00    -0.274 OA
ATOM     17  H1  UNL     1      -2.913   7.990  17.428  1.00  0.00     0.170 HD
ENDBRANCH   1  13
BRANCH   4  18
HETATM   18  N3  UNL     1      -0.628   8.915  12.782  1.00  0.00    -0.234 N
ATOM     19  H32 UNL     1       0.141   8.899  12.112  1.00  0.00     0.174 HD
ATOM     20  H31 UNL     1      -1.462   9.503  12.751  1.00  0.00     0.174 HD
ENDBRANCH   4  18
TORSDOF 2
ENDMDL