MODEL 1
REMARK VINA RESULT: -6.191079481      0.000      0.000
REMARK  3 active torsions:
REMARK  status: ('A' for Active; 'I' for Inactive)
REMARK    1  A    between atoms: N1_2  and  C2_4
REMARK    2  A    between atoms: C3_6  and  C4_7
REMARK    3  A    between atoms: C6_14  and  N5_15
ROOT
HETATM    1  C2  UNL     1      -1.128   4.438  18.192  1.00  0.00     0.114 A
HETATM    2  S1  UNL     1      -2.703   4.631  17.498  1.00  0.00    -0.060 SA
HETATM    3  C3  UNL     1      -2.961   6.164  16.839  1.00  0.00     0.113 A
HETATM    4  C5  UNL     1      -1.893   7.023  16.950  1.00  0.00     0.140 A
HETATM    5  N3  UNL     1      -2.121   8.342  16.381  1.00  0.00    -0.081 NA
HETATM    6  N4  UNL     1      -0.743   6.733  17.511  1.00  0.00    -0.328 N
ATOM      7  H4  UNL     1      -0.054   7.486  17.509  1.00  0.00     0.168 HD
HETATM    8  C6  UNL     1      -0.335   5.575  18.093  1.00  0.00     0.134 A
ENDROOT
BRANCH   1   9
HETATM    9  N1  UNL     1      -0.782   3.335  18.729  1.00  0.00    -0.386 N
HETATM   10  C1  UNL     1      -1.218   2.055  18.360  1.00  0.00     0.147 C
ATOM     11  H1  UNL     1      -0.122   3.389  19.505  1.00  0.00     0.159 HD
ENDBRANCH   1   9
BRANCH   8  12
HETATM   12  N5  UNL     1       0.825   5.561  18.556  1.00  0.00    -0.383 N
ATOM     13  H52 UNL     1       0.913   5.391  19.558  1.00  0.00     0.157 HD
ATOM     14  H51 UNL     1       1.619   5.718  17.935  1.00  0.00     0.157 HD
ENDBRANCH   8  12
BRANCH   3  15
HETATM   15  C4  UNL     1      -4.221   6.590  16.185  1.00  0.00     0.275 C
HETATM   16  N2  UNL     1      -4.434   6.332  14.807  1.00  0.00    -0.057 NA
HETATM   17  O1  UNL     1      -5.087   7.174  16.861  1.00  0.00    -0.270 OA
ENDBRANCH   3  15
TORSDOF 3
ENDMDL