MODEL 5
REMARK VINA RESULT: -6.043610633      6.432      8.862
REMARK  1 active torsions:
REMARK  status: ('A' for Active; 'I' for Inactive)
REMARK    1  A    between atoms: S1_2  and  C2_3
ROOT
HETATM    1  C2  UNL     1      -2.215   7.497  16.391  1.00  0.00     0.148 A
HETATM    2  N1  UNL     1      -0.982   6.997  16.504  1.00  0.00    -0.321 N
ATOM      3  H1  UNL     1      -0.180   7.508  16.136  1.00  0.00     0.169 HD
HETATM    4  C3  UNL     1      -0.814   5.809  17.112  1.00  0.00     0.133 A
HETATM    5  C4  UNL     1      -1.905   5.123  17.608  1.00  0.00     0.071 A
HETATM    6  C5  UNL     1      -3.171   5.641  17.488  1.00  0.00     0.258 A
HETATM    7  O1  UNL     1      -4.158   5.013  17.940  1.00  0.00    -0.267 OA
HETATM    8  N2  UNL     1      -3.276   6.840  16.867  1.00  0.00    -0.303 N
ATOM      9  H2  UNL     1      -4.201   7.258  16.759  1.00  0.00     0.171 HD
HETATM   10  C6  UNL     1      -1.625   3.817  18.264  1.00  0.00     0.180 C
HETATM   11  N3  UNL     1      -0.606   3.152  17.491  1.00  0.00    -0.121 NA
HETATM   12  N4  UNL     1       0.587   3.843  17.531  1.00  0.00    -0.030 NA
HETATM   13  N5  UNL     1       0.456   5.199  17.280  1.00  0.00    -0.272 N
ATOM     14  H5  UNL     1       1.295   5.775  17.214  1.00  0.00     0.185 HD
ENDROOT
BRANCH   1  15
HETATM   15  S1  UNL     1      -2.447   9.063  15.591  1.00  0.00    -0.098 SA
HETATM   16  C1  UNL     1      -1.726   9.126  13.949  1.00  0.00     0.099 C
ENDBRANCH   1  15
TORSDOF 1
ENDMDL