MODEL 2
REMARK VINA RESULT: -7.151622409      6.399      8.090
REMARK  1 active torsions:
REMARK  status: ('A' for Active; 'I' for Inactive)
REMARK    1  A    between atoms: N1_1  and  C1_4
ROOT
HETATM    1  C1  UNL     1      -0.740   5.042  17.887  1.00  0.00     0.680 A
HETATM    2  N2  UNL     1      -2.000   4.603  18.054  1.00  0.00    -0.155 N
ATOM      3  H2  UNL     1      -2.147   3.708  18.521  1.00  0.00     0.187 HD
HETATM    4  C2  UNL     1      -3.068   5.286  17.636  1.00  0.00     0.279 A
HETATM    5  O1  UNL     1      -4.247   4.882  17.789  1.00  0.00    -0.266 OA
HETATM    6  C3  UNL     1      -2.890   6.500  17.000  1.00  0.00     0.152 A
HETATM    7  C4  UNL     1      -3.965   7.246  16.549  1.00  0.00     0.269 A
HETATM    8  O2  UNL     1      -5.105   6.793  16.730  1.00  0.00    -0.267 OA
HETATM    9  N3  UNL     1      -3.683   8.409  15.947  1.00  0.00    -0.268 N
ATOM     10  H3  UNL     1      -4.442   8.993  15.596  1.00  0.00     0.174 HD
HETATM   11  C5  UNL     1      -2.415   8.812  15.800  1.00  0.00     0.374 A
HETATM   12  O3  UNL     1      -2.228   9.930  15.217  1.00  0.00    -0.238 OA
HETATM   13  O4  UNL     1      -1.377   8.125  16.218  1.00  0.00    -0.242 OA
HETATM   14  C6  UNL     1      -1.598   6.961  16.824  1.00  0.00     0.189 A
HETATM   15  N4  UNL     1      -0.569   6.223  17.269  1.00  0.00    -0.169 N
ATOM     16  H4  UNL     1       0.379   6.572  17.134  1.00  0.00     0.186 HD
ENDROOT
BRANCH   1  17
HETATM   17  N1  UNL     1       0.282   4.339  18.313  1.00  0.00    -0.234 N
ATOM     18  H12 UNL     1       1.070   4.122  17.701  1.00  0.00     0.174 HD
ATOM     19  H11 UNL     1       0.317   3.990  19.271  1.00  0.00     0.174 HD
ENDBRANCH   1  17
TORSDOF 1
ENDMDL