MODEL 2
REMARK VINA RESULT: -6.834421578      2.370      3.046
REMARK  3 active torsions:
REMARK  status: ('A' for Active; 'I' for Inactive)
REMARK    1  A    between atoms: C3_3  and  C4_5
REMARK    2  A    between atoms: C6_7  and  N1_8
REMARK    3  A    between atoms: C7_14  and  N3_15
ROOT
HETATM    1  C1  UNL     1       1.765   6.334  11.446  1.00  0.00     0.021 C
HETATM    2  C2  UNL     1       0.736   6.618  10.906  1.00  0.00    -0.033 C
HETATM    3  C3  UNL     1      -0.570   6.898  10.215  1.00  0.00     0.246 C
HETATM    4  O1  UNL     1      -1.042   6.093   9.513  1.00  0.00    -0.276 OA
ENDROOT
BRANCH   3   5
HETATM    5  C4  UNL     1      -1.139   8.260  10.488  1.00  0.00     0.072 C
HETATM    6  C5  UNL     1      -2.499   8.457   9.996  1.00  0.00     0.115 C
HETATM    7  C6  UNL     1      -2.807   9.789   9.410  1.00  0.00     0.287 C
HETATM    8  N2  UNL     1      -1.701  10.682   9.339  1.00  0.00    -0.335 N
HETATM    9  C7  UNL     1      -0.724  10.584  10.366  1.00  0.00     0.361 C
ATOM     10  H2  UNL     1      -1.613  11.362   8.584  1.00  0.00     0.160 HD
HETATM   11  C8  UNL     1       0.321  11.575  10.093  1.00  0.00     0.144 C
HETATM   12  N5  UNL     1      -0.164   9.254  10.362  1.00  0.00    -0.328 N
HETATM   13  N4  UNL     1       1.167  12.331   9.900  1.00  0.00    -0.191 NA
ATOM     14  H5  UNL     1       0.833   9.059  10.277  1.00  0.00     0.164 HD
BRANCH   7  15
HETATM   15  N1  UNL     1      -3.304   9.604   8.048  1.00  0.00    -0.058 N
ATOM     16  H13 UNL     1      -2.820   8.853   7.556  1.00  0.00     0.276 HD
ATOM     17  H12 UNL     1      -4.243   9.205   8.029  1.00  0.00     0.276 HD
ATOM     18  H11 UNL     1      -3.249  10.494   7.552  1.00  0.00     0.276 HD
ENDBRANCH   7  15
BRANCH   9  19
HETATM   19  N3  UNL     1      -1.306  10.900  11.656  1.00  0.00    -0.020 N
ATOM     20  H33 UNL     1      -1.067  11.845  11.958  1.00  0.00     0.280 HD
ATOM     21  H32 UNL     1      -2.319  11.010  11.598  1.00  0.00     0.280 HD
ATOM     22  H31 UNL     1      -1.040  10.202  12.351  1.00  0.00     0.280 HD
ENDBRANCH   9  19
ENDBRANCH   3   5
TORSDOF 3
ENDMDL