MODEL 2
REMARK VINA RESULT: -7.280454860      1.259      2.194
REMARK  3 active torsions:
REMARK  status: ('A' for Active; 'I' for Inactive)
REMARK       I    between atoms: C1_2  and  N2_4
REMARK    1  A    between atoms: N2_4  and  C2_6
REMARK    2  A    between atoms: C4_11  and  N5_12
REMARK    3  A    between atoms: N5_12  and  O2_14
ROOT
HETATM    1  C2  UNL     1      -1.438  10.155  11.526  1.00  0.00     0.690 A
HETATM    2  N3  UNL     1      -0.377  10.895  11.154  1.00  0.00    -0.176 N
ATOM      3  H3  UNL     1       0.301  11.162  11.870  1.00  0.00     0.185 HD
HETATM    4  C3  UNL     1      -0.162  11.302   9.891  1.00  0.00     0.166 A
HETATM    5  N4  UNL     1       0.968  12.082   9.528  1.00  0.00    -0.079 NA
HETATM    6  C4  UNL     1      -1.084  10.933   8.940  1.00  0.00     0.164 A
HETATM    7  C5  UNL     1      -2.172  10.171   9.342  1.00  0.00     0.291 A
HETATM    8  O3  UNL     1      -3.009   9.834   8.491  1.00  0.00    -0.265 OA
HETATM    9  N6  UNL     1      -2.349   9.787  10.607  1.00  0.00    -0.154 N
ATOM     10  H6  UNL     1      -3.159   9.227  10.872  1.00  0.00     0.187 HD
ENDROOT
BRANCH   1  11
HETATM   11  N2  UNL     1      -1.565   9.807  12.766  1.00  0.00    -0.143 N
HETATM   12  C1  UNL     1      -1.447   8.461  13.174  1.00  0.00     0.346 C
HETATM   13  N1  UNL     1      -0.273   8.053  13.906  1.00  0.00    -0.039 NA
HETATM   14  O1  UNL     1      -2.340   7.619  12.915  1.00  0.00    -0.250 OA
ATOM     15  H2  UNL     1      -1.756  10.524  13.466  1.00  0.00     0.188 HD
ENDBRANCH   1  11
BRANCH   6  16
HETATM   16  N5  UNL     1      -0.889  11.347   7.592  1.00  0.00    -0.261 N
ATOM     17  H5  UNL     1      -0.669  12.324   7.402  1.00  0.00     0.194 HD
BRANCH  16  18
HETATM   18  O2  UNL     1      -0.979  10.553   6.638  1.00  0.00    -0.289 OA
ATOM     19  H2  UNL     1      -0.398  10.599   5.888  1.00  0.00     0.244 HD
ENDBRANCH  16  18
ENDBRANCH   6  16
TORSDOF 3
ENDMDL