MODEL 1
REMARK VINA RESULT: -6.765463098      0.000      0.000
REMARK  4 active torsions:
REMARK  status: ('A' for Active; 'I' for Inactive)
REMARK    1  A    between atoms: O1_3  and  C2_4
REMARK    2  A    between atoms: C2_4  and  C3_6
REMARK    3  A    between atoms: C4_7  and  O3_8
REMARK    4  A    between atoms: C5_12  and  N3_13
ROOT
HETATM    1  N1  UNL     1      -0.918   6.255  18.109  1.00  0.00    -0.163 NA
HETATM    2  C1  UNL     1      -1.999   6.172  17.700  1.00  0.00     0.237 C
HETATM    3  O1  UNL     1      -3.292   6.085  17.233  1.00  0.00    -0.200 OA
ENDROOT
BRANCH   3   4
HETATM    4  C2  UNL     1      -3.847   7.041  16.394  1.00  0.00     0.317 C
HETATM    5  O2  UNL     1      -5.070   7.305  16.589  1.00  0.00    -0.258 OA
BRANCH   4   6
HETATM    6  C3  UNL     1      -3.088   7.707  15.350  1.00  0.00     0.160 A
HETATM    7  C4  UNL     1      -2.622   8.992  15.466  1.00  0.00     0.177 A
HETATM    8  N2  UNL     1      -1.918   9.612  14.500  1.00  0.00    -0.170 N
HETATM    9  C5  UNL     1      -1.669   8.924  13.372  1.00  0.00     0.680 A
ATOM     10  H2  UNL     1      -1.587  10.569  14.619  1.00  0.00     0.186 HD
HETATM   11  N4  UNL     1      -2.109   7.658  13.212  1.00  0.00    -0.155 N
HETATM   12  C6  UNL     1      -2.820   7.026  14.185  1.00  0.00     0.280 A
ATOM     13  H4  UNL     1      -1.903   7.164  12.344  1.00  0.00     0.187 HD
HETATM   14  O4  UNL     1      -3.212   5.839  13.994  1.00  0.00    -0.266 OA
BRANCH   7  15
HETATM   15  O3  UNL     1      -2.896   9.671  16.641  1.00  0.00    -0.345 OA
ATOM     16  H3  UNL     1      -3.093  10.598  16.578  1.00  0.00     0.219 HD
ENDBRANCH   7  15
BRANCH   9  17
HETATM   17  N3  UNL     1      -1.000   9.484  12.426  1.00  0.00    -0.234 N
ATOM     18  H32 UNL     1      -0.953  10.502  12.381  1.00  0.00     0.174 HD
ATOM     19  H31 UNL     1      -0.527   8.901  11.736  1.00  0.00     0.174 HD
ENDBRANCH   9  17
ENDBRANCH   4   6
ENDBRANCH   3   4
TORSDOF 4
ENDMDL