MODEL 1
REMARK VINA RESULT: -6.609516435      0.000      0.000
REMARK  5 active torsions:
REMARK  status: ('A' for Active; 'I' for Inactive)
REMARK    1  A    between atoms: O1_2  and  C2_3
REMARK    2  A    between atoms: C2_3  and  C3_5
REMARK    3  A    between atoms: C6_11  and  N3_12
REMARK    4  A    between atoms: N3_12  and  N4_14
REMARK    5  A    between atoms: C7_19  and  N6_20
ROOT
HETATM    1  C3  UNL     1      -2.769   7.589  15.304  1.00  0.00     0.121 A
HETATM    2  C4  UNL     1      -2.303   6.868  14.227  1.00  0.00     0.149 A
HETATM    3  C5  UNL     1      -2.509   5.431  14.160  1.00  0.00     0.119 C
HETATM    4  N1  UNL     1      -2.665   4.282  14.086  1.00  0.00    -0.190 NA
HETATM    5  N2  UNL     1      -1.649   7.516  13.232  1.00  0.00    -0.179 N
ATOM      6  H2  UNL     1      -1.298   6.997  12.428  1.00  0.00     0.185 HD
HETATM    7  C6  UNL     1      -1.468   8.831  13.311  1.00  0.00     0.699 A
HETATM    8  N5  UNL     1      -1.913   9.551  14.347  1.00  0.00    -0.175 N
ATOM      9  H5  UNL     1      -1.754  10.559  14.366  1.00  0.00     0.186 HD
HETATM   10  C7  UNL     1      -2.567   8.963  15.360  1.00  0.00     0.134 A
ENDROOT
BRANCH   1  11
HETATM   11  C2  UNL     1      -3.479   6.960  16.407  1.00  0.00     0.299 C
HETATM   12  O2  UNL     1      -4.743   7.015  16.438  1.00  0.00    -0.259 OA
BRANCH  11  13
HETATM   13  O1  UNL     1      -2.899   6.290  17.457  1.00  0.00    -0.322 OA
HETATM   14  C1  UNL     1      -1.512   6.332  17.745  1.00  0.00     0.213 C
ENDBRANCH  11  13
ENDBRANCH   1  11
BRANCH  10  15
HETATM   15  N6  UNL     1      -3.003   9.641  16.369  1.00  0.00    -0.384 N
ATOM     16  H62 UNL     1      -2.466   9.721  17.232  1.00  0.00     0.157 HD
ATOM     17  H61 UNL     1      -3.905  10.115  16.315  1.00  0.00     0.157 HD
ENDBRANCH  10  15
BRANCH   7  18
HETATM   18  N3  UNL     1      -0.843   9.423  12.349  1.00  0.00    -0.138 N
ATOM     19  H3  UNL     1      -0.000   8.986  11.977  1.00  0.00     0.205 HD
BRANCH  18  20
HETATM   20  N4  UNL     1      -1.263  10.631  11.794  1.00  0.00    -0.331 N
ATOM     21  H42 UNL     1      -1.347  11.431  12.422  1.00  0.00     0.177 HD
ATOM     22  H41 UNL     1      -1.485  10.745  10.805  1.00  0.00     0.177 HD
ENDBRANCH  18  20
ENDBRANCH   7  18
TORSDOF 5
ENDMDL