MODEL 4
REMARK VINA RESULT: -5.902542649      3.439      5.606
REMARK  3 active torsions:
REMARK  status: ('A' for Active; 'I' for Inactive)
REMARK    1  A    between atoms: S1_2  and  C2_3
REMARK    2  A    between atoms: C4_8  and  C5_9
REMARK       I    between atoms: C5_9  and  N3_11
REMARK    3  A    between atoms: N3_11  and  N4_13
ROOT
HETATM    1  C2  UNL     1      -1.464   6.008  17.171  1.00  0.00     0.147 A
HETATM    2  N1  UNL     1      -1.906   7.276  17.205  1.00  0.00    -0.324 N
ATOM      3  H1  UNL     1      -2.154   7.706  18.096  1.00  0.00     0.169 HD
HETATM    4  C3  UNL     1      -2.021   7.973  16.072  1.00  0.00     0.139 A
HETATM    5  N2  UNL     1      -2.485   9.305  16.105  1.00  0.00    -0.081 NA
HETATM    6  C4  UNL     1      -1.684   7.400  14.821  1.00  0.00     0.142 A
HETATM    7  C6  UNL     1      -1.234   6.101  14.812  1.00  0.00     0.266 A
HETATM    8  O2  UNL     1      -0.925   5.548  13.747  1.00  0.00    -0.267 OA
HETATM    9  N5  UNL     1      -1.143   5.456  15.995  1.00  0.00    -0.303 N
ATOM     10  H5  UNL     1      -0.809   4.492  15.992  1.00  0.00     0.171 HD
ENDROOT
BRANCH   6  11
HETATM   11  C5  UNL     1      -1.847   8.243  13.661  1.00  0.00     0.278 C
HETATM   12  O1  UNL     1      -2.931   8.139  12.963  1.00  0.00    -0.266 OA
HETATM   13  N3  UNL     1      -0.923   9.181  13.215  1.00  0.00    -0.272 N
ATOM     14  H3  UNL     1      -0.049   9.309  13.725  1.00  0.00     0.189 HD
BRANCH  13  15
HETATM   15  N4  UNL     1      -1.184   9.972  12.046  1.00  0.00    -0.342 N
ATOM     16  H42 UNL     1      -0.768  10.900  11.982  1.00  0.00     0.176 HD
ATOM     17  H41 UNL     1      -1.773   9.614  11.295  1.00  0.00     0.176 HD
ENDBRANCH  13  15
ENDBRANCH   6  11
BRANCH   1  18
HETATM   18  S1  UNL     1      -1.334   5.131  18.730  1.00  0.00    -0.098 SA
HETATM   19  C1  UNL     1      -1.364   3.359  18.342  1.00  0.00     0.099 C
ENDBRANCH   1  18
TORSDOF 3
ENDMDL