MODEL 1
REMARK VINA RESULT: -8.271809198      0.000      0.000
REMARK  7 active torsions:
REMARK  status: ('A' for Active; 'I' for Inactive)
REMARK    1  A    between atoms: C2_2  and  C4_4
REMARK    2  A    between atoms: C4_4  and  C5_5
REMARK    3  A    between atoms: C4_4  and  N2_12
REMARK    4  A    between atoms: C5_5  and  O1_6
REMARK    5  A    between atoms: O1_6  and  C6_7
REMARK       I    between atoms: C6_7  and  N1_9
REMARK    6  A    between atoms: N2_12  and  C9_14
REMARK    7  A    between atoms: C10_17  and  N4_18
ROOT
HETATM    1  C9  UNL     1      -1.295   7.971  11.806  1.00  0.00     0.149 A
HETATM    2  N3  UNL     1      -0.870   6.888  11.147  1.00  0.00    -0.175 N
ATOM      3  H3  UNL     1      -1.170   5.975  11.489  1.00  0.00     0.186 HD
HETATM    4  C10 UNL     1      -0.082   6.923  10.073  1.00  0.00     0.679 A
HETATM    5  N5  UNL     1       0.331   8.108   9.599  1.00  0.00    -0.173 N
ATOM      6  H5  UNL     1       0.935   8.149   8.779  1.00  0.00     0.186 HD
HETATM    7  C11 UNL     1      -0.059   9.250  10.214  1.00  0.00     0.169 A
HETATM    8  N6  UNL     1       0.187  10.546   9.975  1.00  0.00    -0.268 N
ATOM      9  H6  UNL     1       0.762  10.915   9.217  1.00  0.00     0.190 HD
HETATM   10  N7  UNL     1      -0.436  11.255  10.878  1.00  0.00    -0.240 N
ATOM     11  H7  UNL     1      -0.420  12.274  10.933  1.00  0.00     0.208 HD
HETATM   12  N8  UNL     1      -1.089  10.467  11.710  1.00  0.00    -0.279 N
ATOM     13  H8  UNL     1      -1.654  10.771  12.503  1.00  0.00     0.189 HD
HETATM   14  C12 UNL     1      -0.881   9.201  11.333  1.00  0.00     0.140 A
ENDROOT
BRANCH   1  15
HETATM   15  N2  UNL     1      -2.036   7.880  12.811  1.00  0.00    -0.367 N
ATOM     16  H2  UNL     1      -2.770   8.584  12.881  1.00  0.00     0.161 HD
BRANCH  15  17
HETATM   17  C4  UNL     1      -1.997   6.913  13.888  1.00  0.00     0.111 C
BRANCH  17  18
HETATM   18  C2  UNL     1      -3.441   6.672  14.265  1.00  0.00     0.002 C
HETATM   19  C1  UNL     1      -3.850   7.239  15.581  1.00  0.00     0.011 C
HETATM   20  C3  UNL     1      -3.596   5.148  14.370  1.00  0.00     0.011 C
ENDBRANCH  17  18
BRANCH  17  21
HETATM   21  C5  UNL     1      -1.160   7.494  14.967  1.00  0.00     0.206 C
BRANCH  21  22
HETATM   22  O1  UNL     1      -0.362   6.652  15.708  1.00  0.00    -0.302 OA
BRANCH  22  23
HETATM   23  C6  UNL     1      -0.785   6.236  16.975  1.00  0.00     0.362 C
HETATM   24  O2  UNL     1      -1.010   7.058  17.898  1.00  0.00    -0.238 OA
HETATM   25  N1  UNL     1      -0.970   4.856  17.255  1.00  0.00    -0.337 N
HETATM   26  C7  UNL     1      -0.721   3.880  16.222  1.00  0.00     0.154 C
HETATM   27  C8  UNL     1      -1.406   4.440  18.568  1.00  0.00     0.154 C
ENDBRANCH  22  23
ENDBRANCH  21  22
ENDBRANCH  17  21
ENDBRANCH  15  17
ENDBRANCH   1  15
BRANCH   4  28
HETATM   28  N4  UNL     1       0.312   5.863   9.458  1.00  0.00    -0.234 N
ATOM     29  H42 UNL     1      -0.356   5.396   8.845  1.00  0.00     0.174 HD
ATOM     30  H41 UNL     1       1.252   5.480   9.560  1.00  0.00     0.174 HD
ENDBRANCH   4  28
TORSDOF 7
ENDMDL