MODEL 5
REMARK VINA RESULT: -7.313093510      2.229      3.227
REMARK  7 active torsions:
REMARK  status: ('A' for Active; 'I' for Inactive)
REMARK    1  A    between atoms: O1_2  and  C2_3
REMARK    2  A    between atoms: C2_3  and  C3_5
REMARK    3  A    between atoms: C6_8  and  C7_9
REMARK    4  A    between atoms: C9_11  and  C11_13
REMARK    5  A    between atoms: C11_13  and  C12_19
REMARK    6  A    between atoms: N1_14  and  N2_16
REMARK    7  A    between atoms: C13_22  and  O5_24
ROOT
HETATM    1  C7  UNL     1      -0.313   8.473  11.117  1.00  0.00    -0.068 C
HETATM    2  C8  UNL     1      -1.098   9.660  11.677  1.00  0.00     0.044 C
HETATM    3  C9  UNL     1      -0.237   8.382   9.826  1.00  0.00    -0.025 C
HETATM    4  C10 UNL     1       0.582   7.399   9.046  1.00  0.00     0.051 C
ENDROOT
BRANCH   1   5
HETATM    5  C6  UNL     1       0.321   7.686  12.137  1.00  0.00     0.050 C
HETATM    6  C5  UNL     1       0.900   6.357  11.988  1.00  0.00     0.013 C
HETATM    7  C4  UNL     1       1.229   5.913  13.451  1.00  0.00     0.018 C
HETATM    8  C3  UNL     1       0.407   6.818  14.274  1.00  0.00     0.120 C
HETATM    9  C13 UNL     1      -0.612   7.420  13.348  1.00  0.00     0.074 C
HETATM   10  C14 UNL     1      -1.675   6.427  12.974  1.00  0.00     0.047 C
BRANCH   8  11
HETATM   11  C2  UNL     1      -0.208   6.177  15.458  1.00  0.00     0.265 C
HETATM   12  O2  UNL     1      -0.753   6.907  16.322  1.00  0.00    -0.265 OA
BRANCH  11  13
HETATM   13  O1  UNL     1      -0.180   4.812  15.602  1.00  0.00    -0.326 OA
HETATM   14  C1  UNL     1       0.449   4.304  16.786  1.00  0.00     0.213 C
ENDBRANCH  11  13
ENDBRANCH   8  11
BRANCH   9  15
HETATM   15  O5  UNL     1      -1.146   8.524  13.913  1.00  0.00    -0.389 OA
ATOM     16  H5  UNL     1      -0.481   9.197  13.995  1.00  0.00     0.210 HD
ENDBRANCH   9  15
ENDBRANCH   1   5
BRANCH   3  17
HETATM   17  C11 UNL     1      -1.078   9.221   8.933  1.00  0.00     0.130 C
HETATM   18  N1  UNL     1      -2.303   8.970   8.661  1.00  0.00    -0.301 N
ATOM     19  H1  UNL     1      -2.693   8.136   9.100  1.00  0.00     0.186 HD
BRANCH  18  20
HETATM   20  N2  UNL     1      -3.148   9.668   7.865  1.00  0.00    -0.344 N
ATOM     21  H22 UNL     1      -3.244   9.299   6.919  1.00  0.00     0.176 HD
ATOM     22  H21 UNL     1      -3.688  10.502   8.093  1.00  0.00     0.176 HD
ENDBRANCH  18  20
BRANCH  17  23
HETATM   23  C12 UNL     1      -0.555  10.411   8.231  1.00  0.00     0.228 C
HETATM   24  O3  UNL     1       0.106  11.301   8.900  1.00  0.00    -0.643 OA
HETATM   25  O4  UNL     1      -0.680  10.724   6.910  1.00  0.00    -0.643 OA
ENDBRANCH  17  23
ENDBRANCH   3  17
TORSDOF 7
ENDMDL