MODEL 3
REMARK VINA RESULT: -7.333802622      1.809      3.849
REMARK  5 active torsions:
REMARK  status: ('A' for Active; 'I' for Inactive)
REMARK    1  A    between atoms: O1_2  and  N1_3
REMARK    2  A    between atoms: C2_5  and  C3_6
REMARK    3  A    between atoms: C3_6  and  C4_7
REMARK    4  A    between atoms: C6_9  and  C7_10
REMARK    5  A    between atoms: C6_9  and  C8_13
ROOT
HETATM    1  C4  UNL     1      -1.112   6.627  13.903  1.00  0.00     0.161 C
HETATM    2  C5  UNL     1      -1.331   7.085  15.312  1.00  0.00     0.103 C
HETATM    3  C6  UNL     1      -2.473   6.256  15.855  1.00  0.00     0.301 C
HETATM    4  N2  UNL     1      -2.759   5.248  14.880  1.00  0.00    -0.039 N
ATOM      5  H21 UNL     1      -3.681   5.363  14.459  1.00  0.00     0.280 HD
ATOM      6  H22 UNL     1      -2.910   4.331  15.300  1.00  0.00     0.280 HD
HETATM    7  C9  UNL     1      -1.710   5.238  13.906  1.00  0.00     0.224 C
HETATM    8  C10 UNL     1      -0.649   4.216  14.284  1.00  0.00     0.041 C
HETATM    9  C11 UNL     1       0.373   4.201  13.163  1.00  0.00     0.009 C
HETATM   10  C12 UNL     1       1.765   3.871  13.690  1.00  0.00     0.011 C
HETATM   11  C13 UNL     1       0.478   5.585  12.519  1.00  0.00     0.237 C
HETATM   12  N3  UNL     1       0.281   6.580  13.532  1.00  0.00    -0.063 N
ATOM     13  H31 UNL     1       0.888   6.434  14.338  1.00  0.00     0.278 HD
ATOM     14  H32 UNL     1       0.633   7.494  13.247  1.00  0.00     0.278 HD
ENDROOT
BRANCH   1  15
HETATM   15  C3  UNL     1      -1.851   7.487  12.913  1.00  0.00     0.087 C
BRANCH  15  16
HETATM   16  C2  UNL     1      -1.472   8.905  13.010  1.00  0.00     0.089 C
HETATM   17  N1  UNL     1      -0.703   9.392  12.096  1.00  0.00    -0.282 N
ATOM     18  H1  UNL     1      -0.443  10.375  12.168  1.00  0.00     0.193 HD
BRANCH  17  19
HETATM   19  O1  UNL     1      -0.220   8.684  11.047  1.00  0.00    -0.286 OA
HETATM   20  C1  UNL     1      -0.170   9.298   9.772  1.00  0.00     0.237 C
ENDBRANCH  17  19
ENDBRANCH  15  16
ENDBRANCH   1  15
BRANCH   3  21
HETATM   21  C7  UNL     1      -2.165   5.646  17.152  1.00  0.00     0.222 C
HETATM   22  O2  UNL     1      -2.552   4.475  17.385  1.00  0.00    -0.646 OA
HETATM   23  O3  UNL     1      -1.462   6.275  18.167  1.00  0.00    -0.646 OA
ENDBRANCH   3  21
BRANCH   3  24
HETATM   24  C8  UNL     1      -3.611   7.188  16.060  1.00  0.00     0.222 C
HETATM   25  O4  UNL     1      -3.479   8.422  15.880  1.00  0.00    -0.646 OA
HETATM   26  O5  UNL     1      -4.820   6.636  16.456  1.00  0.00    -0.646 OA
ENDBRANCH   3  24
TORSDOF 5
ENDMDL