MODEL 5
REMARK VINA RESULT: -8.203228299      1.623      2.120
REMARK  5 active torsions:
REMARK  status: ('A' for Active; 'I' for Inactive)
REMARK    1  A    between atoms: N1_2  and  C2_5
REMARK    2  A    between atoms: C2_5  and  C4_7
REMARK    3  A    between atoms: C5_8  and  C6_9
REMARK       I    between atoms: C6_9  and  N2_11
REMARK    4  A    between atoms: N2_11  and  C7_13
REMARK    5  A    between atoms: N4_16  and  C9_17
ROOT
HETATM    1  C7  UNL     1      -1.599   7.769  14.237  1.00  0.00     0.145 A
HETATM    2  C8  UNL     1      -1.811   6.383  14.374  1.00  0.00     0.155 A
HETATM    3  N3  UNL     1      -1.263   5.526  13.376  1.00  0.00    -0.080 NA
HETATM    4  N4  UNL     1      -2.488   5.801  15.357  1.00  0.00    -0.281 N
HETATM    5  C13 UNL     1      -3.005   6.636  16.292  1.00  0.00     0.331 A
HETATM    6  O2  UNL     1      -3.654   6.114  17.239  1.00  0.00    -0.246 OA
HETATM    7  N5  UNL     1      -2.838   7.957  16.215  1.00  0.00    -0.273 N
ATOM      8  H5  UNL     1      -3.248   8.542  16.943  1.00  0.00     0.173 HD
HETATM    9  C14 UNL     1      -2.142   8.566  15.207  1.00  0.00     0.279 A
HETATM   10  O3  UNL     1      -2.040   9.824  15.234  1.00  0.00    -0.265 OA
ENDROOT
BRANCH   1  11
HETATM   11  N2  UNL     1      -0.821   8.233  13.168  1.00  0.00    -0.316 N
HETATM   12  C6  UNL     1      -1.148   8.638  11.878  1.00  0.00     0.245 C
HETATM   13  O1  UNL     1      -2.294   8.634  11.436  1.00  0.00    -0.268 OA
ATOM     14  H2  UNL     1       0.176   8.282  13.375  1.00  0.00     0.169 HD
BRANCH  12  15
HETATM   15  C5  UNL     1      -0.077   9.098  10.991  1.00  0.00     0.072 C
HETATM   16  C4  UNL     1      -0.131   9.809   9.923  1.00  0.00     0.011 C
BRANCH  16  17
HETATM   17  C2  UNL     1      -1.321  10.364   9.294  1.00  0.00     0.204 C
HETATM   18  C3  UNL     1      -0.871  11.504   8.375  1.00  0.00     0.044 C
BRANCH  17  19
HETATM   19  N1  UNL     1      -1.962   9.323   8.453  1.00  0.00    -0.072 N
HETATM   20  C1  UNL     1      -3.335   9.740   8.293  1.00  0.00     0.267 C
ATOM     21  H12 UNL     1      -1.863   8.379   8.825  1.00  0.00     0.277 HD
ATOM     22  H11 UNL     1      -1.479   9.158   7.569  1.00  0.00     0.277 HD
ENDBRANCH  17  19
ENDBRANCH  16  17
ENDBRANCH  12  15
ENDBRANCH   1  11
BRANCH   4  23
HETATM   23  C9  UNL     1      -2.686   4.398  15.474  1.00  0.00     0.096 C
HETATM   24  C10 UNL     1      -3.689   3.785  14.524  1.00  0.00     0.026 C
HETATM   25  C11 UNL     1      -2.782   2.542  14.507  1.00  0.00     0.004 C
HETATM   26  C12 UNL     1      -1.632   3.514  14.815  1.00  0.00     0.026 C
ENDBRANCH   4  23
TORSDOF 5
ENDMDL