MODEL 3
REMARK VINA RESULT: -6.713660593      1.513      1.671
REMARK  9 active torsions:
REMARK  status: ('A' for Active; 'I' for Inactive)
REMARK       I    between atoms: C2_2  and  N1_4
REMARK    1  A    between atoms: N1_4  and  S1_6
REMARK    2  A    between atoms: S1_6  and  N2_8
REMARK    3  A    between atoms: S1_6  and  N5_21
REMARK    4  A    between atoms: N2_8  and  O3_10
REMARK    5  A    between atoms: O3_10  and  C3_11
REMARK    6  A    between atoms: C3_11  and  N4_15
REMARK    7  A    between atoms: N4_15  and  C4_17
REMARK    8  A    between atoms: N5_21  and  C8_23
REMARK    9  A    between atoms: C8_23  and  C9_24
ROOT
HETATM    1  C9  UNL     1      -1.622  11.471   8.846  1.00  0.00     0.144 C
HETATM    2  C10 UNL     1      -0.291  11.656   8.271  1.00  0.00     0.060 C
HETATM    3  N6  UNL     1       0.767  11.786   7.828  1.00  0.00    -0.197 NA
ENDROOT
BRANCH   1   4
HETATM    4  C8  UNL     1      -2.191  10.147   8.385  1.00  0.00     0.146 C
BRANCH   4   5
HETATM    5  N5  UNL     1      -1.075   9.267   8.085  1.00  0.00    -0.317 N
ATOM      6  H5  UNL     1      -0.592   9.243   7.187  1.00  0.00     0.172 HD
BRANCH   5   7
HETATM    7  S1  UNL     1      -0.662   8.271   9.421  1.00  0.00     0.220 S
HETATM    8  O2  UNL     1       0.726   8.658   9.878  1.00  0.00    -0.204 OA
BRANCH   7   9
HETATM    9  N1  UNL     1      -0.654   6.637   8.855  1.00  0.00    -0.254 N
HETATM   10  C2  UNL     1      -0.483   5.556   9.760  1.00  0.00     0.227 C
HETATM   11  C1  UNL     1      -0.472   4.161   9.298  1.00  0.00     0.118 C
HETATM   12  O1  UNL     1      -0.338   5.780  10.976  1.00  0.00    -0.273 OA
ATOM     13  H1  UNL     1      -0.773   6.447   7.860  1.00  0.00     0.181 HD
ENDBRANCH   7   9
BRANCH   7  14
HETATM   14  N2  UNL     1      -1.674   8.416  10.605  1.00  0.00    -0.183 N
ATOM     15  H2  UNL     1      -2.567   7.925  10.552  1.00  0.00     0.208 HD
BRANCH  14  16
HETATM   16  O3  UNL     1      -1.407   9.168  11.698  1.00  0.00    -0.192 OA
BRANCH  16  17
HETATM   17  C3  UNL     1      -0.834   8.665  12.843  1.00  0.00     0.238 C
HETATM   18  N3  UNL     1       0.305   8.094  12.780  1.00  0.00    -0.364 N
ATOM     19  H32 UNL     1       0.794   8.009  11.888  1.00  0.00     0.159 HD
ATOM     20  H31 UNL     1       0.730   7.722  13.629  1.00  0.00     0.159 HD
BRANCH  17  21
HETATM   21  N4  UNL     1      -1.503   8.781  14.063  1.00  0.00    -0.347 N
ATOM     22  H4  UNL     1      -1.567   9.712  14.476  1.00  0.00     0.163 HD
BRANCH  21  23
HETATM   23  C4  UNL     1      -2.108   7.698  14.785  1.00  0.00     0.022 C
HETATM   24  C5  UNL     1      -3.046   8.269  15.824  1.00  0.00     0.037 C
HETATM   25  C6  UNL     1      -2.923   6.879  13.799  1.00  0.00     0.037 C
HETATM   26  C7  UNL     1      -1.079   6.815  15.465  1.00  0.00     0.037 C
ENDBRANCH  21  23
ENDBRANCH  17  21
ENDBRANCH  16  17
ENDBRANCH  14  16
ENDBRANCH   7  14
ENDBRANCH   5   7
ENDBRANCH   4   5
ENDBRANCH   1   4
TORSDOF 9
ENDMDL