MODEL 1
REMARK VINA RESULT: -7.608048020      0.000      0.000
REMARK  4 active torsions:
REMARK  status: ('A' for Active; 'I' for Inactive)
REMARK    1  A    between atoms: O1_2  and  C2_3
REMARK    2  A    between atoms: C4_5  and  C5_6
REMARK    3  A    between atoms: C10_18  and  O4_19
REMARK    4  A    between atoms: C12_21  and  O5_22
ROOT
HETATM    1  C2  UNL     1      -0.969   5.949  16.937  1.00  0.00     0.105 A
HETATM    2  C3  UNL     1      -0.949   7.057  16.111  1.00  0.00     0.053 A
HETATM    3  C4  UNL     1      -1.830   7.227  15.089  1.00  0.00    -0.004 A
HETATM    4  C9  UNL     1      -2.785   6.239  14.879  1.00  0.00     0.093 A
HETATM    5  N3  UNL     1      -3.724   6.376  13.827  1.00  0.00    -0.099 NA
HETATM    6  C10 UNL     1      -2.827   5.114  15.696  1.00  0.00     0.129 A
HETATM    7  C12 UNL     1      -1.926   4.961  16.724  1.00  0.00     0.137 A
ENDROOT
BRANCH   3   8
HETATM    8  C5  UNL     1      -1.816   8.364  14.185  1.00  0.00     0.049 C
HETATM    9  C6  UNL     1      -1.127   8.522  13.105  1.00  0.00     0.105 A
HETATM   10  N1  UNL     1      -1.167   9.690  12.261  1.00  0.00    -0.304 N
HETATM   11  C8  UNL     1      -0.207   7.632  12.429  1.00  0.00     0.276 A
HETATM   12  C7  UNL     1      -0.326   9.527  11.141  1.00  0.00     0.327 A
ATOM     13  H1  UNL     1      -1.727  10.521  12.450  1.00  0.00     0.171 HD
HETATM   14  O2  UNL     1      -0.160  10.378  10.239  1.00  0.00    -0.247 OA
HETATM   15  N2  UNL     1       0.287   8.255  11.216  1.00  0.00    -0.274 N
ATOM     16  H2  UNL     1       0.946   7.855  10.550  1.00  0.00     0.173 HD
HETATM   17  O3  UNL     1       0.147   6.473  12.793  1.00  0.00    -0.266 OA
ENDBRANCH   3   8
BRANCH   1  18
HETATM   18  O1  UNL     1      -0.076   5.771  17.977  1.00  0.00    -0.353 OA
HETATM   19  C1  UNL     1      -0.328   5.956  19.336  1.00  0.00     0.210 C
ENDBRANCH   1  18
BRANCH   6  20
HETATM   20  O4  UNL     1      -3.808   4.131  15.456  1.00  0.00    -0.351 OA
HETATM   21  C11 UNL     1      -3.383   3.135  14.511  1.00  0.00     0.210 C
ENDBRANCH   6  20
BRANCH   7  22
HETATM   22  O5  UNL     1      -2.004   3.818  17.516  1.00  0.00    -0.351 OA
HETATM   23  C13 UNL     1      -1.137   2.719  17.361  1.00  0.00     0.210 C
ENDBRANCH   7  22
TORSDOF 4
ENDMDL