MODEL 1
REMARK VINA RESULT: -7.474942784      0.000      0.000
REMARK  5 active torsions:
REMARK  status: ('A' for Active; 'I' for Inactive)
REMARK    1  A    between atoms: C2_2  and  O1_3
REMARK    2  A    between atoms: O1_3  and  C3_4
REMARK    3  A    between atoms: C3_4  and  C4_6
REMARK    4  A    between atoms: C5_7  and  S1_8
REMARK    5  A    between atoms: C9_17  and  N3_18
ROOT
HETATM    1  C4  UNL     1      -0.401   7.258  11.161  1.00  0.00     0.081 A
HETATM    2  C5  UNL     1       0.085   6.138  10.480  1.00  0.00     0.085 A
HETATM    3  C7  UNL     1       0.465   6.301   9.170  1.00  0.00     0.264 A
HETATM    4  O3  UNL     1       0.916   5.337   8.480  1.00  0.00    -0.267 OA
HETATM    5  N1  UNL     1       0.372   7.501   8.564  1.00  0.00    -0.307 N
ATOM      6  H1  UNL     1       0.666   7.576   7.590  1.00  0.00     0.170 HD
HETATM    7  C8  UNL     1      -0.088   8.602   9.178  1.00  0.00     0.140 A
HETATM    8  N2  UNL     1      -0.178   9.790   8.565  1.00  0.00    -0.176 N
ATOM      9  H2  UNL     1       0.113   9.876   7.591  1.00  0.00     0.186 HD
HETATM   10  C9  UNL     1      -0.650  10.880   9.220  1.00  0.00     0.680 A
HETATM   11  N4  UNL     1      -1.032  10.783  10.484  1.00  0.00    -0.155 N
ATOM     12  H4  UNL     1      -1.387  11.602  10.975  1.00  0.00     0.187 HD
HETATM   13  C10 UNL     1      -0.948   9.586  11.125  1.00  0.00     0.274 A
HETATM   14  O4  UNL     1      -1.319   9.537  12.313  1.00  0.00    -0.267 OA
HETATM   15  C11 UNL     1      -0.478   8.453  10.510  1.00  0.00     0.095 A
ENDROOT
BRANCH   1  16
HETATM   16  C3  UNL     1      -0.812   7.135  12.538  1.00  0.00     0.296 C
HETATM   17  O2  UNL     1       0.056   7.262  13.470  1.00  0.00    -0.259 OA
BRANCH  16  18
HETATM   18  O1  UNL     1      -2.109   6.884  12.943  1.00  0.00    -0.318 OA
BRANCH  18  19
HETATM   19  C2  UNL     1      -2.375   5.896  13.951  1.00  0.00     0.174 C
HETATM   20  C1  UNL     1      -3.833   5.893  14.321  1.00  0.00     0.034 C
ENDBRANCH  18  19
ENDBRANCH  16  18
ENDBRANCH   1  16
BRANCH   2  21
HETATM   21  S1  UNL     1       0.199   4.571  11.291  1.00  0.00    -0.128 SA
HETATM   22  C6  UNL     1       1.864   4.322  11.956  1.00  0.00     0.096 C
ENDBRANCH   2  21
BRANCH  10  23
HETATM   23  N3  UNL     1      -0.731  12.016   8.618  1.00  0.00    -0.234 N
ATOM     24  H32 UNL     1       0.118  12.469   8.281  1.00  0.00     0.174 HD
ATOM     25  H31 UNL     1      -1.639  12.462   8.478  1.00  0.00     0.174 HD
ENDBRANCH  10  23
TORSDOF 5
ENDMDL