MODEL 4
REMARK VINA RESULT: -7.462186608      2.430      2.631
REMARK  6 active torsions:
REMARK  status: ('A' for Active; 'I' for Inactive)
REMARK    1  A    between atoms: N1_2  and  C2_4
REMARK    2  A    between atoms: C3_7  and  C4_8
REMARK    3  A    between atoms: C4_8  and  N3_9
REMARK    4  A    between atoms: C4_8  and  C5_13
REMARK    5  A    between atoms: C5_13  and  C6_14
REMARK    6  A    between atoms: C9_21  and  C10_22
REMARK       I    between atoms: C10_22  and  N6_24
ROOT
HETATM    1  C4  UNL     1      -0.934   8.347  13.452  1.00  0.00     0.238 C
ENDROOT
BRANCH   1   2
HETATM    2  C3  UNL     1      -0.905   8.660  11.968  1.00  0.00     0.055 A
HETATM    3  N2  UNL     1      -1.738   9.460  11.356  1.00  0.00    -0.338 N
HETATM    4  C2  UNL     1      -1.592   9.651  10.044  1.00  0.00     0.144 A
ATOM      5  H2  UNL     1      -2.484   9.929  11.871  1.00  0.00     0.168 HD
HETATM    6  S1  UNL     1      -0.248   8.682   9.655  1.00  0.00    -0.057 SA
HETATM    7  C12 UNL     1       0.075   8.064  11.208  1.00  0.00     0.007 A
HETATM    8  C13 UNL     1       1.159   7.105  11.643  1.00  0.00     0.058 C
BRANCH   4   9
HETATM    9  N1  UNL     1      -2.283  10.389   9.219  1.00  0.00    -0.375 N
HETATM   10  C1  UNL     1      -3.288   9.768   8.413  1.00  0.00     0.148 C
ATOM     11  H1  UNL     1      -2.109  11.392   9.149  1.00  0.00     0.161 HD
ENDBRANCH   4   9
ENDBRANCH   1   2
BRANCH   1  12
HETATM   12  N3  UNL     1      -1.424   9.510  14.154  1.00  0.00    -0.069 N
ATOM     13  H33 UNL     1      -0.685  10.010  14.649  1.00  0.00     0.275 HD
ATOM     14  H32 UNL     1      -1.702  10.262  13.523  1.00  0.00     0.275 HD
ATOM     15  H31 UNL     1      -2.181   9.219  14.773  1.00  0.00     0.275 HD
ENDBRANCH   1  12
BRANCH   1  16
HETATM   16  C5  UNL     1      -1.857   7.173  13.627  1.00  0.00     0.082 C
BRANCH  16  17
HETATM   17  C6  UNL     1      -1.822   6.552  14.959  1.00  0.00     0.002 A
HETATM   18  C7  UNL     1      -2.804   6.635  15.920  1.00  0.00     0.030 A
HETATM   19  C8  UNL     1      -4.136   7.296  15.884  1.00  0.00     0.070 C
HETATM   20  N4  UNL     1      -2.383   5.961  17.003  1.00  0.00    -0.304 N
HETATM   21  N5  UNL     1      -1.193   5.444  16.811  1.00  0.00    -0.295 N
ATOM     22  H4  UNL     1      -2.920   5.863  17.865  1.00  0.00     0.186 HD
HETATM   23  C9  UNL     1      -0.826   5.801  15.542  1.00  0.00     0.124 A
ATOM     24  H5  UNL     1      -0.652   4.889  17.472  1.00  0.00     0.187 HD
BRANCH  23  25
HETATM   25  C10 UNL     1       0.442   5.434  14.939  1.00  0.00     0.269 C
HETATM   26  O1  UNL     1       1.486   6.111  15.099  1.00  0.00    -0.266 OA
HETATM   27  N6  UNL     1       0.535   4.278  14.136  1.00  0.00    -0.360 N
HETATM   28  C11 UNL     1       1.803   3.897  13.524  1.00  0.00     0.149 C
ATOM     29  H6  UNL     1      -0.293   3.703  13.981  1.00  0.00     0.162 HD
ENDBRANCH  23  25
ENDBRANCH  16  17
ENDBRANCH   1  16
TORSDOF 6
ENDMDL