MODEL 5
REMARK VINA RESULT: -8.243198567      3.117      5.837
REMARK  6 active torsions:
REMARK  status: ('A' for Active; 'I' for Inactive)
REMARK    1  A    between atoms: C3_3  and  O1_4
REMARK    2  A    between atoms: C5_10  and  C6_11
REMARK    3  A    between atoms: C5_10  and  C8_13
REMARK    4  A    between atoms: C8_13  and  O3_15
REMARK    5  A    between atoms: O3_15  and  C9_16
REMARK    6  A    between atoms: C11_18  and  C12_19
ROOT
HETATM    1  C1  UNL     1      -3.588   9.871   8.160  1.00  0.00     0.017 C
HETATM    2  C2  UNL     1      -2.693   9.468   8.803  1.00  0.00    -0.048 C
HETATM    3  C3  UNL     1      -1.562   9.027   9.574  1.00  0.00     0.256 C
HETATM    4  C4  UNL     1      -0.861  10.261  10.193  1.00  0.00     0.319 C
HETATM    5  N1  UNL     1       0.029   9.583  11.079  1.00  0.00    -0.027 N
ATOM      6  H11 UNL     1       0.336  10.166  11.857  1.00  0.00     0.281 HD
ATOM      7  H12 UNL     1       0.947   9.415  10.668  1.00  0.00     0.281 HD
HETATM    8  C5  UNL     1      -0.629   8.367  11.510  1.00  0.00     0.318 C
HETATM    9  O4  UNL     1      -1.821   8.327  10.724  1.00  0.00    -0.297 OA
ENDROOT
BRANCH   3  10
HETATM   10  O1  UNL     1      -0.607   8.410   8.784  1.00  0.00    -0.354 OA
ATOM     11  H1  UNL     1       0.261   8.770   8.930  1.00  0.00     0.214 HD
ENDBRANCH   3  10
BRANCH   8  12
HETATM   12  C6  UNL     1      -0.980   8.406  12.923  1.00  0.00     0.076 C
HETATM   13  C7  UNL     1      -2.230   7.722  13.339  1.00  0.00     0.010 C
ENDBRANCH   8  12
BRANCH   8  14
HETATM   14  C8  UNL     1       0.250   7.210  11.067  1.00  0.00     0.328 C
HETATM   15  O2  UNL     1       1.476   7.256  10.970  1.00  0.00    -0.259 OA
BRANCH  14  16
HETATM   16  O3  UNL     1      -0.431   6.071  10.807  1.00  0.00    -0.280 OA
BRANCH  16  17
HETATM   17  C9  UNL     1      -0.284   5.000  10.016  1.00  0.00     0.054 C
HETATM   18  C10 UNL     1      -0.457   4.913   8.715  1.00  0.00     0.018 C
HETATM   19  C11 UNL     1      -0.322   3.727   7.846  1.00  0.00     0.075 C
HETATM   20  C13 UNL     1       0.054   2.465   8.592  1.00  0.00     0.016 C
HETATM   21  C14 UNL     1      -0.427   2.502  10.032  1.00  0.00     0.007 C
HETATM   22  C15 UNL     1       0.149   3.710  10.720  1.00  0.00     0.065 C
BRANCH  19  23
HETATM   23  C12 UNL     1       0.476   3.918   6.642  1.00  0.00     0.094 C
HETATM   24  N2  UNL     1       0.059   4.795   5.725  1.00  0.00    -0.391 N
ATOM     25  H22 UNL     1      -0.823   5.247   5.966  1.00  0.00     0.157 HD
ATOM     26  H21 UNL     1       0.617   4.929   4.882  1.00  0.00     0.157 HD
HETATM   27  N3  UNL     1       1.699   3.292   6.308  1.00  0.00    -0.087 NA
ENDBRANCH  19  23
ENDBRANCH  16  17
ENDBRANCH  14  16
ENDBRANCH   8  14
TORSDOF 6
ENDMDL