MODEL 3
REMARK VINA RESULT: -7.357513823      1.885      2.114
REMARK  7 active torsions:
REMARK  status: ('A' for Active; 'I' for Inactive)
REMARK    1  A    between atoms: O1_2  and  C2_3
REMARK       I    between atoms: C2_3  and  N1_5
REMARK    2  A    between atoms: N1_5  and  C3_7
REMARK    3  A    between atoms: C5_11  and  C6_12
REMARK    4  A    between atoms: C7_13  and  C8_14
REMARK       I    between atoms: C8_14  and  N3_16
REMARK    5  A    between atoms: N3_16  and  C9_18
REMARK    6  A    between atoms: C9_18  and  N4_19
REMARK    7  A    between atoms: C9_18  and  C10_23
ROOT
HETATM    1  C6  UNL     1      -0.021   6.295  12.380  1.00  0.00     0.026 C
HETATM    2  C7  UNL     1       0.069   5.614  13.424  1.00  0.00     0.075 C
ENDROOT
BRANCH   1   3
HETATM    3  C5  UNL     1      -0.355   7.652  12.051  1.00  0.00     0.024 A
HETATM    4  C4  UNL     1      -0.973   8.694  12.668  1.00  0.00     0.109 A
HETATM    5  N2  UNL     1      -1.106   9.839  12.034  1.00  0.00    -0.345 N
HETATM    6  C3  UNL     1      -0.635   9.950  10.809  1.00  0.00     0.153 A
ATOM      7  H2  UNL     1      -1.566  10.629  12.484  1.00  0.00     0.167 HD
HETATM    8  S2  UNL     1       0.022   8.427  10.499  1.00  0.00    -0.053 SA
BRANCH   6   9
HETATM    9  N1  UNL     1      -0.681  11.011  10.034  1.00  0.00    -0.282 N
HETATM   10  C2  UNL     1      -1.232  10.929   8.729  1.00  0.00     0.366 C
HETATM   11  O2  UNL     1      -0.431  10.859   7.761  1.00  0.00    -0.238 OA
ATOM     12  H1  UNL     1      -0.317  11.901  10.374  1.00  0.00     0.173 HD
BRANCH  10  13
HETATM   13  O1  UNL     1      -2.583  10.922   8.448  1.00  0.00    -0.309 OA
HETATM   14  C1  UNL     1      -3.378   9.773   8.397  1.00  0.00     0.215 C
ENDBRANCH  10  13
ENDBRANCH   6   9
ENDBRANCH   1   3
BRANCH   2  15
HETATM   15  C8  UNL     1      -0.104   5.803  14.819  1.00  0.00     0.242 C
HETATM   16  O3  UNL     1       0.788   6.074  15.624  1.00  0.00    -0.269 OA
HETATM   17  N3  UNL     1      -1.428   5.680  15.402  1.00  0.00    -0.329 N
ATOM     18  H3  UNL     1      -2.209   5.458  14.786  1.00  0.00     0.164 HD
BRANCH  17  19
HETATM   19  C9  UNL     1      -1.692   5.855  16.800  1.00  0.00     0.294 C
BRANCH  19  20
HETATM   20  N4  UNL     1      -1.336   7.209  17.248  1.00  0.00    -0.058 N
ATOM     21  H43 UNL     1      -0.407   7.477  16.924  1.00  0.00     0.276 HD
ATOM     22  H42 UNL     1      -1.883   7.920  16.762  1.00  0.00     0.276 HD
ATOM     23  H41 UNL     1      -1.419   7.301  18.260  1.00  0.00     0.276 HD
ENDBRANCH  19  20
BRANCH  19  24
HETATM   24  C10 UNL     1      -3.188   5.724  17.047  1.00  0.00     0.140 C
HETATM   25  S1  UNL     1      -4.063   6.922  15.990  1.00  0.00    -0.094 SA
ENDBRANCH  19  24
ENDBRANCH  17  19
ENDBRANCH   2  15
TORSDOF 7
ENDMDL