MODEL 1
REMARK VINA RESULT: -6.963170866      0.000      0.000
REMARK  9 active torsions:
REMARK  status: ('A' for Active; 'I' for Inactive)
REMARK    1  A    between atoms: C2_3  and  C3_4
REMARK    2  A    between atoms: C3_4  and  N2_5
REMARK       I    between atoms: N2_5  and  C4_7
REMARK       I    between atoms: C4_7  and  N4_11
REMARK    3  A    between atoms: C6_13  and  N5_14
REMARK    4  A    between atoms: C6_13  and  C7_18
REMARK    5  A    between atoms: C7_18  and  N6_19
REMARK    6  A    between atoms: C9_26  and  N8_27
REMARK    7  A    between atoms: N8_27  and  C10_29
REMARK    8  A    between atoms: C10_29  and  C11_30
REMARK    9  A    between atoms: C11_30  and  N9_31
ROOT
HETATM    1  N1  UNL     1      56.783   6.501  33.783  1.00  0.00    -0.197 NA
HETATM    2  C1  UNL     1      55.764   6.501  33.223  1.00  0.00     0.060 C
HETATM    3  C2  UNL     1      54.467   6.474  32.509  1.00  0.00     0.144 C
ENDROOT
BRANCH   3   4
HETATM    4  C3  UNL     1      54.651   6.084  31.071  1.00  0.00     0.152 C
BRANCH   4   5
HETATM    5  N2  UNL     1      55.991   5.783  30.684  1.00  0.00    -0.225 N
HETATM    6  C4  UNL     1      56.624   6.382  29.567  1.00  0.00     0.688 C
HETATM    7  N3  UNL     1      55.989   7.286  28.913  1.00  0.00    -0.234 N
HETATM    8  N4  UNL     1      57.942   5.986  29.173  1.00  0.00    -0.013 N
ATOM      9  H32 UNL     1      55.049   7.568  29.193  1.00  0.00     0.174 HD
ATOM     10  H31 UNL     1      56.444   7.717  28.108  1.00  0.00     0.174 HD
HETATM   11  C5  UNL     1      59.044   6.814  29.592  1.00  0.00     0.208 C
HETATM   12  C9  UNL     1      58.105   4.809  28.397  1.00  0.00     0.690 C
HETATM   13  C6  UNL     1      60.377   6.142  29.458  1.00  0.00     0.180 C
HETATM   14  C8  UNL     1      60.487   5.241  28.272  1.00  0.00     0.180 C
HETATM   15  N7  UNL     1      59.280   4.498  28.002  1.00  0.00    -0.223 N
ATOM     16  H7  UNL     1      59.372   3.648  27.446  1.00  0.00     0.177 HD
ATOM     17  H2  UNL     1      56.517   5.105  31.237  1.00  0.00     0.177 HD
BRANCH  13  18
HETATM   18  N5  UNL     1      60.621   5.381  30.669  1.00  0.00    -0.066 N
ATOM     19  H53 UNL     1      60.192   5.803  31.493  1.00  0.00     0.275 HD
ATOM     20  H52 UNL     1      60.112   4.497  30.688  1.00  0.00     0.275 HD
ATOM     21  H51 UNL     1      61.629   5.260  30.768  1.00  0.00     0.275 HD
ENDBRANCH  13  18
BRANCH  13  22
HETATM   22  C7  UNL     1      61.446   7.209  29.345  1.00  0.00     0.271 C
BRANCH  22  23
HETATM   23  N6  UNL     1      62.754   6.639  29.144  1.00  0.00    -0.077 N
ATOM     24  H63 UNL     1      63.484   7.244  29.518  1.00  0.00     0.274 HD
ATOM     25  H62 UNL     1      62.899   5.824  29.741  1.00  0.00     0.274 HD
ATOM     26  H61 UNL     1      62.924   6.415  28.164  1.00  0.00     0.274 HD
ENDBRANCH  22  23
ENDBRANCH  13  22
BRANCH  12  27
HETATM   27  N8  UNL     1      57.024   3.967  28.043  1.00  0.00    -0.224 N
ATOM     28  H8  UNL     1      56.512   4.177  27.186  1.00  0.00     0.177 HD
BRANCH  27  29
HETATM   29  C10 UNL     1      56.601   2.826  28.825  1.00  0.00     0.165 C
BRANCH  29  30
HETATM   30  C11 UNL     1      57.579   1.671  28.675  1.00  0.00     0.249 C
BRANCH  30  31
HETATM   31  N9  UNL     1      57.013   0.625  27.843  1.00  0.00    -0.078 N
ATOM     32  H93 UNL     1      57.709  -0.076  27.592  1.00  0.00     0.274 HD
ATOM     33  H92 UNL     1      56.375   0.027  28.370  1.00  0.00     0.274 HD
ATOM     34  H91 UNL     1      56.563   1.024  27.020  1.00  0.00     0.274 HD
ENDBRANCH  30  31
ENDBRANCH  29  30
ENDBRANCH  27  29
ENDBRANCH  12  27
ENDBRANCH   4   5
ENDBRANCH   3   4
TORSDOF 9
ENDMDL