MODEL 1
REMARK VINA RESULT: -7.627887416      0.000      0.000
REMARK  5 active torsions:
REMARK  status: ('A' for Active; 'I' for Inactive)
REMARK    1  A    between atoms: N1_2  and  C3_4
REMARK    2  A    between atoms: C3_4  and  C4_5
REMARK    3  A    between atoms: C4_5  and  C5_6
REMARK    4  A    between atoms: C5_6  and  N2_7
REMARK    5  A    between atoms: C9_21  and  N7_22
REMARK       I    between atoms: N7_22  and  C10_24
REMARK       I    between atoms: C10_24  and  N8_25
REMARK       I    between atoms: C10_24  and  N9_29
ROOT
HETATM    1  N2  UNL     1      58.815   8.225  26.669  1.00  0.00    -0.293 N
HETATM    2  C6  UNL     1      59.641   9.284  26.422  1.00  0.00     0.328 A
HETATM    3  O1  UNL     1      59.331  10.483  26.180  1.00  0.00    -0.246 OA
HETATM    4  N3  UNL     1      60.899   8.832  26.478  1.00  0.00    -0.292 N
ATOM      5  H3  UNL     1      61.731   9.403  26.332  1.00  0.00     0.172 HD
HETATM    6  C7  UNL     1      60.908   7.500  26.758  1.00  0.00     0.156 A
HETATM    7  N4  UNL     1      61.903   6.608  26.915  1.00  0.00    -0.174 N
ATOM      8  H4  UNL     1      62.875   6.908  26.823  1.00  0.00     0.186 HD
HETATM    9  C8  UNL     1      61.621   5.331  27.192  1.00  0.00     0.679 A
HETATM   10  N5  UNL     1      62.585   4.462  27.347  1.00  0.00    -0.234 N
ATOM     11  H51 UNL     1      62.370   3.487  27.558  1.00  0.00     0.174 HD
ATOM     12  H52 UNL     1      63.566   4.728  27.261  1.00  0.00     0.174 HD
HETATM   13  N6  UNL     1      60.334   4.983  27.304  1.00  0.00    -0.175 N
ATOM     14  H6  UNL     1      60.132   4.006  27.516  1.00  0.00     0.186 HD
HETATM   15  C9  UNL     1      59.285   5.812  27.162  1.00  0.00     0.151 A
HETATM   16  C11 UNL     1      59.577   7.152  26.871  1.00  0.00     0.128 A
ENDROOT
BRANCH  15  17
HETATM   17  N7  UNL     1      58.095   5.413  27.292  1.00  0.00    -0.325 N
HETATM   18  C10 UNL     1      57.450   4.697  28.323  1.00  0.00     0.481 C
HETATM   19  N8  UNL     1      58.020   3.394  28.625  1.00  0.00    -0.033 N
HETATM   20  N9  UNL     1      57.322   5.466  29.541  1.00  0.00    -0.033 N
ATOM     21  H83 UNL     1      58.065   2.827  27.779  1.00  0.00     0.278 HD
ATOM     22  H82 UNL     1      59.015   3.486  28.832  1.00  0.00     0.278 HD
ATOM     23  H81 UNL     1      57.554   2.876  29.370  1.00  0.00     0.278 HD
ATOM     24  H93 UNL     1      58.229   5.815  29.850  1.00  0.00     0.278 HD
ATOM     25  H92 UNL     1      56.855   6.356  29.365  1.00  0.00     0.278 HD
ATOM     26  H91 UNL     1      56.856   4.949  30.286  1.00  0.00     0.278 HD
ATOM     27  H7  UNL     1      57.487   5.652  26.508  1.00  0.00     0.165 HD
ENDBRANCH  15  17
BRANCH   1  28
HETATM   28  C5  UNL     1      57.397   8.310  26.694  1.00  0.00     0.136 C
BRANCH  28  29
HETATM   29  C4  UNL     1      56.756   8.634  25.360  1.00  0.00     0.050 C
BRANCH  29  30
HETATM   30  C3  UNL     1      56.360   7.309  24.750  1.00  0.00     0.273 C
BRANCH  30  31
HETATM   31  N1  UNL     1      55.165   6.733  25.305  1.00  0.00     0.080 N
HETATM   32  C1  UNL     1      54.082   7.071  24.367  1.00  0.00     0.309 C
HETATM   33  C2  UNL     1      55.189   5.296  25.409  1.00  0.00     0.309 C
ENDBRANCH  30  31
ENDBRANCH  29  30
ENDBRANCH  28  29
ENDBRANCH   1  28
TORSDOF 5
ENDMDL