MODEL 1
REMARK VINA RESULT: -7.881996959      0.000      0.000
REMARK  7 active torsions:
REMARK  status: ('A' for Active; 'I' for Inactive)
REMARK    1  A    between atoms: N1_1  and  C1_4
REMARK    2  A    between atoms: N4_14  and  C5_15
REMARK    3  A    between atoms: C5_15  and  O3_16
REMARK    4  A    between atoms: O3_16  and  C6_17
REMARK    5  A    between atoms: C6_17  and  C7_18
REMARK    6  A    between atoms: C7_18  and  N5_19
REMARK    7  A    between atoms: N5_19  and  N6_21
REMARK       I    between atoms: N6_21  and  C8_23
ROOT
HETATM    1  C1  UNL     1      60.495   5.379  29.430  1.00  0.00     0.680 A
HETATM    2  N2  UNL     1      61.621   5.522  28.712  1.00  0.00    -0.154 N
ATOM      3  H2  UNL     1      62.523   5.398  29.174  1.00  0.00     0.187 HD
HETATM    4  C2  UNL     1      61.593   5.825  27.402  1.00  0.00     0.290 A
HETATM    5  O1  UNL     1      62.635   5.958  26.739  1.00  0.00    -0.265 OA
HETATM    6  C3  UNL     1      60.368   5.999  26.755  1.00  0.00     0.151 A
HETATM    7  N3  UNL     1      60.004   6.295  25.510  1.00  0.00    -0.300 N
ATOM      8  H3  UNL     1      60.650   6.461  24.738  1.00  0.00     0.171 HD
HETATM    9  C4  UNL     1      58.657   6.345  25.410  1.00  0.00     0.330 A
HETATM   10  O2  UNL     1      58.004   6.601  24.358  1.00  0.00    -0.246 OA
HETATM   11  N4  UNL     1      58.202   6.070  26.639  1.00  0.00    -0.261 N
HETATM   12  C9  UNL     1      59.222   5.852  27.496  1.00  0.00     0.161 A
HETATM   13  N9  UNL     1      59.316   5.547  28.803  1.00  0.00    -0.174 N
ATOM     14  H9  UNL     1      58.458   5.439  29.343  1.00  0.00     0.186 HD
ENDROOT
BRANCH  11  15
HETATM   15  C5  UNL     1      56.812   6.010  27.015  1.00  0.00     0.305 C
BRANCH  15  16
HETATM   16  O3  UNL     1      56.583   4.769  27.594  1.00  0.00    -0.366 OA
BRANCH  16  17
HETATM   17  C6  UNL     1      55.297   4.360  27.277  1.00  0.00     0.216 C
BRANCH  17  18
HETATM   18  C7  UNL     1      54.922   3.087  27.930  1.00  0.00     0.106 C
BRANCH  18  19
HETATM   19  N5  UNL     1      55.794   2.484  28.664  1.00  0.00    -0.312 N
ATOM     20  H5  UNL     1      55.913   2.797  29.628  1.00  0.00     0.185 HD
BRANCH  19  21
HETATM   21  N6  UNL     1      56.575   1.436  28.215  1.00  0.00    -0.277 N
HETATM   22  C8  UNL     1      57.846   1.404  28.453  1.00  0.00     0.215 C
HETATM   23  N7  UNL     1      58.673   0.345  28.006  1.00  0.00    -0.065 NA
HETATM   24  N8  UNL     1      58.443   2.459  29.185  1.00  0.00    -0.065 NA
ATOM     25  H6  UNL     1      56.142   0.677  27.689  1.00  0.00     0.189 HD
ENDBRANCH  19  21
ENDBRANCH  18  19
ENDBRANCH  17  18
ENDBRANCH  16  17
ENDBRANCH  15  16
ENDBRANCH  11  15
BRANCH   1  26
HETATM   26  N1  UNL     1      60.568   5.082  30.704  1.00  0.00    -0.234 N
ATOM     27  H12 UNL     1      60.067   5.617  31.414  1.00  0.00     0.174 HD
ATOM     28  H11 UNL     1      61.141   4.295  31.009  1.00  0.00     0.174 HD
ENDBRANCH   1  26
TORSDOF 7
ENDMDL