MODEL 4
REMARK VINA RESULT: -7.167330084      2.770      5.522
REMARK  9 active torsions:
REMARK  status: ('A' for Active; 'I' for Inactive)
REMARK    1  A    between atoms: N1_1  and  C1_4
REMARK    2  A    between atoms: C2_7  and  N3_8
REMARK    3  A    between atoms: N3_8  and  C3_10
REMARK    4  A    between atoms: C3_10  and  C4_11
REMARK    5  A    between atoms: C4_11  and  C5_12
REMARK    6  A    between atoms: C5_12  and  C6_13
REMARK    7  A    between atoms: C6_13  and  N4_14
REMARK    8  A    between atoms: C7_20  and  N6_21
REMARK    9  A    between atoms: N6_21  and  C8_23
ROOT
HETATM    1  C1  UNL     1      61.957   6.218  27.624  1.00  0.00     0.705 A
HETATM    2  N2  UNL     1      61.603   5.767  28.830  1.00  0.00    -0.022 N
ATOM      3  H2  UNL     1      62.296   5.733  29.577  1.00  0.00     0.203 HD
HETATM    4  C2  UNL     1      60.325   5.350  29.078  1.00  0.00     0.707 A
HETATM    5  N5  UNL     1      59.414   5.395  28.098  1.00  0.00    -0.022 N
ATOM      6  H5  UNL     1      58.458   5.086  28.277  1.00  0.00     0.203 HD
HETATM    7  C7  UNL     1      59.761   5.854  26.857  1.00  0.00     0.707 A
HETATM    8  N9  UNL     1      61.021   6.254  26.649  1.00  0.00    -0.022 N
ATOM      9  H9  UNL     1      61.283   6.597  25.724  1.00  0.00     0.203 HD
ENDROOT
BRANCH   7  10
HETATM   10  N6  UNL     1      58.841   5.874  25.957  1.00  0.00    -0.214 N
ATOM     11  H6  UNL     1      58.983   5.376  25.078  1.00  0.00     0.178 HD
BRANCH  10  12
HETATM   12  C8  UNL     1      57.629   6.584  26.178  1.00  0.00     0.186 C
HETATM   13  C9  UNL     1      56.449   5.668  26.534  1.00  0.00     0.263 C
HETATM   14  N7  UNL     1      55.360   6.646  26.411  1.00  0.00    -0.068 N
HETATM   15  C10 UNL     1      55.577   7.155  25.068  1.00  0.00     0.299 C
ATOM     16  H72 UNL     1      54.426   6.281  26.592  1.00  0.00     0.277 HD
ATOM     17  H71 UNL     1      55.328   7.355  27.144  1.00  0.00     0.277 HD
HETATM   18  C11 UNL     1      57.081   7.165  24.865  1.00  0.00     0.224 A
HETATM   19  N8  UNL     1      57.727   8.065  24.138  1.00  0.00    -0.258 N
HETATM   20  O1  UNL     1      57.614   6.666  23.702  1.00  0.00    -0.243 OA
ATOM     21  H8  UNL     1      58.057   9.019  23.990  1.00  0.00     0.191 HD
ENDBRANCH  10  12
ENDBRANCH   7  10
BRANCH   4  22
HETATM   22  N3  UNL     1      60.028   4.928  30.248  1.00  0.00    -0.225 N
ATOM     23  H3  UNL     1      60.753   4.480  30.808  1.00  0.00     0.177 HD
BRANCH  22  24
HETATM   24  C3  UNL     1      58.719   5.063  30.796  1.00  0.00     0.138 C
BRANCH  24  25
HETATM   25  C4  UNL     1      58.621   6.285  31.722  1.00  0.00     0.022 C
BRANCH  25  26
HETATM   26  C5  UNL     1      57.674   7.250  31.041  1.00  0.00     0.029 C
BRANCH  26  27
HETATM   27  C6  UNL     1      56.649   6.521  30.199  1.00  0.00     0.229 C
BRANCH  27  28
HETATM   28  N4  UNL     1      55.650   7.496  29.794  1.00  0.00    -0.079 N
ATOM     29  H43 UNL     1      54.698   7.211  30.026  1.00  0.00     0.274 HD
ATOM     30  H42 UNL     1      55.673   8.348  30.355  1.00  0.00     0.274 HD
ATOM     31  H41 UNL     1      55.783   7.670  28.798  1.00  0.00     0.274 HD
ENDBRANCH  27  28
ENDBRANCH  26  27
ENDBRANCH  25  26
ENDBRANCH  24  25
ENDBRANCH  22  24
ENDBRANCH   4  22
BRANCH   1  32
HETATM   32  N1  UNL     1      63.169   6.625  27.348  1.00  0.00    -0.234 N
ATOM     33  H12 UNL     1      63.376   7.622  27.403  1.00  0.00     0.174 HD
ATOM     34  H11 UNL     1      63.919   5.987  27.078  1.00  0.00     0.174 HD
ENDBRANCH   1  32
TORSDOF 9
ENDMDL