MODEL 4
REMARK VINA RESULT: -7.791058877      3.242      4.372
REMARK  6 active torsions:
REMARK  status: ('A' for Active; 'I' for Inactive)
REMARK    1  A    between atoms: O1_2  and  C2_3
REMARK    2  A    between atoms: C3_6  and  N2_7
REMARK    3  A    between atoms: N2_7  and  C4_9
REMARK    4  A    between atoms: C4_9  and  C5_10
REMARK    5  A    between atoms: C5_10  and  O2_11
REMARK    6  A    between atoms: O2_11  and  N3_12
REMARK       I    between atoms: N3_12  and  C6_14
ROOT
HETATM    1  C2  UNL     1      57.217   6.728  24.895  1.00  0.00     0.188 A
HETATM    2  N1  UNL     1      58.326   6.034  25.168  1.00  0.00    -0.168 N
ATOM      3  H1  UNL     1      58.327   5.023  25.033  1.00  0.00     0.186 HD
HETATM    4  C3  UNL     1      59.464   6.651  25.625  1.00  0.00     0.681 A
HETATM    5  N6  UNL     1      59.479   7.981  25.806  1.00  0.00    -0.174 N
ATOM      6  H6  UNL     1      60.330   8.430  26.145  1.00  0.00     0.186 HD
HETATM    7  C7  UNL     1      58.381   8.741  25.545  1.00  0.00     0.156 A
HETATM    8  N7  UNL     1      58.169  10.064  25.651  1.00  0.00    -0.292 N
ATOM      9  H7  UNL     1      58.831  10.774  25.963  1.00  0.00     0.172 HD
HETATM   10  C8  UNL     1      56.891  10.253  25.255  1.00  0.00     0.326 A
HETATM   11  O3  UNL     1      56.302  11.377  25.211  1.00  0.00    -0.247 OA
HETATM   12  N8  UNL     1      56.331   9.078  24.915  1.00  0.00    -0.302 N
ATOM     13  H8  UNL     1      55.375   8.947  24.584  1.00  0.00     0.171 HD
HETATM   14  C9  UNL     1      57.255   8.093  25.088  1.00  0.00     0.133 A
ENDROOT
BRANCH   4  15
HETATM   15  N2  UNL     1      60.493   5.929  25.867  1.00  0.00    -0.224 N
ATOM     16  H2  UNL     1      60.625   5.090  25.302  1.00  0.00     0.177 HD
BRANCH  15  17
HETATM   17  C4  UNL     1      61.468   6.209  26.867  1.00  0.00     0.166 C
BRANCH  17  18
HETATM   18  C5  UNL     1      62.001   4.982  27.572  1.00  0.00     0.221 C
BRANCH  18  19
HETATM   19  O2  UNL     1      61.142   4.676  28.606  1.00  0.00    -0.276 OA
BRANCH  19  20
HETATM   20  N3  UNL     1      61.062   5.690  29.495  1.00  0.00    -0.239 N
HETATM   21  C6  UNL     1      60.284   5.650  30.681  1.00  0.00     0.205 C
HETATM   22  N4  UNL     1      59.450   6.565  31.022  1.00  0.00    -0.372 N
HETATM   23  N5  UNL     1      60.428   4.534  31.552  1.00  0.00    -0.062 NA
ATOM     24  H42 UNL     1      59.347   7.365  30.397  1.00  0.00     0.158 HD
ATOM     25  H41 UNL     1      58.891   6.536  31.874  1.00  0.00     0.158 HD
ATOM     26  H3  UNL     1      61.594   6.538  29.301  1.00  0.00     0.197 HD
ENDBRANCH  19  20
ENDBRANCH  18  19
ENDBRANCH  17  18
ENDBRANCH  15  17
ENDBRANCH   4  15
BRANCH   1  27
HETATM   27  O1  UNL     1      56.041   6.152  24.431  1.00  0.00    -0.339 OA
HETATM   28  C1  UNL     1      55.219   5.442  25.328  1.00  0.00     0.211 C
ENDBRANCH   1  27
TORSDOF 6
ENDMDL