MODEL 2
REMARK VINA RESULT: -7.485816296      2.329      4.764
REMARK  8 active torsions:
REMARK  status: ('A' for Active; 'I' for Inactive)
REMARK    1  A    between atoms: C2_2  and  C3_3
REMARK    2  A    between atoms: C3_3  and  C4_4
REMARK    3  A    between atoms: C4_4  and  C5_5
REMARK    4  A    between atoms: C5_5  and  N1_6
REMARK    5  A    between atoms: N1_6  and  C6_8
REMARK    6  A    between atoms: C7_11  and  N3_12
REMARK       I    between atoms: N3_12  and  C8_14
REMARK    7  A    between atoms: N6_19  and  O1_20
REMARK    8  A    between atoms: C9_22  and  N7_23
REMARK       I    between atoms: N7_23  and  C10_25
REMARK       I    between atoms: C10_25  and  N8_26
REMARK       I    between atoms: C10_25  and  N9_30
ROOT
HETATM    1  C6  UNL     1      56.226   7.021  28.997  1.00  0.00     0.707 A
HETATM    2  N2  UNL     1      56.830   7.859  28.136  1.00  0.00    -0.019 N
ATOM      3  H2  UNL     1      56.622   8.857  28.180  1.00  0.00     0.203 HD
HETATM    4  C7  UNL     1      57.714   7.400  27.205  1.00  0.00     0.741 A
HETATM    5  N6  UNL     1      57.964   6.081  27.173  1.00  0.00     0.128 N
HETATM    6  C9  UNL     1      57.385   5.215  28.011  1.00  0.00     0.737 A
HETATM    7  N10 UNL     1      56.505   5.712  28.930  1.00  0.00    -0.019 N
ATOM      8  H10 UNL     1      56.050   5.072  29.580  1.00  0.00     0.203 HD
ENDROOT
BRANCH   6   9
HETATM    9  N7  UNL     1      57.594   3.994  28.008  1.00  0.00    -0.170 N
HETATM   10  C10 UNL     1      56.993   2.880  28.625  1.00  0.00     0.494 C
HETATM   11  N8  UNL     1      57.926   1.738  28.493  1.00  0.00    -0.032 N
HETATM   12  N9  UNL     1      55.769   2.415  27.994  1.00  0.00    -0.032 N
ATOM     13  H83 UNL     1      58.198   1.558  27.528  1.00  0.00     0.278 HD
ATOM     14  H82 UNL     1      58.856   1.941  28.859  1.00  0.00     0.278 HD
ATOM     15  H81 UNL     1      57.491   0.932  28.941  1.00  0.00     0.278 HD
ATOM     16  H93 UNL     1      55.098   3.180  27.919  1.00  0.00     0.278 HD
ATOM     17  H92 UNL     1      55.933   2.224  27.006  1.00  0.00     0.278 HD
ATOM     18  H91 UNL     1      55.334   1.608  28.441  1.00  0.00     0.278 HD
ATOM     19  H7  UNL     1      58.386   3.734  27.420  1.00  0.00     0.181 HD
ENDBRANCH   6   9
BRANCH   5  20
HETATM   20  O1  UNL     1      58.848   5.586  26.249  1.00  0.00    -0.256 OA
ATOM     21  H1  UNL     1      59.185   6.161  25.572  1.00  0.00     0.246 HD
ENDBRANCH   5  20
BRANCH   4  22
HETATM   22  N3  UNL     1      58.273   8.213  26.399  1.00  0.00    -0.161 N
HETATM   23  C8  UNL     1      57.720   8.958  25.367  1.00  0.00     0.200 C
HETATM   24  N4  UNL     1      57.704   8.457  24.163  1.00  0.00    -0.373 N
HETATM   25  N5  UNL     1      57.187  10.257  25.645  1.00  0.00    -0.063 NA
ATOM     26  H42 UNL     1      58.083   7.532  23.965  1.00  0.00     0.158 HD
ATOM     27  H41 UNL     1      57.297   9.005  23.404  1.00  0.00     0.158 HD
ATOM     28  H3  UNL     1      59.277   8.335  26.533  1.00  0.00     0.187 HD
ENDBRANCH   4  22
BRANCH   1  29
HETATM   29  N1  UNL     1      55.382   7.492  29.878  1.00  0.00    -0.225 N
ATOM     30  H1  UNL     1      54.583   8.040  29.558  1.00  0.00     0.177 HD
BRANCH  29  31
HETATM   31  C5  UNL     1      55.551   7.257  31.292  1.00  0.00     0.138 C
BRANCH  31  32
HETATM   32  C4  UNL     1      56.961   7.648  31.647  1.00  0.00     0.020 C
BRANCH  32  33
HETATM   33  C3  UNL     1      57.599   6.565  32.467  1.00  0.00     0.001 C
BRANCH  33  34
HETATM   34  C2  UNL     1      58.691   5.900  31.703  1.00  0.00    -0.004 C
HETATM   35  C1  UNL     1      59.322   6.952  30.793  1.00  0.00     0.005 C
ENDBRANCH  33  34
ENDBRANCH  32  33
ENDBRANCH  31  32
ENDBRANCH  29  31
ENDBRANCH   1  29
TORSDOF 8
ENDMDL