MODEL 4
REMARK VINA RESULT: -8.078471135      2.191      2.544
REMARK  5 active torsions:
REMARK  status: ('A' for Active; 'I' for Inactive)
REMARK    1  A    between atoms: N5_16  and  C6_17
REMARK    2  A    between atoms: C6_17  and  O2_18
REMARK    3  A    between atoms: O2_18  and  C7_19
REMARK    4  A    between atoms: C7_19  and  C8_20
REMARK    5  A    between atoms: C8_20  and  N6_21
ROOT
HETATM    1  C1  UNL     1      58.445   7.776  27.250  1.00  0.00     0.055 C
HETATM    2  C2  UNL     1      56.970   7.545  26.928  1.00  0.00     0.152 A
HETATM    3  N1  UNL     1      56.343   8.772  26.504  1.00  0.00    -0.204 N
ATOM      4  H1  UNL     1      55.590   9.216  27.030  1.00  0.00     0.179 HD
HETATM    5  C3  UNL     1      56.865   9.323  25.276  1.00  0.00     0.675 C
HETATM    6  N2  UNL     1      56.832  10.588  25.028  1.00  0.00    -0.235 N
ATOM      7  H21 UNL     1      57.200  10.977  24.160  1.00  0.00     0.174 HD
ATOM      8  H22 UNL     1      56.427  11.223  25.717  1.00  0.00     0.174 HD
HETATM    9  N3  UNL     1      57.424   8.445  24.324  1.00  0.00    -0.155 N
ATOM     10  H3  UNL     1      57.795   8.826  23.453  1.00  0.00     0.187 HD
HETATM   11  C4  UNL     1      57.480   7.035  24.551  1.00  0.00     0.286 C
HETATM   12  O1  UNL     1      57.963   6.219  23.745  1.00  0.00    -0.265 OA
HETATM   13  C5  UNL     1      56.931   6.546  25.820  1.00  0.00     0.131 A
HETATM   14  N4  UNL     1      56.381   5.469  26.225  1.00  0.00    -0.291 N
ATOM     15  H4  UNL     1      56.249   4.642  25.642  1.00  0.00     0.187 HD
HETATM   16  N5  UNL     1      55.981   5.552  27.557  1.00  0.00    -0.254 N
HETATM   17  C10 UNL     1      56.319   6.841  28.038  1.00  0.00     0.129 A
HETATM   18  N9  UNL     1      56.071   7.262  29.242  1.00  0.00    -0.385 N
ATOM     19  H91 UNL     1      55.619   6.772  30.014  1.00  0.00     0.157 HD
ATOM     20  H92 UNL     1      56.315   8.190  29.588  1.00  0.00     0.157 HD
ENDROOT
BRANCH  16  21
HETATM   21  C6  UNL     1      55.323   4.495  28.345  1.00  0.00     0.318 C
BRANCH  21  22
HETATM   22  O2  UNL     1      55.989   3.303  28.233  1.00  0.00    -0.369 OA
BRANCH  22  23
HETATM   23  C7  UNL     1      57.090   3.280  29.061  1.00  0.00     0.189 C
BRANCH  23  24
HETATM   24  C8  UNL     1      57.876   2.018  28.837  1.00  0.00     0.148 C
BRANCH  24  25
HETATM   25  N6  UNL     1      57.172   1.084  27.979  1.00  0.00    -0.365 N
HETATM   26  C9  UNL     1      57.754  -0.005  27.544  1.00  0.00     0.197 C
HETATM   27  N7  UNL     1      59.099  -0.304  27.902  1.00  0.00    -0.067 NA
HETATM   28  N8  UNL     1      57.039  -0.900  26.705  1.00  0.00    -0.067 NA
ATOM     29  H6  UNL     1      56.207   1.279  27.710  1.00  0.00     0.161 HD
ENDBRANCH  24  25
ENDBRANCH  23  24
ENDBRANCH  22  23
ENDBRANCH  21  22
ENDBRANCH  16  21
TORSDOF 5
ENDMDL