MODEL 4
REMARK VINA RESULT: -7.045461474      3.081      6.942
REMARK  10 active torsions:
REMARK  status: ('A' for Active; 'I' for Inactive)
REMARK    1  A    between atoms: C2_2  and  N1_3
REMARK    2  A    between atoms: N1_3  and  C3_5
REMARK    3  A    between atoms: C5_11  and  N4_12
REMARK    4  A    between atoms: N4_12  and  C6_14
REMARK    5  A    between atoms: C6_14  and  C7_15
REMARK    6  A    between atoms: C7_15  and  N5_16
REMARK    7  A    between atoms: C8_22  and  N7_23
REMARK    8  A    between atoms: N7_23  and  C9_25
REMARK    9  A    between atoms: C9_25  and  C10_26
REMARK   10  A    between atoms: C10_26  and  O1_27
ROOT
HETATM    1  C3  UNL     1      55.573   5.282  26.774  1.00  0.00     0.694 A
HETATM    2  N2  UNL     1      55.088   6.329  26.080  1.00  0.00    -0.132 N
ATOM      3  H2  UNL     1      54.081   6.406  25.932  1.00  0.00     0.205 HD
HETATM    4  N3  UNL     1      55.884   7.255  25.588  1.00  0.00    -0.280 N
ATOM      5  H3  UNL     1      55.487   8.036  25.066  1.00  0.00     0.188 HD
HETATM    6  C4  UNL     1      57.219   7.182  25.768  1.00  0.00     0.138 A
HETATM    7  C5  UNL     1      58.048   8.157  25.250  1.00  0.00     0.149 A
HETATM    8  N6  UNL     1      59.368   8.014  25.470  1.00  0.00    -0.175 N
ATOM      9  H6  UNL     1      60.007   8.719  25.100  1.00  0.00     0.186 HD
HETATM   10  C8  UNL     1      59.878   6.974  26.162  1.00  0.00     0.681 A
HETATM   11  N8  UNL     1      59.027   6.030  26.659  1.00  0.00    -0.174 N
ATOM     12  H8  UNL     1      59.413   5.243  27.180  1.00  0.00     0.186 HD
HETATM   13  C11 UNL     1      57.698   6.103  26.481  1.00  0.00     0.168 A
HETATM   14  N9  UNL     1      56.896   5.151  26.987  1.00  0.00    -0.172 N
ATOM     15  H9  UNL     1      57.274   4.361  27.511  1.00  0.00     0.186 HD
ENDROOT
BRANCH   7  16
HETATM   16  N4  UNL     1      57.512   9.121  24.602  1.00  0.00    -0.372 N
ATOM     17  H4  UNL     1      57.105   8.889  23.697  1.00  0.00     0.161 HD
BRANCH  16  18
HETATM   18  C6  UNL     1      57.422  10.475  25.006  1.00  0.00     0.148 C
BRANCH  18  19
HETATM   19  C7  UNL     1      56.013  10.957  25.248  1.00  0.00     0.249 C
BRANCH  19  20
HETATM   20  N5  UNL     1      55.738  11.951  24.200  1.00  0.00    -0.078 N
ATOM     21  H53 UNL     1      56.059  12.890  24.435  1.00  0.00     0.274 HD
ATOM     22  H52 UNL     1      56.311  11.831  23.364  1.00  0.00     0.274 HD
ATOM     23  H51 UNL     1      54.736  11.899  24.017  1.00  0.00     0.274 HD
ENDBRANCH  19  20
ENDBRANCH  18  19
ENDBRANCH  16  18
ENDBRANCH   7  16
BRANCH  10  24
HETATM   24  N7  UNL     1      61.142   6.829  26.378  1.00  0.00    -0.224 N
ATOM     25  H7  UNL     1      61.838   7.222  25.744  1.00  0.00     0.177 HD
BRANCH  24  26
HETATM   26  C9  UNL     1      61.532   6.086  27.559  1.00  0.00     0.164 C
BRANCH  26  27
HETATM   27  C10 UNL     1      62.174   4.770  27.207  1.00  0.00     0.184 C
BRANCH  27  28
HETATM   28  O1  UNL     1      61.140   3.846  26.964  1.00  0.00    -0.399 OA
ATOM     29  H1  UNL     1      60.628   4.176  26.236  1.00  0.00     0.209 HD
ENDBRANCH  27  28
ENDBRANCH  26  27
ENDBRANCH  24  26
ENDBRANCH  10  24
BRANCH   1  30
HETATM   30  N1  UNL     1      54.774   4.379  27.250  1.00  0.00    -0.225 N
ATOM     31  H1  UNL     1      53.859   4.243  26.820  1.00  0.00     0.177 HD
BRANCH  30  32
HETATM   32  C2  UNL     1      55.157   3.565  28.373  1.00  0.00     0.134 C
HETATM   33  C1  UNL     1      54.342   3.949  29.569  1.00  0.00     0.027 C
ENDBRANCH  30  32
ENDBRANCH   1  30
TORSDOF 10
ENDMDL