MODEL 4
REMARK VINA RESULT: -6.749126040      1.542      1.812
REMARK  8 active torsions:
REMARK  status: ('A' for Active; 'I' for Inactive)
REMARK    1  A    between atoms: N1_1  and  C1_4
REMARK    2  A    between atoms: C4_10  and  N3_11
REMARK    3  A    between atoms: N3_11  and  C5_13
REMARK    4  A    between atoms: C5_13  and  C6_14
REMARK    5  A    between atoms: C6_14  and  O2_15
REMARK    6  A    between atoms: O2_15  and  C7_16
REMARK    7  A    between atoms: C7_16  and  C8_17
REMARK    8  A    between atoms: C8_17  and  O3_18
ROOT
HETATM    1  C1  UNL     1      63.245   8.022  28.643  1.00  0.00     0.680 A
HETATM    2  N2  UNL     1      62.359   8.928  28.190  1.00  0.00    -0.155 N
ATOM      3  H2  UNL     1      62.658   9.819  27.793  1.00  0.00     0.187 HD
HETATM    4  C2  UNL     1      61.048   8.593  28.291  1.00  0.00     0.277 A
HETATM    5  O1  UNL     1      60.192   9.420  27.876  1.00  0.00    -0.267 OA
HETATM    6  C3  UNL     1      60.637   7.389  28.825  1.00  0.00     0.121 A
HETATM    7  C4  UNL     1      59.289   7.038  28.930  1.00  0.00     0.124 A
HETATM    8  N4  UNL     1      58.924   5.855  29.457  1.00  0.00    -0.294 N
ATOM      9  H4  UNL     1      57.935   5.616  29.525  1.00  0.00     0.172 HD
HETATM   10  C9  UNL     1      59.857   4.980  29.897  1.00  0.00     0.327 A
HETATM   11  O4  UNL     1      59.471   3.886  30.383  1.00  0.00    -0.247 OA
HETATM   12  N5  UNL     1      61.159   5.317  29.797  1.00  0.00    -0.293 N
ATOM     13  H5  UNL     1      61.861   4.656  30.129  1.00  0.00     0.172 HD
HETATM   14  C10 UNL     1      61.567   6.480  29.280  1.00  0.00     0.144 A
HETATM   15  N6  UNL     1      62.871   6.834  29.172  1.00  0.00    -0.176 N
ATOM     16  H6  UNL     1      63.590   6.187  29.497  1.00  0.00     0.186 HD
ENDROOT
BRANCH   7  17
HETATM   17  N3  UNL     1      58.458   7.897  28.501  1.00  0.00    -0.373 N
ATOM     18  H3  UNL     1      58.744   8.876  28.526  1.00  0.00     0.161 HD
BRANCH  17  19
HETATM   19  C5  UNL     1      57.126   7.605  27.976  1.00  0.00     0.147 C
BRANCH  19  20
HETATM   20  C6  UNL     1      57.087   7.911  26.479  1.00  0.00     0.187 C
BRANCH  20  21
HETATM   21  O2  UNL     1      56.899   9.085  26.055  1.00  0.00    -0.387 OA
BRANCH  21  22
HETATM   22  C7  UNL     1      57.247  10.111  25.402  1.00  0.00     0.193 C
BRANCH  22  23
HETATM   23  C8  UNL     1      58.664  10.311  24.937  1.00  0.00     0.190 C
BRANCH  23  24
HETATM   24  O3  UNL     1      59.450  11.039  25.771  1.00  0.00    -0.399 OA
ATOM     25  H3  UNL     1      59.102  11.167  26.646  1.00  0.00     0.209 HD
ENDBRANCH  23  24
ENDBRANCH  22  23
ENDBRANCH  21  22
ENDBRANCH  20  21
ENDBRANCH  19  20
ENDBRANCH  17  19
ENDBRANCH   7  17
BRANCH   1  26
HETATM   26  N1  UNL     1      64.523   8.298  28.569  1.00  0.00    -0.234 N
ATOM     27  H12 UNL     1      64.816   9.271  28.654  1.00  0.00     0.174 HD
ATOM     28  H11 UNL     1      65.183   7.533  28.429  1.00  0.00     0.174 HD
ENDBRANCH   1  26
TORSDOF 8
ENDMDL