MODEL 4
REMARK VINA RESULT: -7.109435754      5.050      6.882
REMARK  7 active torsions:
REMARK  status: ('A' for Active; 'I' for Inactive)
REMARK    1  A    between atoms: N1_1  and  N2_4
REMARK    2  A    between atoms: N2_4  and  C1_6
REMARK    3  A    between atoms: N4_11  and  C3_12
REMARK    4  A    between atoms: C3_12  and  C4_13
REMARK    5  A    between atoms: C4_13  and  C5_14
REMARK    6  A    between atoms: C5_14  and  N5_15
REMARK    7  A    between atoms: N5_15  and  C6_18
ROOT
HETATM    1  C1  UNL     1      56.814  10.246  25.391  1.00  0.00     0.704 A
HETATM    2  N3  UNL     1      56.723   9.164  26.181  1.00  0.00    -0.139 N
ATOM      3  H3  UNL     1      55.813   8.809  26.476  1.00  0.00     0.189 HD
HETATM    4  C2  UNL     1      57.871   8.552  26.580  1.00  0.00     0.344 A
HETATM    5  O1  UNL     1      57.832   7.526  27.326  1.00  0.00    -0.246 OA
HETATM    6  N4  UNL     1      59.065   9.036  26.179  1.00  0.00    -0.250 N
HETATM    7  C11 UNL     1      59.104  10.133  25.380  1.00  0.00     0.344 A
HETATM    8  O2  UNL     1      60.220  10.593  25.002  1.00  0.00    -0.246 OA
HETATM    9  N7  UNL     1      57.981  10.753  24.976  1.00  0.00    -0.139 N
ATOM     10  H7  UNL     1      58.017  11.577  24.375  1.00  0.00     0.189 HD
ENDROOT
BRANCH   6  11
HETATM   11  C3  UNL     1      60.317   8.412  26.582  1.00  0.00     0.140 C
BRANCH  11  12
HETATM   12  C4  UNL     1      60.798   9.144  27.830  1.00  0.00     0.048 C
BRANCH  12  13
HETATM   13  C5  UNL     1      60.897   8.195  29.008  1.00  0.00     0.234 C
BRANCH  13  14
HETATM   14  N5  UNL     1      59.666   8.296  29.755  1.00  0.00    -0.069 N
ATOM     15  H52 UNL     1      59.647   9.162  30.294  1.00  0.00     0.277 HD
ATOM     16  H51 UNL     1      58.881   8.464  29.126  1.00  0.00     0.277 HD
BRANCH  14  17
HETATM   17  C6  UNL     1      59.393   7.173  30.605  1.00  0.00     0.203 C
HETATM   18  C7  UNL     1      60.497   6.158  30.370  1.00  0.00     0.036 C
HETATM   19  C8  UNL     1      60.053   4.890  31.077  1.00  0.00     0.021 C
HETATM   20  C9  UNL     1      58.907   4.319  30.272  1.00  0.00     0.113 C
HETATM   21  N6  UNL     1      58.065   5.316  29.686  1.00  0.00    -0.419 N
HETATM   22  C10 UNL     1      58.033   6.573  30.377  1.00  0.00     0.146 C
ATOM     23  H6  UNL     1      57.525   5.145  28.836  1.00  0.00     0.153 HD
ENDBRANCH  14  17
ENDBRANCH  13  14
ENDBRANCH  12  13
ENDBRANCH  11  12
ENDBRANCH   6  11
BRANCH   1  24
HETATM   24  N2  UNL     1      55.710  10.823  25.016  1.00  0.00    -0.138 N
ATOM     25  H2  UNL     1      54.818  10.445  25.332  1.00  0.00     0.205 HD
BRANCH  24  26
HETATM   26  N1  UNL     1      55.718  11.947  24.192  1.00  0.00    -0.331 N
ATOM     27  H12 UNL     1      55.913  12.854  24.616  1.00  0.00     0.177 HD
ATOM     28  H11 UNL     1      55.535  11.878  23.191  1.00  0.00     0.177 HD
ENDBRANCH  24  26
ENDBRANCH   1  24
TORSDOF 7
ENDMDL