MODEL 1
REMARK VINA RESULT: -7.556539198      0.000      0.000
REMARK  7 active torsions:
REMARK  status: ('A' for Active; 'I' for Inactive)
REMARK    1  A    between atoms: C3_3  and  C4_4
REMARK    2  A    between atoms: C4_4  and  C5_5
REMARK    3  A    between atoms: C6_8  and  S1_9
REMARK    4  A    between atoms: S1_9  and  N2_12
REMARK    5  A    between atoms: C9_17  and  C10_18
REMARK    6  A    between atoms: C11_19  and  C12_20
REMARK    7  A    between atoms: C12_20  and  N3_21
ROOT
HETATM    1  C5  UNL     1      20.543 -12.966  21.234  1.00  0.00     0.034 A
HETATM    2  N1  UNL     1      21.539 -13.360  22.032  1.00  0.00    -0.346 N
ATOM      3  H1  UNL     1      22.466 -12.934  22.057  1.00  0.00     0.166 HD
HETATM    4  C6  UNL     1      21.155 -14.393  22.797  1.00  0.00     0.168 A
HETATM    5  C8  UNL     1      19.855 -14.672  22.475  1.00  0.00     0.071 A
HETATM    6 BR1  UNL     1      18.725 -16.042  23.215  1.00  0.00    -0.046 Br
HETATM    7  C9  UNL     1      19.477 -13.783  21.503  1.00  0.00     0.061 A
ENDROOT
BRANCH   7   8
HETATM    8  C10 UNL     1      18.175 -13.709  20.854  1.00  0.00    -0.062 C
HETATM    9  C11 UNL     1      17.093 -13.622  20.307  1.00  0.00    -0.073 C
BRANCH   9  10
HETATM   10  C12 UNL     1      15.802 -13.531  19.628  1.00  0.00     0.331 C
BRANCH  10  11
HETATM   11  N3  UNL     1      14.976 -12.617  20.348  1.00  0.00    -0.052 N
HETATM   12  C13 UNL     1      13.715 -12.534  19.588  1.00  0.00     0.266 C
HETATM   13  C14 UNL     1      12.944 -11.304  20.012  1.00  0.00     0.265 C
HETATM   14  N4  UNL     1      13.294 -11.072  21.419  1.00  0.00    -0.066 N
HETATM   15  C15 UNL     1      12.340 -10.172  21.993  1.00  0.00     0.272 C
HETATM   16  C16 UNL     1      13.359 -12.348  22.098  1.00  0.00     0.265 C
HETATM   17  C18 UNL     1      14.617 -10.474  21.388  1.00  0.00     0.265 C
HETATM   18  C17 UNL     1      14.607 -13.095  21.665  1.00  0.00     0.266 C
HETATM   19  C19 UNL     1      15.542 -11.302  20.498  1.00  0.00     0.266 C
ENDBRANCH  10  11
ENDBRANCH   9  10
ENDBRANCH   7   8
BRANCH   1  20
HETATM   20  C4  UNL     1      20.495 -11.870  20.222  1.00  0.00     0.085 C
BRANCH  20  21
HETATM   21  C3  UNL     1      21.171 -12.257  18.954  1.00  0.00    -0.025 C
HETATM   22  C2  UNL     1      20.552 -12.320  17.795  1.00  0.00    -0.035 C
HETATM   23  C1  UNL     1      19.098 -12.005  17.635  1.00  0.00     0.036 C
ENDBRANCH  20  21
ENDBRANCH   1  20
BRANCH   4  24
HETATM   24  S1  UNL     1      22.064 -15.280  24.001  1.00  0.00     0.275 S
HETATM   25  O1  UNL     1      23.477 -14.810  24.078  1.00  0.00    -0.199 OA
HETATM   26  O2  UNL     1      22.034 -16.729  23.601  1.00  0.00    -0.199 OA
BRANCH  24  27
HETATM   27  N2  UNL     1      21.310 -15.032  25.528  1.00  0.00    -0.319 N
HETATM   28  C7  UNL     1      21.220 -13.621  25.793  1.00  0.00     0.159 C
ATOM     29  H2  UNL     1      20.978 -15.770  26.149  1.00  0.00     0.171 HD
ENDBRANCH  24  27
ENDBRANCH   4  24
TORSDOF 7
ENDMDL