MODEL 5
REMARK VINA RESULT: -6.144193023      4.062      6.400
REMARK  7 active torsions:
REMARK  status: ('A' for Active; 'I' for Inactive)
REMARK    1  A    between atoms: C2_2  and  C3_3
REMARK    2  A    between atoms: C3_3  and  C4_4
REMARK    3  A    between atoms: N3_16  and  C9_17
REMARK    4  A    between atoms: C9_17  and  C10_18
REMARK    5  A    between atoms: C11_19  and  C12_20
REMARK    6  A    between atoms: N4_24  and  C16_26
REMARK    7  A    between atoms: C16_26  and  C17_27
ROOT
HETATM    1  C4  UNL     1      15.221 -15.675  20.041  1.00  0.00     0.127 C
HETATM    2  N1  UNL     1      14.484 -16.657  19.270  1.00  0.00    -0.295 N
ATOM      3  H1  UNL     1      14.776 -17.581  18.953  1.00  0.00     0.174 HD
HETATM    4  S1  UNL     1      13.001 -15.853  19.037  1.00  0.00     0.316 S
HETATM    5  O1  UNL     1      12.309 -16.210  17.757  1.00  0.00    -0.183 OA
HETATM    6  O2  UNL     1      11.984 -15.997  20.097  1.00  0.00    -0.183 OA
HETATM    7  N2  UNL     1      13.673 -14.231  19.007  1.00  0.00    -0.286 N
ATOM      8  H2  UNL     1      13.174 -13.358  18.834  1.00  0.00     0.174 HD
HETATM    9  C5  UNL     1      15.077 -14.394  19.279  1.00  0.00     0.122 C
HETATM   10  C6  UNL     1      15.870 -14.699  17.987  1.00  0.00     0.042 C
HETATM   11  C7  UNL     1      15.180 -15.213  16.827  1.00  0.00     0.014 C
HETATM   12  C8  UNL     1      16.554 -13.393  17.587  1.00  0.00     0.248 C
HETATM   13  N3  UNL     1      16.013 -12.405  18.455  1.00  0.00    -0.023 N
HETATM   14  C13 UNL     1      17.057 -11.510  19.004  1.00  0.00     0.269 C
HETATM   15  C14 UNL     1      16.259 -11.103  20.240  1.00  0.00     0.267 C
HETATM   16  N4  UNL     1      15.829 -12.426  20.786  1.00  0.00    -0.037 N
HETATM   17  C15 UNL     1      16.931 -12.639  21.751  1.00  0.00     0.275 C
HETATM   18  C19 UNL     1      15.856 -13.227  19.672  1.00  0.00     0.423 C
ENDROOT
BRANCH   1  19
HETATM   19  C3  UNL     1      14.879 -15.848  21.426  1.00  0.00     0.028 C
BRANCH  19  20
HETATM   20  C2  UNL     1      15.834 -16.767  22.176  1.00  0.00    -0.002 C
HETATM   21  C1  UNL     1      17.232 -16.411  21.669  1.00  0.00     0.005 C
ENDBRANCH  19  20
ENDBRANCH   1  19
BRANCH  13  22
HETATM   22  C9  UNL     1      14.994 -11.587  18.015  1.00  0.00     0.333 C
BRANCH  22  23
HETATM   23  C10 UNL     1      15.007 -11.420  16.530  1.00  0.00    -0.078 C
HETATM   24  C11 UNL     1      15.041 -11.273  15.311  1.00  0.00    -0.094 C
BRANCH  24  25
HETATM   25  C12 UNL     1      15.073 -11.124  13.864  1.00  0.00     0.178 C
HETATM   26 BR1  UNL     1      15.775 -12.787  13.138  1.00  0.00    -0.083 Br
ENDBRANCH  24  25
ENDBRANCH  22  23
ENDBRANCH  13  22
BRANCH  16  27
HETATM   27  C16 UNL     1      14.609 -12.148  21.458  1.00  0.00     0.239 C
BRANCH  27  28
HETATM   28  C17 UNL     1      14.224 -10.678  21.476  1.00  0.00     0.023 C
HETATM   29  C18 UNL     1      12.726 -10.632  21.125  1.00  0.00     0.007 C
ENDBRANCH  27  28
ENDBRANCH  16  27
TORSDOF 7
ENDMDL