MODEL 4
REMARK VINA RESULT: -7.480057103      2.823      8.320
REMARK  6 active torsions:
REMARK  status: ('A' for Active; 'I' for Inactive)
REMARK    1  A    between atoms: C3_5  and  C4_6
REMARK    2  A    between atoms: C4_6  and  C5_10
REMARK       I    between atoms: C5_10  and  N3_12
REMARK    3  A    between atoms: N4_16  and  C10_18
REMARK    4  A    between atoms: C10_18  and  C11_19
REMARK    5  A    between atoms: C12_20  and  C13_21
REMARK    6  A    between atoms: C13_21  and  N5_22
ROOT
HETATM    1  C5  UNL     1      19.398 -14.319  20.731  1.00  0.00     0.272 C
HETATM    2  O1  UNL     1      20.218 -13.783  19.889  1.00  0.00    -0.266 OA
HETATM    3  N3  UNL     1      18.037 -14.039  20.542  1.00  0.00    -0.345 N
HETATM    4  C6  UNL     1      17.095 -14.617  21.466  1.00  0.00     0.128 C
HETATM    5  C7  UNL     1      15.693 -14.104  21.009  1.00  0.00     0.048 C
HETATM    6  C8  UNL     1      15.678 -12.638  21.352  1.00  0.00     0.240 C
HETATM    7  N4  UNL     1      15.883 -11.777  20.213  1.00  0.00    -0.059 N
HETATM    8  C9  UNL     1      14.962 -12.001  19.144  1.00  0.00     0.273 C
HETATM    9  C18 UNL     1      17.269 -11.820  19.800  1.00  0.00     0.257 C
HETATM   10  C19 UNL     1      17.741 -13.162  19.384  1.00  0.00     0.154 C
ENDROOT
BRANCH   1  11
HETATM   11  C4  UNL     1      19.904 -15.155  21.793  1.00  0.00     0.121 C
HETATM   12  N2  UNL     1      19.657 -16.416  21.844  1.00  0.00    -0.393 N
ATOM     13  H22 UNL     1      20.016 -17.007  22.595  1.00  0.00     0.156 HD
ATOM     14  H21 UNL     1      19.082 -16.790  21.090  1.00  0.00     0.156 HD
BRANCH  11  15
HETATM   15  C3  UNL     1      20.744 -14.610  22.894  1.00  0.00     0.066 A
HETATM   16  N1  UNL     1      22.096 -14.547  22.890  1.00  0.00    -0.357 N
HETATM   17  C2  UNL     1      22.543 -14.003  24.029  1.00  0.00     0.023 A
ATOM     18  H1  UNL     1      22.691 -14.869  22.126  1.00  0.00     0.166 HD
HETATM   19  C1  UNL     1      23.974 -13.760  24.411  1.00  0.00     0.069 C
HETATM   20  C21 UNL     1      21.481 -13.687  24.828  1.00  0.00     0.035 A
HETATM   21  C20 UNL     1      20.350 -14.081  24.086  1.00  0.00     0.053 A
HETATM   22 BR1  UNL     1      21.454 -12.891  26.564  1.00  0.00    -0.049 Br
ENDBRANCH  11  15
ENDBRANCH   1  11
BRANCH   7  23
HETATM   23  C10 UNL     1      15.657 -10.407  20.685  1.00  0.00     0.330 C
BRANCH  23  24
HETATM   24  C11 UNL     1      14.327 -10.267  21.266  1.00  0.00    -0.077 C
HETATM   25  C12 UNL     1      13.202 -10.164  21.740  1.00  0.00    -0.077 C
BRANCH  25  26
HETATM   26  C13 UNL     1      11.859 -10.066  22.297  1.00  0.00     0.330 C
BRANCH  26  27
HETATM   27  N5  UNL     1      11.925  -9.539  23.624  1.00  0.00    -0.061 N
HETATM   28  C14 UNL     1      11.804 -10.612  24.604  1.00  0.00     0.273 C
HETATM   29  C15 UNL     1      13.102  -8.705  23.895  1.00  0.00     0.239 C
HETATM   30  C16 UNL     1      12.209  -7.873  24.797  1.00  0.00     0.056 C
HETATM   31  C17 UNL     1      11.095  -8.416  23.930  1.00  0.00     0.239 C
ENDBRANCH  26  27
ENDBRANCH  25  26
ENDBRANCH  23  24
ENDBRANCH   7  23
TORSDOF 6
ENDMDL