MODEL 2
REMARK VINA RESULT: -7.119854655      3.449      6.255
REMARK  8 active torsions:
REMARK  status: ('A' for Active; 'I' for Inactive)
REMARK    1  A    between atoms: C3_3  and  C4_4
REMARK    2  A    between atoms: C4_4  and  N1_5
REMARK    3  A    between atoms: N1_5  and  C5_6
REMARK    4  A    between atoms: C5_6  and  N2_7
REMARK       I    between atoms: N2_7  and  C6_9
REMARK    5  A    between atoms: C6_9  and  C7_11
REMARK    6  A    between atoms: C13_17  and  C14_18
REMARK    7  A    between atoms: C15_19  and  C16_20
REMARK    8  A    between atoms: C17_22  and  C18_23
REMARK       I    between atoms: C18_23  and  N3_25
ROOT
HETATM    1  C1  UNL     1      21.436 -12.567  27.011  1.00  0.00     0.112 C
HETATM    2  C2  UNL     1      22.171 -13.505  26.162  1.00  0.00    -0.109 C
HETATM    3  C3  UNL     1      22.770 -14.294  25.436  1.00  0.00    -0.079 C
ENDROOT
BRANCH   3   4
HETATM    4  C4  UNL     1      23.457 -15.244  24.573  1.00  0.00     0.337 C
BRANCH   4   5
HETATM    5  N1  UNL     1      22.841 -16.557  24.693  1.00  0.00    -0.023 N
HETATM    6  C20 UNL     1      23.464 -17.404  23.733  1.00  0.00     0.246 C
HETATM    7  C21 UNL     1      24.697 -17.983  24.431  1.00  0.00     0.030 C
HETATM    8  C22 UNL     1      24.680 -17.361  25.822  1.00  0.00     0.030 C
HETATM    9  C23 UNL     1      23.190 -17.164  25.981  1.00  0.00     0.246 C
BRANCH   5  10
HETATM   10  C5  UNL     1      21.416 -16.408  24.597  1.00  0.00     0.297 C
BRANCH  10  11
HETATM   11  N2  UNL     1      20.853 -16.091  23.339  1.00  0.00    -0.316 N
HETATM   12  C6  UNL     1      20.021 -15.004  23.006  1.00  0.00     0.227 C
HETATM   13  O1  UNL     1      19.680 -14.179  23.878  1.00  0.00    -0.273 OA
ATOM     14  H2  UNL     1      21.078 -16.730  22.576  1.00  0.00     0.169 HD
BRANCH  12  15
HETATM   15  C7  UNL     1      19.511 -14.785  21.629  1.00  0.00     0.093 C
HETATM   16  C8  UNL     1      20.636 -14.527  20.646  1.00  0.00     0.021 C
HETATM   17  C9  UNL     1      19.854 -13.749  19.583  1.00  0.00     0.008 C
HETATM   18  C10 UNL     1      20.753 -12.904  18.725  1.00  0.00     0.006 C
HETATM   19  C13 UNL     1      19.116 -12.759  20.415  1.00  0.00     0.040 C
HETATM   20  C11 UNL     1      21.162 -11.773  19.616  1.00  0.00     0.002 C
HETATM   21  C12 UNL     1      20.169 -11.733  20.757  1.00  0.00     0.024 C
HETATM   22  C17 UNL     1      18.662 -13.541  21.613  1.00  0.00     0.112 C
BRANCH  19  23
HETATM   23  C14 UNL     1      18.021 -12.168  19.645  1.00  0.00    -0.094 C
HETATM   24  C15 UNL     1      17.123 -11.709  19.015  1.00  0.00    -0.095 C
BRANCH  24  25
HETATM   25  C16 UNL     1      16.001 -11.159  18.214  1.00  0.00     0.178 C
HETATM   26 BR1  UNL     1      14.379 -11.749  19.054  1.00  0.00    -0.083 Br
ENDBRANCH  24  25
ENDBRANCH  19  23
BRANCH  22  27
HETATM   27  C18 UNL     1      17.212 -13.801  21.582  1.00  0.00     0.224 C
HETATM   28  O2  UNL     1      16.419 -13.018  22.212  1.00  0.00    -0.273 OA
HETATM   29  N3  UNL     1      16.610 -14.875  20.895  1.00  0.00    -0.365 N
HETATM   30  C19 UNL     1      15.166 -15.079  20.899  1.00  0.00     0.149 C
ATOM     31  H3  UNL     1      17.201 -15.527  20.380  1.00  0.00     0.161 HD
ENDBRANCH  22  27
ENDBRANCH  12  15
ENDBRANCH  10  11
ENDBRANCH   5  10
ENDBRANCH   4   5
ENDBRANCH   3   4
TORSDOF 8
ENDMDL