MODEL 1
REMARK VINA RESULT: -8.159422639      0.000      0.000
REMARK  6 active torsions:
REMARK  status: ('A' for Active; 'I' for Inactive)
REMARK    1  A    between atoms: C2_2  and  N1_3
REMARK    2  A    between atoms: N2_6  and  C5_7
REMARK    3  A    between atoms: C5_7  and  C6_8
REMARK    4  A    between atoms: C6_8  and  C7_9
REMARK       I    between atoms: C7_9  and  N3_11
REMARK    5  A    between atoms: C10_14  and  C11_15
REMARK       I    between atoms: C11_15  and  N4_17
REMARK    6  A    between atoms: N4_17  and  C12_19
ROOT
HETATM    1  C7  UNL     1      18.258 -12.748  20.660  1.00  0.00     0.221 C
HETATM    2  O1  UNL     1      18.407 -11.746  21.404  1.00  0.00    -0.273 OA
HETATM    3  N3  UNL     1      17.020 -12.911  19.992  1.00  0.00    -0.351 N
HETATM    4  C8  UNL     1      16.720 -14.022  19.108  1.00  0.00     0.127 C
HETATM    5  C9  UNL     1      15.213 -14.087  19.114  1.00  0.00     0.035 C
HETATM    6  C10 UNL     1      14.867 -12.608  19.119  1.00  0.00     0.098 C
HETATM    7  C15 UNL     1      15.861 -12.027  20.067  1.00  0.00     0.139 C
ENDROOT
BRANCH   1   8
HETATM    8  C6  UNL     1      19.332 -13.752  20.468  1.00  0.00     0.131 C
BRANCH   8   9
HETATM    9  C5  UNL     1      19.134 -14.841  21.476  1.00  0.00     0.247 C
BRANCH   9  10
HETATM   10  N2  UNL     1      19.995 -14.753  22.610  1.00  0.00    -0.062 N
HETATM   11  C4  UNL     1      21.152 -13.919  22.312  1.00  0.00     0.265 C
HETATM   12  C3  UNL     1      22.083 -13.855  23.505  1.00  0.00     0.265 C
HETATM   13  N1  UNL     1      21.390 -14.341  24.657  1.00  0.00    -0.063 N
HETATM   14  C17 UNL     1      21.056 -15.747  24.496  1.00  0.00     0.265 C
HETATM   15  C19 UNL     1      20.125 -13.618  24.774  1.00  0.00     0.265 C
HETATM   16  C16 UNL     1      20.494 -16.014  23.092  1.00  0.00     0.265 C
HETATM   17  C18 UNL     1      19.213 -14.170  23.708  1.00  0.00     0.265 C
BRANCH  13  18
HETATM   18  C2  UNL     1      22.088 -14.181  25.893  1.00  0.00     0.233 C
HETATM   19  C1  UNL     1      21.662 -12.989  26.695  1.00  0.00     0.035 C
ENDBRANCH  13  18
ENDBRANCH   9  10
ENDBRANCH   8   9
ENDBRANCH   1   8
BRANCH   6  20
HETATM   20  C11 UNL     1      13.463 -12.337  19.430  1.00  0.00     0.241 C
HETATM   21  O2  UNL     1      12.585 -13.264  19.383  1.00  0.00    -0.272 OA
HETATM   22  N4  UNL     1      13.024 -11.056  19.790  1.00  0.00    -0.159 N
ATOM     23  H4  UNL     1      13.022 -10.295  19.112  1.00  0.00     0.187 HD
BRANCH  22  24
HETATM   24  C12 UNL     1      12.620 -10.862  21.008  1.00  0.00     0.685 A
HETATM   25  N5  UNL     1      12.064 -11.847  21.770  1.00  0.00    -0.199 N
HETATM   26  C13 UNL     1      11.757 -11.331  22.962  1.00  0.00     0.144 A
ATOM     27  H5  UNL     1      11.910 -12.812  21.479  1.00  0.00     0.183 HD
HETATM   28  C14 UNL     1      12.126 -10.011  22.935  1.00  0.00     0.112 A
HETATM   29 BR1  UNL     1      11.948  -8.729  24.336  1.00  0.00    -0.029 Br
HETATM   30  N6  UNL     1      12.664  -9.721  21.718  1.00  0.00    -0.183 N
ATOM     31  H6  UNL     1      13.027  -8.820  21.408  1.00  0.00     0.185 HD
ENDBRANCH  22  24
ENDBRANCH   6  20
TORSDOF 6
ENDMDL