MODEL 1
REMARK VINA RESULT: -8.362434720      0.000      0.000
REMARK  6 active torsions:
REMARK  status: ('A' for Active; 'I' for Inactive)
REMARK    1  A    between atoms: N1_2  and  C2_3
REMARK       I    between atoms: N1_2  and  C16_22
REMARK    2  A    between atoms: C2_3  and  C3_4
REMARK       I    between atoms: N2_7  and  C6_8
REMARK       I    between atoms: C6_8  and  N3_10
REMARK    3  A    between atoms: N3_10  and  C7_12
REMARK    4  A    between atoms: C7_12  and  C8_13
REMARK    5  A    between atoms: C8_13  and  N4_14
REMARK       I    between atoms: C16_22  and  N5_24
REMARK    6  A    between atoms: N5_24  and  C17_26
ROOT
HETATM    1  C3  UNL     1      16.468 -13.797  19.088  1.00  0.00     0.007 C
HETATM    2  C4  UNL     1      17.286 -12.539  19.160  1.00  0.00     0.026 C
HETATM    3  C5  UNL     1      18.759 -12.979  19.160  1.00  0.00     0.128 C
HETATM    4  N2  UNL     1      18.993 -13.554  20.446  1.00  0.00    -0.334 N
HETATM    5  C6  UNL     1      20.248 -13.373  21.079  1.00  0.00     0.318 C
HETATM    6  O1  UNL     1      21.168 -12.697  20.501  1.00  0.00    -0.247 OA
HETATM    7  N3  UNL     1      20.550 -13.912  22.349  1.00  0.00    -0.341 N
ATOM      8  H3  UNL     1      19.833 -14.448  22.837  1.00  0.00     0.164 HD
HETATM    9  C14 UNL     1      17.950 -14.303  21.071  1.00  0.00     0.128 C
HETATM   10  C15 UNL     1      16.967 -14.837  20.031  1.00  0.00     0.026 C
ENDROOT
BRANCH   1  11
HETATM   11  C2  UNL     1      14.985 -13.530  19.264  1.00  0.00     0.131 C
BRANCH  11  12
HETATM   12  N1  UNL     1      14.319 -14.652  19.885  1.00  0.00    -0.338 N
HETATM   13  C1  UNL     1      14.041 -15.842  19.108  1.00  0.00     0.154 C
HETATM   14  C16 UNL     1      13.936 -14.585  21.256  1.00  0.00     0.323 C
HETATM   15  O2  UNL     1      13.355 -15.528  21.844  1.00  0.00    -0.247 OA
HETATM   16  N5  UNL     1      14.204 -13.419  22.031  1.00  0.00    -0.292 N
ATOM     17  H5  UNL     1      15.087 -13.313  22.532  1.00  0.00     0.172 HD
BRANCH  16  18
HETATM   18  C17 UNL     1      13.294 -12.498  22.081  1.00  0.00     0.142 A
HETATM   19  N6  UNL     1      12.019 -12.621  22.480  1.00  0.00    -0.285 N
HETATM   20  N7  UNL     1      11.383 -11.468  22.397  1.00  0.00    -0.309 N
ATOM     21  H6  UNL     1      11.598 -13.491  22.806  1.00  0.00     0.188 HD
HETATM   22  C18 UNL     1      12.258 -10.556  21.930  1.00  0.00     0.130 A
ATOM     23  H7  UNL     1      10.407 -11.299  22.640  1.00  0.00     0.186 HD
HETATM   24  C19 UNL     1      13.480 -11.180  21.721  1.00  0.00     0.073 A
HETATM   25 BR1  UNL     1      15.085 -10.356  21.061  1.00  0.00    -0.045 Br
ENDBRANCH  16  18
ENDBRANCH  11  12
ENDBRANCH   1  11
BRANCH   7  26
HETATM   26  C7  UNL     1      21.818 -13.736  22.972  1.00  0.00     0.152 C
BRANCH  26  27
HETATM   27  C8  UNL     1      22.255 -14.955  23.702  1.00  0.00     0.256 C
BRANCH  27  28
HETATM   28  N4  UNL     1      22.211 -14.782  25.148  1.00  0.00    -0.069 N
HETATM   29  C9  UNL     1      22.934 -15.829  25.840  1.00  0.00     0.272 C
HETATM   30  C10 UNL     1      20.800 -14.792  25.515  1.00  0.00     0.237 C
HETATM   31  C11 UNL     1      20.702 -13.911  26.743  1.00  0.00     0.029 C
HETATM   32  C12 UNL     1      21.722 -12.833  26.418  1.00  0.00     0.029 C
HETATM   33  C13 UNL     1      22.703 -13.465  25.454  1.00  0.00     0.237 C
ENDBRANCH  27  28
ENDBRANCH  26  27
ENDBRANCH   7  26
TORSDOF 6
ENDMDL