MODEL 4
REMARK VINA RESULT: -7.958840742      2.764      6.938
REMARK  8 active torsions:
REMARK  status: ('A' for Active; 'I' for Inactive)
REMARK    1  A    between atoms: C5_7  and  C6_8
REMARK    2  A    between atoms: C6_8  and  C7_9
REMARK    3  A    between atoms: C7_9  and  C8_10
REMARK    4  A    between atoms: C9_11  and  C10_12
REMARK    5  A    between atoms: C10_12  and  N2_13
REMARK    6  A    between atoms: N2_13  and  C11_16
REMARK    7  A    between atoms: C11_16  and  C12_17
REMARK    8  A    between atoms: C12_17  and  C13_18
ROOT
HETATM    1  C11 UNL     1      19.130 -11.595  17.311  1.00  0.00     0.234 C
ENDROOT
BRANCH   1   2
HETATM    2  N2  UNL     1      20.301 -12.431  17.623  1.00  0.00    -0.065 N
ATOM      3  H22 UNL     1      20.825 -12.645  16.773  1.00  0.00     0.278 HD
ATOM      4  H21 UNL     1      20.009 -13.373  17.886  1.00  0.00     0.278 HD
BRANCH   2   5
HETATM    5  C10 UNL     1      21.157 -11.879  18.612  1.00  0.00     0.325 C
BRANCH   5   6
HETATM    6  C9  UNL     1      20.905 -12.505  19.942  1.00  0.00    -0.079 C
HETATM    7  C8  UNL     1      20.659 -13.023  20.988  1.00  0.00    -0.101 C
BRANCH   7   8
HETATM    8  C7  UNL     1      20.316 -13.660  22.229  1.00  0.00     0.122 C
BRANCH   8   9
HETATM    9  C6  UNL     1      21.485 -14.026  23.015  1.00  0.00    -0.001 C
BRANCH   9  10
HETATM   10  C5  UNL     1      21.674 -13.775  24.303  1.00  0.00    -0.012 A
HETATM   11  C2  UNL     1      22.891 -13.779  24.934  1.00  0.00     0.032 A
HETATM   12  C1  UNL     1      24.066 -14.005  24.398  1.00  0.00     0.044 C
HETATM   13  N1  UNL     1      22.667 -13.485  26.241  1.00  0.00    -0.366 N
HETATM   14  C3  UNL     1      21.362 -13.299  26.449  1.00  0.00     0.089 A
ATOM     15  H1  UNL     1      23.390 -13.416  26.958  1.00  0.00     0.165 HD
HETATM   16  C4  UNL     1      20.704 -13.473  25.249  1.00  0.00     0.030 A
ENDBRANCH   9  10
ENDBRANCH   8   9
ENDBRANCH   7   8
ENDBRANCH   5   6
ENDBRANCH   2   5
ENDBRANCH   1   2
BRANCH   1  17
HETATM   17  C12 UNL     1      18.010 -12.549  17.105  1.00  0.00     0.039 C
BRANCH  17  18
HETATM   18  C13 UNL     1      17.053 -12.778  18.222  1.00  0.00    -0.012 C
HETATM   19  C14 UNL     1      17.079 -11.488  19.033  1.00  0.00     0.018 C
HETATM   20  C15 UNL     1      17.459 -13.886  19.181  1.00  0.00     0.140 C
HETATM   21  N3  UNL     1      16.526 -13.665  20.307  1.00  0.00    -0.306 N
HETATM   22  C16 UNL     1      16.146 -13.297  21.599  1.00  0.00     0.324 A
HETATM   23  C18 UNL     1      15.139 -13.964  20.009  1.00  0.00     0.120 A
HETATM   24  O1  UNL     1      16.844 -12.959  22.606  1.00  0.00    -0.247 OA
HETATM   25  N4  UNL     1      14.771 -13.462  21.292  1.00  0.00    -0.311 N
HETATM   26  C17 UNL     1      13.596 -13.192  22.087  1.00  0.00     0.157 C
HETATM   27  C19 UNL     1      14.968 -15.495  20.037  1.00  0.00     0.064 C
HETATM   28  C20 UNL     1      14.650 -13.314  18.771  1.00  0.00     0.011 C
HETATM   29  C21 UNL     1      13.837 -12.073  19.055  1.00  0.00     0.020 C
HETATM   30  C22 UNL     1      13.637 -14.298  18.147  1.00  0.00     0.020 C
HETATM   31  C23 UNL     1      15.704 -13.106  17.708  1.00  0.00     0.079 C
HETATM   32 BR1  UNL     1      15.200 -11.758  16.419  1.00  0.00    -0.089 Br
ENDBRANCH  17  18
ENDBRANCH   1  17
TORSDOF 8
ENDMDL