MODEL 5
REMARK VINA RESULT: -8.211248858      2.897      3.373
REMARK  6 active torsions:
REMARK  status: ('A' for Active; 'I' for Inactive)
REMARK    1  A    between atoms: C3_3  and  C4_4
REMARK    2  A    between atoms: C4_4  and  C5_5
REMARK    3  A    between atoms: C6_6  and  C7_7
REMARK    4  A    between atoms: N2_17  and  C15_18
REMARK    5  A    between atoms: C15_18  and  C16_19
REMARK    6  A    between atoms: C18_26  and  C19_27
ROOT
HETATM    1  C1  UNL     1      21.352 -12.564  26.859  1.00  0.00     0.012 C
HETATM    2  C2  UNL     1      21.963 -13.478  26.359  1.00  0.00    -0.117 C
HETATM    3  C3  UNL     1      22.719 -14.598  25.760  1.00  0.00     0.105 C
ENDROOT
BRANCH   3   4
HETATM    4  C4  UNL     1      23.413 -14.041  24.521  1.00  0.00     0.106 C
BRANCH   4   5
HETATM    5  C5  UNL     1      22.427 -13.939  23.449  1.00  0.00    -0.100 C
HETATM    6  C6  UNL     1      21.622 -13.837  22.566  1.00  0.00    -0.067 C
BRANCH   6   7
HETATM    7  C7  UNL     1      20.668 -13.690  21.519  1.00  0.00     0.019 A
HETATM    8  C8  UNL     1      20.959 -12.911  20.419  1.00  0.00     0.029 A
HETATM    9  C9  UNL     1      20.070 -12.737  19.378  1.00  0.00    -0.033 A
HETATM   10  C10 UNL     1      20.414 -11.886  18.194  1.00  0.00     0.050 C
HETATM   11  C11 UNL     1      18.852 -13.383  19.478  1.00  0.00     0.051 A
HETATM   12  N1  UNL     1      17.797 -13.421  18.667  1.00  0.00    -0.340 N
HETATM   13  C21 UNL     1      18.530 -14.170  20.567  1.00  0.00     0.008 A
HETATM   14  C12 UNL     1      16.818 -14.203  19.200  1.00  0.00     0.121 A
ATOM     15  H1  UNL     1      17.731 -12.934  17.773  1.00  0.00     0.167 HD
HETATM   16  C13 UNL     1      17.260 -14.691  20.410  1.00  0.00     0.036 A
HETATM   17  N5  UNL     1      15.596 -14.564  18.803  1.00  0.00    -0.326 N
HETATM   18  C14 UNL     1      16.421 -15.512  21.130  1.00  0.00     0.108 A
HETATM   19  N2  UNL     1      15.173 -15.848  20.672  1.00  0.00    -0.341 N
HETATM   20  C18 UNL     1      14.751 -15.377  19.500  1.00  0.00     0.096 A
HETATM   21  C20 UNL     1      15.124 -14.050  17.531  1.00  0.00     0.159 C
HETATM   22  C22 UNL     1      19.447 -14.319  21.589  1.00  0.00     0.035 A
BRANCH  19  23
HETATM   23  C15 UNL     1      14.379 -16.656  21.547  1.00  0.00     0.176 C
BRANCH  23  24
HETATM   24  C16 UNL     1      14.719 -18.128  21.531  1.00  0.00     0.208 C
HETATM   25  N3  UNL     1      15.407 -18.669  22.651  1.00  0.00    -0.320 N
HETATM   26  C17 UNL     1      14.198 -19.193  23.152  1.00  0.00     0.319 C
ATOM     27  H3  UNL     1      16.378 -18.674  22.965  1.00  0.00     0.166 HD
HETATM   28  O1  UNL     1      13.801 -19.715  24.254  1.00  0.00    -0.247 OA
HETATM   29  N4  UNL     1      13.576 -18.910  21.921  1.00  0.00    -0.320 N
ATOM     30  H4  UNL     1      12.687 -19.155  21.487  1.00  0.00     0.166 HD
ENDBRANCH  23  24
ENDBRANCH  19  23
BRANCH  20  31
HETATM   31  C19 UNL     1      13.427 -15.730  18.876  1.00  0.00     0.162 C
HETATM   32 BR1  UNL     1      13.618 -17.417  17.888  1.00  0.00    -0.088 Br
ENDBRANCH  20  31
ENDBRANCH   6   7
ENDBRANCH   4   5
ENDBRANCH   3   4
TORSDOF 6
ENDMDL