MODEL 5
REMARK VINA RESULT: -8.201348672      2.042      3.312
REMARK  7 active torsions:
REMARK  status: ('A' for Active; 'I' for Inactive)
REMARK    1  A    between atoms: C3_5  and  C4_6
REMARK    2  A    between atoms: C4_6  and  C6_8
REMARK    3  A    between atoms: C9_11  and  S1_12
REMARK    4  A    between atoms: S1_12  and  C11_14
REMARK    5  A    between atoms: C11_14  and  C12_15
REMARK       I    between atoms: C12_15  and  N2_17
REMARK    6  A    between atoms: N2_17  and  C13_19
REMARK    7  A    between atoms: C13_19  and  C14_20
ROOT
HETATM    1  C6  UNL     1      14.827 -11.850  16.972  1.00  0.00    -0.070 C
HETATM    2  C7  UNL     1      15.058 -11.369  15.906  1.00  0.00    -0.106 C
HETATM    3  C8  UNL     1      15.365 -10.771  14.613  1.00  0.00     0.112 C
ENDROOT
BRANCH   1   4
HETATM    4  C4  UNL     1      14.575 -12.448  18.293  1.00  0.00     0.021 C
HETATM    5  C5  UNL     1      14.018 -13.799  18.234  1.00  0.00     0.061 C
BRANCH   4   6
HETATM    6  C3  UNL     1      14.872 -11.712  19.336  1.00  0.00     0.081 A
HETATM    7  N1  UNL     1      13.952 -10.944  19.998  1.00  0.00    -0.340 N
HETATM    8  C2  UNL     1      14.454 -10.366  21.068  1.00  0.00     0.096 A
ATOM      9  H1  UNL     1      12.984 -10.831  19.695  1.00  0.00     0.167 HD
HETATM   10  C1  UNL     1      13.870  -9.568  21.940  1.00  0.00     0.063 C
HETATM   11  N3  UNL     1      15.759 -10.766  21.116  1.00  0.00    -0.336 N
HETATM   12  C9  UNL     1      16.016 -11.570  20.073  1.00  0.00     0.090 A
ATOM     13  H3  UNL     1      16.432 -10.495  21.833  1.00  0.00     0.168 HD
BRANCH  12  14
HETATM   14  S1  UNL     1      17.525 -12.100  19.621  1.00  0.00    -0.163 SA
HETATM   15  C10 UNL     1      17.700 -13.993  19.914  1.00  0.00     0.086 C
BRANCH  14  16
HETATM   16  C11 UNL     1      18.962 -11.270  20.516  1.00  0.00     0.172 C
BRANCH  16  17
HETATM   17  C12 UNL     1      20.015 -12.337  20.644  1.00  0.00     0.230 C
HETATM   18  O1  UNL     1      20.735 -12.573  19.623  1.00  0.00    -0.272 OA
HETATM   19  N2  UNL     1      20.207 -13.051  21.831  1.00  0.00    -0.339 N
ATOM     20  H2  UNL     1      19.587 -12.765  22.588  1.00  0.00     0.167 HD
BRANCH  19  21
HETATM   21  C13 UNL     1      21.087 -14.085  22.182  1.00  0.00     0.073 C
BRANCH  21  22
HETATM   22  C14 UNL     1      21.444 -14.252  23.611  1.00  0.00    -0.006 C
HETATM   23  C15 UNL     1      20.371 -13.468  24.400  1.00  0.00     0.019 C
HETATM   24  C16 UNL     1      20.535 -13.699  25.870  1.00  0.00    -0.012 C
HETATM   25  C17 UNL     1      21.954 -13.284  26.238  1.00  0.00     0.009 C
HETATM   26  C21 UNL     1      20.251 -15.139  26.170  1.00  0.00     0.025 C
HETATM   27  C18 UNL     1      22.954 -14.154  25.534  1.00  0.00    -0.012 C
HETATM   28  C19 UNL     1      22.676 -15.612  25.817  1.00  0.00     0.025 C
HETATM   29  C23 UNL     1      22.804 -13.916  24.023  1.00  0.00     0.019 C
HETATM   30  C20 UNL     1      21.281 -15.955  25.405  1.00  0.00     0.020 C
HETATM   31 BR1  UNL     1      21.021 -17.853  25.729  1.00  0.00    -0.085 Br
HETATM   32  C22 UNL     1      21.106 -15.722  23.948  1.00  0.00     0.036 C
ENDBRANCH  21  22
ENDBRANCH  19  21
ENDBRANCH  16  17
ENDBRANCH  14  16
ENDBRANCH  12  14
ENDBRANCH   4   6
ENDBRANCH   1   4
TORSDOF 7
ENDMDL