MODEL 5
REMARK VINA RESULT: -8.477272389      2.994      4.788
REMARK  8 active torsions:
REMARK  status: ('A' for Active; 'I' for Inactive)
REMARK    1  A    between atoms: C2_2  and  C3_3
REMARK    2  A    between atoms: C3_3  and  N1_4
REMARK    3  A    between atoms: N1_4  and  C5_6
REMARK    4  A    between atoms: C7_8  and  C8_9
REMARK    5  A    between atoms: C10_13  and  N2_14
REMARK    6  A    between atoms: N3_17  and  C13_18
REMARK    7  A    between atoms: C13_18  and  C14_19
REMARK       I    between atoms: C14_19  and  N4_21
REMARK    8  A    between atoms: N4_21  and  C15_23
ROOT
HETATM    1  N2  UNL     1      20.063 -13.764  22.090  1.00  0.00    -0.054 N
HETATM    2  C11 UNL     1      18.963 -13.495  23.046  1.00  0.00     0.266 C
HETATM    3  C12 UNL     1      17.618 -13.482  22.362  1.00  0.00     0.266 C
HETATM    4  N3  UNL     1      17.842 -12.996  21.019  1.00  0.00    -0.054 N
HETATM    5  C18 UNL     1      18.445 -14.116  20.292  1.00  0.00     0.266 C
HETATM    6  C19 UNL     1      19.473 -14.746  21.177  1.00  0.00     0.266 C
HETATM    7  C20 UNL     1      18.825 -11.959  21.088  1.00  0.00     0.271 C
HETATM    8  C21 UNL     1      20.225 -12.528  21.380  1.00  0.00     0.213 C
HETATM    9  C22 UNL     1      20.950 -12.595  20.087  1.00  0.00     0.042 C
ENDROOT
BRANCH   1  10
HETATM   10  C10 UNL     1      21.183 -14.235  22.814  1.00  0.00     0.194 C
HETATM   11  C9  UNL     1      21.958 -13.192  23.559  1.00  0.00     0.049 C
HETATM   12  C7  UNL     1      22.733 -13.638  24.743  1.00  0.00     0.091 C
HETATM   13  C6  UNL     1      23.109 -15.070  24.817  1.00  0.00     0.040 C
HETATM   14  C5  UNL     1      22.364 -16.011  23.953  1.00  0.00     0.086 C
HETATM   15  C23 UNL     1      20.954 -15.453  23.696  1.00  0.00     0.058 C
BRANCH  12  16
HETATM   16  C8  UNL     1      22.139 -13.147  26.041  1.00  0.00     0.177 C
HETATM   17  O1  UNL     1      21.190 -12.335  25.962  1.00  0.00    -0.648 OA
HETATM   18  O2  UNL     1      22.582 -13.541  27.272  1.00  0.00    -0.648 OA
ENDBRANCH  12  16
BRANCH  14  19
HETATM   19  N1  UNL     1      22.392 -17.319  24.434  1.00  0.00    -0.390 N
HETATM   20  C4  UNL     1      23.051 -17.577  25.651  1.00  0.00     0.149 C
BRANCH  19  21
HETATM   21  C3  UNL     1      22.110 -18.401  23.588  1.00  0.00     0.084 C
BRANCH  21  22
HETATM   22  C2  UNL     1      23.062 -18.425  22.429  1.00  0.00     0.007 C
HETATM   23  C1  UNL     1      22.640 -18.471  21.175  1.00  0.00     0.012 C
ENDBRANCH  21  22
ENDBRANCH  19  21
ENDBRANCH  14  19
ENDBRANCH   1  10
BRANCH   4  24
HETATM   24  C13 UNL     1      16.669 -12.656  20.288  1.00  0.00     0.340 C
BRANCH  24  25
HETATM   25  C14 UNL     1      16.389 -11.256  20.033  1.00  0.00     0.262 C
HETATM   26  O3  UNL     1      16.595 -10.703  18.948  1.00  0.00    -0.271 OA
HETATM   27  N4  UNL     1      15.840 -10.490  21.123  1.00  0.00    -0.158 N
ATOM     28  H4  UNL     1      16.471 -10.031  21.780  1.00  0.00     0.187 HD
BRANCH  27  29
HETATM   29  C15 UNL     1      14.564 -10.375  21.282  1.00  0.00     0.684 A
HETATM   30  N5  UNL     1      13.663 -10.900  20.430  1.00  0.00    -0.200 N
HETATM   31  C16 UNL     1      12.436 -10.598  20.885  1.00  0.00     0.123 A
ATOM     32  H5  UNL     1      13.875 -11.433  19.586  1.00  0.00     0.183 HD
HETATM   33  C17 UNL     1      12.570  -9.875  22.040  1.00  0.00     0.123 A
HETATM   34  N6  UNL     1      13.891  -9.754  22.258  1.00  0.00    -0.200 N
ATOM     35  H6  UNL     1      14.315  -9.265  23.046  1.00  0.00     0.183 HD
ENDBRANCH  27  29
ENDBRANCH  24  25
ENDBRANCH   4  24
TORSDOF 8
ENDMDL