MODEL 5
REMARK VINA RESULT: -7.257393637      4.254      5.181
REMARK  6 active torsions:
REMARK  status: ('A' for Active; 'I' for Inactive)
REMARK    1  A    between atoms: C2_2  and  N1_3
REMARK       I    between atoms: N1_3  and  C3_5
REMARK       I    between atoms: C3_5  and  N2_7
REMARK    2  A    between atoms: C6_10  and  N3_11
REMARK       I    between atoms: N3_11  and  C7_13
REMARK    3  A    between atoms: C7_13  and  C8_15
REMARK    4  A    between atoms: C8_15  and  N4_16
REMARK       I    between atoms: N4_16  and  C9_18
REMARK    5  A    between atoms: C9_18  and  C10_20
REMARK    6  A    between atoms: C19_31  and  C20_32
ROOT
HETATM    1  N4  UNL     1      21.354 -12.893  22.645  1.00  0.00    -0.350 N
ATOM      2  H4  UNL     1      21.388 -12.194  23.387  1.00  0.00     0.163 HD
HETATM    3  C9  UNL     1      21.353 -14.313  22.936  1.00  0.00     0.257 C
HETATM    4  O3  UNL     1      21.277 -14.999  21.840  1.00  0.00    -0.271 OA
ENDROOT
BRANCH   1   5
HETATM    5  C8  UNL     1      21.306 -12.513  21.220  1.00  0.00     0.225 C
BRANCH   5   6
HETATM    6  C7  UNL     1      19.957 -12.514  20.639  1.00  0.00     0.235 C
HETATM    7  N3  UNL     1      18.790 -12.950  21.258  1.00  0.00    -0.355 N
ATOM      8  H3  UNL     1      18.835 -13.287  22.220  1.00  0.00     0.162 HD
HETATM    9  O2  UNL     1      19.892 -12.056  19.444  1.00  0.00    -0.272 OA
BRANCH   7  10
HETATM   10  C6  UNL     1      17.512 -12.937  20.576  1.00  0.00     0.087 C
HETATM   11  C5  UNL     1      17.221 -14.234  19.926  1.00  0.00     0.045 C
HETATM   12  C4  UNL     1      15.780 -14.623  20.037  1.00  0.00     0.129 C
HETATM   13  N2  UNL     1      14.830 -13.557  20.081  1.00  0.00    -0.334 N
HETATM   14  C3  UNL     1      13.497 -13.792  19.657  1.00  0.00     0.318 C
HETATM   15  C23 UNL     1      15.178 -12.235  20.579  1.00  0.00     0.129 C
HETATM   16  N1  UNL     1      13.137 -15.102  19.255  1.00  0.00    -0.343 N
HETATM   17  O1  UNL     1      12.675 -12.855  19.648  1.00  0.00    -0.247 OA
ATOM     18  H1  UNL     1      13.843 -15.837  19.292  1.00  0.00     0.164 HD
HETATM   19  C22 UNL     1      16.382 -12.475  21.514  1.00  0.00     0.045 C
BRANCH  16  20
HETATM   20  C2  UNL     1      11.799 -15.441  18.790  1.00  0.00     0.120 C
HETATM   21  C1  UNL     1      11.412 -16.870  19.079  1.00  0.00     0.026 C
ENDBRANCH  16  20
ENDBRANCH   7  10
ENDBRANCH   5   6
ENDBRANCH   1   5
BRANCH   3  22
HETATM   22  C10 UNL     1      21.434 -14.956  24.240  1.00  0.00     0.236 C
HETATM   23  C11 UNL     1      21.408 -16.458  24.083  1.00  0.00     0.286 C
HETATM   24  N5  UNL     1      20.903 -17.228  25.146  1.00  0.00    -0.070 N
HETATM   25  C12 UNL     1      19.781 -18.095  24.723  1.00  0.00     0.272 C
HETATM   26  C13 UNL     1      21.975 -18.202  25.487  1.00  0.00     0.272 C
HETATM   27  C14 UNL     1      20.538 -16.601  26.358  1.00  0.00     0.264 C
HETATM   28  C15 UNL     1      20.228 -15.166  26.330  1.00  0.00     0.266 C
HETATM   29  N6  UNL     1      20.293 -14.507  25.041  1.00  0.00    -0.050 N
HETATM   30  C16 UNL     1      19.028 -14.546  24.419  1.00  0.00     0.274 C
HETATM   31  C17 UNL     1      20.642 -13.126  25.353  1.00  0.00     0.239 C
HETATM   32  C18 UNL     1      22.139 -13.104  25.510  1.00  0.00     0.036 C
HETATM   33  C19 UNL     1      22.555 -14.484  25.097  1.00  0.00     0.035 C
BRANCH  33  34
HETATM   34  C20 UNL     1      23.934 -14.564  24.523  1.00  0.00     0.003 C
HETATM   35  C21 UNL     1      24.526 -13.138  24.556  1.00  0.00     0.005 C
ENDBRANCH  33  34
ENDBRANCH   3  22
TORSDOF 6
ENDMDL