MODEL 2
REMARK VINA RESULT: -8.745807403      0.957      1.153
REMARK  8 active torsions:
REMARK  status: ('A' for Active; 'I' for Inactive)
REMARK    1  A    between atoms: N1_2  and  C2_5
REMARK    2  A    between atoms: C2_5  and  C3_6
REMARK    3  A    between atoms: C3_6  and  C4_7
REMARK    4  A    between atoms: C4_7  and  C5_8
REMARK       I    between atoms: C5_8  and  N2_10
REMARK    5  A    between atoms: N2_10  and  N3_12
REMARK    6  A    between atoms: N4_15  and  C8_16
REMARK    7  A    between atoms: C8_16  and  C9_17
REMARK       I    between atoms: C9_17  and  N5_19
REMARK    8  A    between atoms: N5_19  and  C10_21
ROOT
HETATM    1  N3  UNL     1      17.515 -12.970  20.845  1.00  0.00     0.019 N
HETATM    2  C6  UNL     1      17.468 -11.561  20.453  1.00  0.00     0.293 C
HETATM    3  C7  UNL     1      16.053 -11.087  20.647  1.00  0.00     0.268 C
HETATM    4  N4  UNL     1      15.132 -12.236  20.472  1.00  0.00    -0.054 N
HETATM    5  C14 UNL     1      15.648 -12.973  19.344  1.00  0.00     0.268 C
HETATM    6  C15 UNL     1      16.879 -13.762  19.858  1.00  0.00     0.293 C
HETATM    7  C16 UNL     1      15.228 -12.979  21.687  1.00  0.00     0.268 C
HETATM    8  C17 UNL     1      16.689 -13.008  22.082  1.00  0.00     0.293 C
ENDROOT
BRANCH   1   9
HETATM    9  N2  UNL     1      18.792 -13.364  21.171  1.00  0.00    -0.185 N
HETATM   10  C5  UNL     1      19.975 -13.429  20.451  1.00  0.00     0.241 C
HETATM   11  O1  UNL     1      20.129 -13.115  19.256  1.00  0.00    -0.272 OA
ATOM     12  H2  UNL     1      18.888 -13.672  22.139  1.00  0.00     0.197 HD
BRANCH  10  13
HETATM   13  C4  UNL     1      21.212 -13.930  21.185  1.00  0.00     0.107 C
BRANCH  13  14
HETATM   14  C3  UNL     1      21.390 -13.109  22.405  1.00  0.00     0.048 C
BRANCH  14  15
HETATM   15  C2  UNL     1      21.474 -13.925  23.678  1.00  0.00     0.126 C
HETATM   16  C18 UNL     1      22.869 -13.958  24.162  1.00  0.00     0.039 C
HETATM   17  C19 UNL     1      23.133 -13.086  25.380  1.00  0.00     0.002 C
HETATM   18  C20 UNL     1      22.756 -13.784  26.657  1.00  0.00     0.000 C
HETATM   19  C21 UNL     1      21.361 -13.307  27.029  1.00  0.00     0.000 C
HETATM   20  C22 UNL     1      20.430 -13.902  25.974  1.00  0.00     0.002 C
HETATM   21  C23 UNL     1      20.526 -13.217  24.655  1.00  0.00     0.039 C
BRANCH  15  22
HETATM   22  N1  UNL     1      20.860 -15.203  23.401  1.00  0.00    -0.070 N
HETATM   23  C1  UNL     1      21.704 -16.328  23.743  1.00  0.00     0.267 C
ATOM     24  H12 UNL     1      20.560 -15.258  22.428  1.00  0.00     0.277 HD
ATOM     25  H11 UNL     1      19.954 -15.278  23.862  1.00  0.00     0.277 HD
ENDBRANCH  15  22
ENDBRANCH  14  15
ENDBRANCH  13  14
ENDBRANCH  10  13
ENDBRANCH   1   9
BRANCH   4  26
HETATM   26  C8  UNL     1      13.858 -11.686  20.150  1.00  0.00     0.340 C
BRANCH  26  27
HETATM   27  C9  UNL     1      12.714 -12.348  20.769  1.00  0.00     0.249 C
HETATM   28  O2  UNL     1      12.600 -13.589  20.847  1.00  0.00    -0.271 OA
HETATM   29  N5  UNL     1      11.651 -11.584  21.323  1.00  0.00    -0.311 N
ATOM     30  H5  UNL     1      10.766 -11.528  20.818  1.00  0.00     0.170 HD
BRANCH  29  31
HETATM   31  C10 UNL     1      11.770 -10.969  22.431  1.00  0.00     0.123 A
HETATM   32  C11 UNL     1      11.494 -11.561  23.675  1.00  0.00     0.068 A
HETATM   33  C12 UNL     1      11.739 -10.591  24.612  1.00  0.00     0.113 A
HETATM   34  N6  UNL     1      12.134  -9.496  23.982  1.00  0.00    -0.306 N
HETATM   35  C13 UNL     1      12.500  -8.214  24.587  1.00  0.00     0.177 C
HETATM   36  N7  UNL     1      12.151  -9.723  22.692  1.00  0.00    -0.284 N
ATOM     37  H7  UNL     1      12.420  -9.039  21.985  1.00  0.00     0.188 HD
ENDBRANCH  29  31
ENDBRANCH  26  27
ENDBRANCH   4  26
TORSDOF 8
ENDMDL