MODEL 3
REMARK VINA RESULT: -8.627061015      2.925      8.293
REMARK  10 active torsions:
REMARK  status: ('A' for Active; 'I' for Inactive)
REMARK    1  A    between atoms: C3_3  and  C4_4
REMARK    2  A    between atoms: C7_7  and  C8_8
REMARK       I    between atoms: N1_9  and  C9_11
REMARK    3  A    between atoms: C9_11  and  C10_13
REMARK    4  A    between atoms: C10_13  and  C11_14
REMARK    5  A    between atoms: C11_14  and  N2_15
REMARK    6  A    between atoms: N3_18  and  C14_19
REMARK    7  A    between atoms: C14_19  and  C15_20
REMARK    8  A    between atoms: C16_21  and  C17_22
REMARK    9  A    between atoms: C17_22  and  O2_23
REMARK   10  A    between atoms: N4_31  and  C24_32
ROOT
HETATM    1  C1  UNL     1      20.997 -11.999  17.204  1.00  0.00     0.112 C
HETATM    2  C2  UNL     1      20.964 -12.440  18.602  1.00  0.00    -0.104 C
HETATM    3  C3  UNL     1      20.926 -12.790  19.757  1.00  0.00    -0.049 C
ENDROOT
BRANCH   3   4
HETATM    4  C4  UNL     1      20.875 -13.215  21.135  1.00  0.00     0.089 A
HETATM    5  C5  UNL     1      19.836 -13.919  21.678  1.00  0.00     0.055 A
HETATM    6  C6  UNL     1      20.126 -14.155  23.026  1.00  0.00     0.023 A
HETATM    7  C7  UNL     1      19.397 -14.818  23.994  1.00  0.00    -0.005 A
HETATM    8  C26 UNL     1      21.356 -13.579  23.267  1.00  0.00     0.119 A
HETATM    9  C22 UNL     1      19.959 -14.886  25.252  1.00  0.00     0.031 A
HETATM   10  C23 UNL     1      21.196 -14.302  25.478  1.00  0.00     0.093 A
HETATM   11  N4  UNL     1      21.879 -13.663  24.512  1.00  0.00    -0.343 N
HETATM   12  N5  UNL     1      21.777 -13.023  22.109  1.00  0.00    -0.335 N
ATOM     13  H5  UNL     1      22.660 -12.525  21.992  1.00  0.00     0.168 HD
BRANCH   7  14
HETATM   14  C8  UNL     1      18.104 -15.407  23.679  1.00  0.00     0.103 C
HETATM   15  N1  UNL     1      17.996 -16.246  22.735  1.00  0.00    -0.336 N
HETATM   16  C9  UNL     1      16.805 -16.884  22.333  1.00  0.00     0.223 C
ATOM     17  H1  UNL     1      18.846 -16.480  22.221  1.00  0.00     0.168 HD
HETATM   18  O1  UNL     1      16.630 -18.071  22.756  1.00  0.00    -0.273 OA
BRANCH  16  19
HETATM   19  C10 UNL     1      15.783 -16.246  21.469  1.00  0.00     0.131 C
BRANCH  19  20
HETATM   20  C11 UNL     1      16.369 -15.008  20.837  1.00  0.00     0.247 C
BRANCH  20  21
HETATM   21  N2  UNL     1      15.510 -13.864  20.898  1.00  0.00    -0.062 N
HETATM   22  C12 UNL     1      14.389 -14.047  21.800  1.00  0.00     0.265 C
HETATM   23  C13 UNL     1      13.423 -12.908  21.630  1.00  0.00     0.266 C
HETATM   24  N3  UNL     1      14.022 -11.870  20.826  1.00  0.00    -0.052 N
HETATM   25  C18 UNL     1      14.300 -12.336  19.472  1.00  0.00     0.266 C
HETATM   26  C20 UNL     1      15.286 -11.502  21.406  1.00  0.00     0.266 C
HETATM   27  C19 UNL     1      14.937 -13.682  19.567  1.00  0.00     0.265 C
HETATM   28  C21 UNL     1      16.231 -12.680  21.285  1.00  0.00     0.265 C
BRANCH  24  29
HETATM   29  C14 UNL     1      13.129 -10.737  20.706  1.00  0.00     0.331 C
BRANCH  29  30
HETATM   30  C15 UNL     1      12.845 -10.101  21.984  1.00  0.00    -0.076 C
HETATM   31  C16 UNL     1      12.591  -9.580  23.046  1.00  0.00    -0.079 C
BRANCH  31  32
HETATM   32  C17 UNL     1      12.262  -8.941  24.334  1.00  0.00     0.257 C
BRANCH  32  33
HETATM   33  O2  UNL     1      13.324  -8.155  24.788  1.00  0.00    -0.389 OA
ATOM     34  H2  UNL     1      13.998  -8.693  25.187  1.00  0.00     0.210 HD
ENDBRANCH  32  33
ENDBRANCH  31  32
ENDBRANCH  29  30
ENDBRANCH  24  29
ENDBRANCH  20  21
ENDBRANCH  19  20
ENDBRANCH  16  19
ENDBRANCH   7  14
BRANCH  11  35
HETATM   35  C24 UNL     1      23.184 -13.055  24.783  1.00  0.00     0.125 C
HETATM   36  C25 UNL     1      24.273 -14.097  24.723  1.00  0.00     0.027 C
ENDBRANCH  11  35
ENDBRANCH   3   4
TORSDOF 10
ENDMDL