MODEL 2
REMARK VINA RESULT: -8.140556317      3.693      7.659
REMARK  6 active torsions:
REMARK  status: ('A' for Active; 'I' for Inactive)
REMARK    1  A    between atoms: C2_2  and  N1_3
REMARK    2  A    between atoms: C2_2  and  C20_31
REMARK       I    between atoms: N1_3  and  C3_5
REMARK    3  A    between atoms: C3_5  and  C4_7
REMARK    4  A    between atoms: C4_7  and  C5_8
REMARK    5  A    between atoms: C4_7  and  N3_13
REMARK    6  A    between atoms: C5_8  and  N2_9
REMARK       I    between atoms: N3_13  and  C9_15
REMARK       I    between atoms: C9_15  and  N6_26
REMARK       I    between atoms: N4_16  and  C10_18
REMARK       I    between atoms: C10_18  and  N5_20
REMARK       I    between atoms: C20_31  and  N7_33
ROOT
HETATM    1  N3  UNL     1      15.617 -11.429  18.104  1.00  0.00    -0.211 N
ATOM      2  H3  UNL     1      15.236 -10.714  17.483  1.00  0.00     0.178 HD
HETATM    3  C9  UNL     1      17.005 -11.675  18.066  1.00  0.00     0.680 C
HETATM    4  N4  UNL     1      17.663 -11.454  17.008  1.00  0.00    -0.141 N
ATOM      5  H4  UNL     1      18.666 -11.640  17.006  1.00  0.00     0.189 HD
HETATM    6  C10 UNL     1      17.063 -10.963  15.836  1.00  0.00     0.336 C
HETATM    7  O2  UNL     1      16.660  -9.745  15.751  1.00  0.00    -0.246 OA
HETATM    8  N5  UNL     1      16.878 -11.791  14.701  1.00  0.00    -0.334 N
HETATM    9  C11 UNL     1      16.253 -11.308  13.492  1.00  0.00     0.127 C
HETATM   10  C12 UNL     1      17.111 -11.629  12.283  1.00  0.00     0.020 C
HETATM   11  C13 UNL     1      17.645 -13.040  12.337  1.00  0.00     0.003 C
HETATM   12  C14 UNL     1      18.373 -13.304  13.632  1.00  0.00     0.020 C
HETATM   13  C15 UNL     1      17.336 -13.155  14.749  1.00  0.00     0.127 C
HETATM   14  N6  UNL     1      17.761 -12.160  19.189  1.00  0.00    -0.218 N
HETATM   15  C16 UNL     1      18.028 -11.301  20.348  1.00  0.00     0.141 C
HETATM   16  C17 UNL     1      19.206 -11.918  21.063  1.00  0.00     0.022 C
HETATM   17  C18 UNL     1      19.666 -13.048  20.199  1.00  0.00     0.022 C
HETATM   18  C19 UNL     1      18.376 -13.419  19.453  1.00  0.00     0.141 C
ENDROOT
BRANCH   1  19
HETATM   19  C4  UNL     1      14.700 -12.140  18.981  1.00  0.00     0.217 C
BRANCH  19  20
HETATM   20  C3  UNL     1      14.263 -13.408  18.346  1.00  0.00     0.243 C
HETATM   21  N1  UNL     1      13.494 -14.373  19.032  1.00  0.00    -0.346 N
ATOM     22  H1  UNL     1      13.235 -14.180  19.999  1.00  0.00     0.163 HD
HETATM   23  O1  UNL     1      14.586 -13.631  17.165  1.00  0.00    -0.271 OA
BRANCH  21  24
HETATM   24  C2  UNL     1      13.053 -15.619  18.443  1.00  0.00     0.172 C
HETATM   25  C1  UNL     1      11.534 -15.754  18.551  1.00  0.00     0.042 C
BRANCH  24  26
HETATM   26  C20 UNL     1      13.670 -16.797  19.043  1.00  0.00     0.241 C
HETATM   27  O3  UNL     1      13.339 -17.198  20.186  1.00  0.00    -0.271 OA
HETATM   28  N7  UNL     1      14.670 -17.525  18.345  1.00  0.00    -0.359 N
HETATM   29  C21 UNL     1      15.293 -18.716  18.923  1.00  0.00     0.152 C
HETATM   30  C22 UNL     1      15.131 -17.128  17.029  1.00  0.00     0.152 C
ENDBRANCH  24  26
ENDBRANCH  21  24
ENDBRANCH  19  20
BRANCH  19  31
HETATM   31  C5  UNL     1      13.541 -11.238  19.288  1.00  0.00     0.271 C
BRANCH  31  32
HETATM   32  N2  UNL     1      13.203 -11.040  20.646  1.00  0.00    -0.076 N
HETATM   33  C6  UNL     1      12.556  -9.736  20.867  1.00  0.00     0.271 C
HETATM   34  C7  UNL     1      14.433 -10.988  21.438  1.00  0.00     0.271 C
HETATM   35  C8  UNL     1      12.333 -12.004  21.257  1.00  0.00     0.271 C
ENDBRANCH  31  32
ENDBRANCH  19  31
ENDBRANCH   1  19
TORSDOF 6
ENDMDL