MODEL 3
REMARK VINA RESULT: -8.297299753      1.743      2.608
REMARK  10 active torsions:
REMARK  status: ('A' for Active; 'I' for Inactive)
REMARK    1  A    between atoms: C4_6  and  C5_7
REMARK    2  A    between atoms: C6_8  and  C7_9
REMARK    3  A    between atoms: N2_13  and  C11_14
REMARK    4  A    between atoms: C11_14  and  C12_15
REMARK    5  A    between atoms: C13_16  and  N3_17
REMARK    6  A    between atoms: N7_29  and  C18_30
REMARK    7  A    between atoms: C18_30  and  C19_31
REMARK    8  A    between atoms: C19_31  and  C20_32
REMARK    9  A    between atoms: C20_32  and  C21_33
REMARK   10  A    between atoms: C21_33  and  N8_34
ROOT
HETATM    1  C5  UNL     1      18.393 -13.984  21.546  1.00  0.00    -0.059 C
HETATM    2  C6  UNL     1      18.084 -13.441  20.503  1.00  0.00    -0.060 C
ENDROOT
BRANCH   2   3
HETATM    3  C7  UNL     1      17.696 -12.808  19.274  1.00  0.00     0.033 A
HETATM    4  C8  UNL     1      18.607 -12.500  18.278  1.00  0.00     0.023 A
HETATM    5  C9  UNL     1      18.171 -11.891  17.117  1.00  0.00     0.019 A
HETATM    6  C10 UNL     1      16.840 -11.591  16.949  1.00  0.00     0.091 A
HETATM    7  N2  UNL     1      15.949 -11.887  17.912  1.00  0.00    -0.354 N
HETATM    8  C16 UNL     1      16.374 -12.483  19.049  1.00  0.00     0.112 A
BRANCH   7   9
HETATM    9  C11 UNL     1      14.537 -11.600  17.803  1.00  0.00     0.223 C
BRANCH   9  10
HETATM   10  C12 UNL     1      13.971 -11.249  19.106  1.00  0.00    -0.061 C
HETATM   11  C13 UNL     1      13.521 -10.955  20.194  1.00  0.00     0.037 C
BRANCH  11  12
HETATM   12  N3  UNL     1      13.020 -10.619  21.467  1.00  0.00    -0.193 N
HETATM   13  C14 UNL     1      13.585  -9.737  22.331  1.00  0.00     0.234 A
HETATM   14  N4  UNL     1      12.861  -9.650  23.446  1.00  0.00    -0.184 N
HETATM   15  C15 UNL     1      11.824 -10.485  23.287  1.00  0.00     0.692 A
ATOM     16  H4  UNL     1      13.056  -9.064  24.258  1.00  0.00     0.185 HD
HETATM   17  N5  UNL     1      10.902 -10.656  24.189  1.00  0.00    -0.233 N
HETATM   18  N6  UNL     1      11.936 -11.067  22.077  1.00  0.00    -0.117 N
ATOM     19  H52 UNL     1      10.817 -10.215  25.105  1.00  0.00     0.174 HD
ATOM     20  H51 UNL     1      10.114 -11.291  24.068  1.00  0.00     0.174 HD
ATOM     21  H6  UNL     1      11.285 -11.749  21.690  1.00  0.00     0.207 HD
ENDBRANCH  11  12
ENDBRANCH   9  10
ENDBRANCH   7   9
ENDBRANCH   2   3
BRANCH   1  22
HETATM   22  C4  UNL     1      18.734 -14.630  22.786  1.00  0.00     0.049 A
HETATM   23  C3  UNL     1      18.229 -14.217  24.000  1.00  0.00     0.111 A
HETATM   24  N1  UNL     1      18.559 -14.830  25.143  1.00  0.00    -0.354 N
HETATM   25  C2  UNL     1      19.394 -15.876  25.155  1.00  0.00     0.079 A
ATOM     26  H1  UNL     1      18.165 -14.495  26.022  1.00  0.00     0.166 HD
HETATM   27  C1  UNL     1      19.723 -16.518  26.460  1.00  0.00     0.089 C
HETATM   28  N7  UNL     1      19.905 -16.307  23.997  1.00  0.00    -0.345 N
HETATM   29  C17 UNL     1      19.594 -15.712  22.838  1.00  0.00     0.114 A
BRANCH  28  30
HETATM   30  C18 UNL     1      20.805 -17.422  23.971  1.00  0.00     0.130 C
BRANCH  30  31
HETATM   31  C19 UNL     1      22.217 -17.091  23.625  1.00  0.00     0.022 C
BRANCH  31  32
HETATM   32  C20 UNL     1      23.139 -16.972  24.815  1.00  0.00     0.022 C
BRANCH  32  33
HETATM   33  C21 UNL     1      23.774 -15.597  24.741  1.00  0.00     0.128 C
BRANCH  33  34
HETATM   34  N8  UNL     1      22.952 -14.563  25.282  1.00  0.00    -0.366 N
HETATM   35  C22 UNL     1      22.863 -14.433  26.621  1.00  0.00     0.090 A
HETATM   36  C23 UNL     1      22.080 -13.447  27.192  1.00  0.00     0.017 A
HETATM   37  C24 UNL     1      21.365 -12.568  26.427  1.00  0.00     0.003 A
HETATM   38  C25 UNL     1      21.457 -12.703  25.042  1.00  0.00     0.017 A
HETATM   39  C26 UNL     1      22.247 -13.696  24.528  1.00  0.00     0.090 A
ENDBRANCH  33  34
ENDBRANCH  32  33
ENDBRANCH  31  32
ENDBRANCH  30  31
ENDBRANCH  28  30
ENDBRANCH   1  22
TORSDOF 10
ENDMDL