MODEL 4
REMARK VINA RESULT: -7.372514088      2.623      4.527
REMARK  10 active torsions:
REMARK  status: ('A' for Active; 'I' for Inactive)
REMARK    1  A    between atoms: C3_3  and  C4_4
REMARK    2  A    between atoms: C4_4  and  N1_5
REMARK    3  A    between atoms: N1_5  and  C5_7
REMARK    4  A    between atoms: C9_11  and  C10_12
REMARK       I    between atoms: C10_12  and  N2_14
REMARK    5  A    between atoms: C12_19  and  C13_20
REMARK    6  A    between atoms: C13_20  and  C14_21
REMARK    7  A    between atoms: N5_27  and  C20_28
REMARK    8  A    between atoms: C20_28  and  C21_29
REMARK    9  A    between atoms: C22_30  and  C23_31
REMARK   10  A    between atoms: C23_31  and  N6_32
ROOT
HETATM    1  C1  UNL     1      21.006 -12.751  20.000  1.00  0.00     0.112 C
HETATM    2  C2  UNL     1      19.983 -12.473  18.990  1.00  0.00    -0.105 C
HETATM    3  C3  UNL     1      19.125 -12.262  18.137  1.00  0.00    -0.062 C
ENDROOT
BRANCH   3   4
HETATM    4  C4  UNL     1      18.141 -11.989  17.107  1.00  0.00     0.149 C
BRANCH   4   5
HETATM    5  N1  UNL     1      17.042 -11.257  17.496  1.00  0.00    -0.381 N
ATOM      6  H1  UNL     1      17.127 -10.241  17.470  1.00  0.00     0.160 HD
BRANCH   5   7
HETATM    7  C5  UNL     1      15.826 -11.780  17.923  1.00  0.00     0.060 A
HETATM    8  C6  UNL     1      14.634 -11.559  16.977  1.00  0.00     0.042 A
HETATM    9  C7  UNL     1      15.083 -12.911  17.374  1.00  0.00     0.050 A
HETATM   10  C8  UNL     1      14.476 -13.613  18.558  1.00  0.00     0.212 C
HETATM   11  C9  UNL     1      15.347 -14.824  18.989  1.00  0.00     0.120 C
HETATM   12  N5  UNL     1      14.444 -12.721  19.641  1.00  0.00    -0.044 N
HETATM   13  C12 UNL     1      15.652 -14.661  20.408  1.00  0.00     0.006 C
HETATM   14  C16 UNL     1      15.007 -15.331  21.520  1.00  0.00    -0.005 C
HETATM   15  C19 UNL     1      14.891 -13.400  20.808  1.00  0.00     0.202 C
HETATM   16  C17 UNL     1      14.530 -16.717  21.534  1.00  0.00     0.011 C
HETATM   17  C18 UNL     1      13.900 -14.260  21.523  1.00  0.00     0.039 C
HETATM   18  C26 UNL     1      15.374 -11.636  19.371  1.00  0.00     0.270 C
BRANCH  11  19
HETATM   19  C10 UNL     1      14.750 -16.060  18.486  1.00  0.00     0.230 C
HETATM   20  O1  UNL     1      13.461 -16.024  18.368  1.00  0.00    -0.273 OA
HETATM   21  N2  UNL     1      15.299 -17.244  18.117  1.00  0.00    -0.303 N
HETATM   22  C11 UNL     1      16.125 -18.105  18.376  1.00  0.00     0.203 C
ATOM     23  H2  UNL     1      14.820 -17.540  17.267  1.00  0.00     0.171 HD
HETATM   24  N3  UNL     1      16.214 -19.239  17.483  1.00  0.00    -0.066 NA
HETATM   25  N4  UNL     1      17.020 -18.121  19.468  1.00  0.00    -0.066 NA
ENDBRANCH  11  19
BRANCH  13  26
HETATM   26  C13 UNL     1      17.151 -14.505  20.613  1.00  0.00     0.012 C
BRANCH  26  27
HETATM   27  C14 UNL     1      17.607 -13.522  21.598  1.00  0.00    -0.004 C
HETATM   28  C15 UNL     1      18.476 -14.295  22.621  1.00  0.00     0.005 C
ENDBRANCH  26  27
ENDBRANCH  13  26
BRANCH  12  29
HETATM   29  C20 UNL     1      13.163 -12.127  19.939  1.00  0.00     0.332 C
BRANCH  29  30
HETATM   30  C21 UNL     1      13.166 -11.164  21.016  1.00  0.00    -0.077 C
HETATM   31  C22 UNL     1      13.160 -10.375  21.930  1.00  0.00    -0.075 C
BRANCH  31  32
HETATM   32  C23 UNL     1      13.155  -9.397  23.025  1.00  0.00     0.364 C
BRANCH  32  33
HETATM   33  N6  UNL     1      11.851  -9.301  23.656  1.00  0.00     0.090 N
HETATM   34  C24 UNL     1      11.674 -10.533  24.421  1.00  0.00     0.310 C
HETATM   35  C25 UNL     1      11.970  -8.230  24.656  1.00  0.00     0.310 C
ENDBRANCH  32  33
ENDBRANCH  31  32
ENDBRANCH  29  30
ENDBRANCH  12  29
ENDBRANCH   5   7
ENDBRANCH   4   5
ENDBRANCH   3   4
TORSDOF 10
ENDMDL