MODEL 4
REMARK VINA RESULT: -7.901986077      2.701      4.914
REMARK  7 active torsions:
REMARK  status: ('A' for Active; 'I' for Inactive)
REMARK    1  A    between atoms: C2_2  and  C4_4
REMARK    2  A    between atoms: C2_2  and  N6_24
REMARK    3  A    between atoms: C4_4  and  N1_5
REMARK    4  A    between atoms: N1_5  and  C7_8
REMARK    5  A    between atoms: C7_8  and  C8_9
REMARK       I    between atoms: C8_9  and  N2_11
REMARK    6  A    between atoms: N2_11  and  C9_13
REMARK       I    between atoms: N6_24  and  C15_26
REMARK       I    between atoms: C15_26  and  N9_31
REMARK    7  A    between atoms: N9_31  and  C17_33
ROOT
HETATM    1  N6  UNL     1      20.444 -14.197  21.404  1.00  0.00    -0.216 N
ATOM      2  H6  UNL     1      20.367 -14.932  20.701  1.00  0.00     0.178 HD
HETATM    3  C15 UNL     1      20.882 -14.595  22.676  1.00  0.00     0.684 C
HETATM    4  N7  UNL     1      20.129 -15.343  23.395  1.00  0.00    -0.126 N
ATOM      5  H7  UNL     1      20.501 -15.598  24.310  1.00  0.00     0.197 HD
HETATM    6  C16 UNL     1      18.889 -15.844  23.095  1.00  0.00     0.196 C
HETATM    7  N8  UNL     1      17.847 -16.256  22.823  1.00  0.00    -0.171 NA
HETATM    8  N9  UNL     1      22.129 -14.238  23.212  1.00  0.00    -0.217 N
ATOM      9  H9  UNL     1      22.940 -14.367  22.606  1.00  0.00     0.178 HD
ENDROOT
BRANCH   1  10
HETATM   10  C2  UNL     1      20.088 -12.854  20.975  1.00  0.00     0.064 C
HETATM   11  C1  UNL     1      21.328 -12.117  20.620  1.00  0.00     0.040 C
HETATM   12  C3  UNL     1      19.373 -12.230  22.169  1.00  0.00     0.040 C
BRANCH  10  13
HETATM   13  C4  UNL     1      19.187 -12.991  19.793  1.00  0.00     0.267 C
BRANCH  13  14
HETATM   14  N1  UNL     1      17.826 -12.817  19.852  1.00  0.00    -0.064 N
HETATM   15  C5  UNL     1      17.243 -12.816  18.487  1.00  0.00     0.272 C
HETATM   16  C6  UNL     1      16.962 -13.658  20.611  1.00  0.00     0.272 C
BRANCH  14  17
HETATM   17  C7  UNL     1      17.519 -11.459  20.349  1.00  0.00     0.339 C
BRANCH  17  18
HETATM   18  C8  UNL     1      16.199 -10.978  19.957  1.00  0.00     0.262 C
HETATM   19  O1  UNL     1      15.761 -11.006  18.781  1.00  0.00    -0.271 OA
HETATM   20  N2  UNL     1      15.380 -10.451  20.995  1.00  0.00    -0.157 N
ATOM     21  H2  UNL     1      15.601  -9.533  21.381  1.00  0.00     0.187 HD
BRANCH  20  22
HETATM   22  C9  UNL     1      14.365 -11.101  21.462  1.00  0.00     0.703 A
HETATM   23  N3  UNL     1      14.124 -12.391  21.172  1.00  0.00    -0.130 N
HETATM   24  N4  UNL     1      13.025 -12.761  21.795  1.00  0.00    -0.274 N
ATOM     25  H3  UNL     1      14.696 -12.985  20.571  1.00  0.00     0.205 HD
HETATM   26  C10 UNL     1      12.573 -11.710  22.476  1.00  0.00     0.115 A
ATOM     27  H4  UNL     1      12.598 -13.686  21.762  1.00  0.00     0.189 HD
HETATM   28  N5  UNL     1      13.393 -10.672  22.280  1.00  0.00    -0.169 N
HETATM   29  C14 UNL     1      11.362 -11.568  23.356  1.00  0.00     0.079 C
HETATM   30  C11 UNL     1      13.214  -9.364  22.864  1.00  0.00     0.149 C
HETATM   31  C12 UNL     1      12.120  -9.316  23.877  1.00  0.00     0.021 C
HETATM   32  C13 UNL     1      11.777 -10.644  24.483  1.00  0.00     0.009 C
ENDBRANCH  20  22
ENDBRANCH  17  18
ENDBRANCH  14  17
ENDBRANCH  13  14
ENDBRANCH  10  13
ENDBRANCH   1  10
BRANCH   8  33
HETATM   33  C17 UNL     1      22.386 -13.711  24.524  1.00  0.00     0.043 C
HETATM   34  C18 UNL     1      23.720 -13.083  24.715  1.00  0.00     0.039 C
HETATM   35  C19 UNL     1      22.235 -14.807  25.547  1.00  0.00     0.031 C
HETATM   36  C20 UNL     1      21.854 -14.117  26.825  1.00  0.00     0.002 C
HETATM   37  C21 UNL     1      21.555 -12.679  26.462  1.00  0.00     0.002 C
HETATM   38  C22 UNL     1      21.314 -12.736  24.968  1.00  0.00     0.031 C
ENDBRANCH   8  33
TORSDOF 7
ENDMDL