MODEL 5
REMARK VINA RESULT: -7.489637791      2.212      7.917
REMARK  10 active torsions:
REMARK  status: ('A' for Active; 'I' for Inactive)
REMARK    1  A    between atoms: N1_2  and  C2_3
REMARK    2  A    between atoms: C2_3  and  C3_4
REMARK    3  A    between atoms: C5_6  and  N2_7
REMARK       I    between atoms: N2_7  and  C6_9
REMARK    4  A    between atoms: C11_16  and  O2_17
REMARK    5  A    between atoms: C11_16  and  C12_19
REMARK    6  A    between atoms: C12_19  and  C13_20
REMARK    7  A    between atoms: C14_21  and  C15_22
REMARK    8  A    between atoms: C15_22  and  C16_23
REMARK    9  A    between atoms: C16_23  and  C17_24
REMARK   10  A    between atoms: C17_24  and  N4_25
ROOT
HETATM    1  C3  UNL     1      20.157 -13.176  23.050  1.00  0.00     0.009 C
HETATM    2  C4  UNL     1      19.954 -14.099  23.948  1.00  0.00    -0.017 C
HETATM    3  C5  UNL     1      21.118 -14.229  24.889  1.00  0.00     0.141 C
HETATM    4  C7  UNL     1      21.198 -15.473  25.630  1.00  0.00     0.003 C
HETATM    5  C8  UNL     1      20.261 -16.186  26.228  1.00  0.00    -0.002 C
HETATM    6  C9  UNL     1      18.840 -15.844  26.268  1.00  0.00    -0.001 C
HETATM    7  C10 UNL     1      18.203 -15.247  25.280  1.00  0.00     0.016 C
HETATM    8  C11 UNL     1      18.650 -14.767  23.932  1.00  0.00     0.111 C
ENDROOT
BRANCH   8   9
HETATM    9  O2  UNL     1      17.641 -13.890  23.533  1.00  0.00    -0.380 OA
ATOM     10  H2  UNL     1      16.788 -14.201  23.812  1.00  0.00     0.211 HD
ENDBRANCH   8   9
BRANCH   8  11
HETATM   11  C12 UNL     1      18.676 -15.922  22.961  1.00  0.00     0.141 C
BRANCH  11  12
HETATM   12  C13 UNL     1      17.682 -15.688  21.874  1.00  0.00    -0.103 C
HETATM   13  C14 UNL     1      16.892 -15.514  20.986  1.00  0.00    -0.106 C
BRANCH  13  14
HETATM   14  C15 UNL     1      15.944 -15.297  19.882  1.00  0.00     0.095 C
BRANCH  14  15
HETATM   15  C16 UNL     1      16.007 -13.856  19.426  1.00  0.00     0.040 C
BRANCH  15  16
HETATM   16  C17 UNL     1      14.617 -13.310  19.147  1.00  0.00     0.238 C
BRANCH  16  17
HETATM   17  N4  UNL     1      14.249 -12.321  20.112  1.00  0.00    -0.062 N
HETATM   18  C18 UNL     1      13.210 -12.916  20.965  1.00  0.00     0.265 C
HETATM   19  C19 UNL     1      13.062 -12.003  22.162  1.00  0.00     0.265 C
HETATM   20  N5  UNL     1      13.420 -10.642  21.771  1.00  0.00    -0.066 N
HETATM   21  C20 UNL     1      12.976  -9.733  22.790  1.00  0.00     0.272 C
HETATM   22  C21 UNL     1      12.840 -10.370  20.471  1.00  0.00     0.265 C
HETATM   23  C23 UNL     1      14.859 -10.591  21.628  1.00  0.00     0.265 C
HETATM   24  C22 UNL     1      13.617 -11.198  19.447  1.00  0.00     0.265 C
HETATM   25  C24 UNL     1      15.307 -11.904  20.981  1.00  0.00     0.265 C
ENDBRANCH  16  17
ENDBRANCH  15  16
ENDBRANCH  14  15
ENDBRANCH  13  14
ENDBRANCH  11  12
ENDBRANCH   8  11
BRANCH   1  26
HETATM   26  C2  UNL     1      19.394 -12.654  21.926  1.00  0.00     0.265 C
BRANCH  26  27
HETATM   27  N1  UNL     1      20.271 -12.705  20.727  1.00  0.00    -0.065 N
HETATM   28  C1  UNL     1      21.327 -11.761  20.579  1.00  0.00     0.273 C
HETATM   29  C25 UNL     1      20.625 -14.050  20.275  1.00  0.00     0.265 A
HETATM   30  C26 UNL     1      19.593 -13.232  19.557  1.00  0.00     0.265 A
ENDBRANCH  26  27
ENDBRANCH   1  26
BRANCH   3  31
HETATM   31  N2  UNL     1      22.337 -14.114  24.109  1.00  0.00    -0.334 N
HETATM   32  C6  UNL     1      23.494 -13.452  24.610  1.00  0.00     0.329 C
HETATM   33  N3  UNL     1      24.672 -13.349  23.839  1.00  0.00    -0.040 NA
HETATM   34  O1  UNL     1      23.453 -12.962  25.752  1.00  0.00    -0.251 OA
ATOM     35  H2  UNL     1      22.364 -14.518  23.173  1.00  0.00     0.164 HD
ENDBRANCH   3  31
TORSDOF 10
ENDMDL