MODEL 1
REMARK VINA RESULT: -9.405090622      0.000      0.000
REMARK  1 active torsions:
REMARK  status: ('A' for Active; 'I' for Inactive)
REMARK    1  A    between atoms: C12_20  and  C13_21
ROOT
HETATM    1  N1  UNL     1     -25.019  34.570  -8.686  1.00  0.00    -0.190 NA
HETATM    2  C1  UNL     1     -23.894  34.692  -8.467  1.00  0.00     0.118 C
HETATM    3  C2  UNL     1     -22.505  34.854  -8.185  1.00  0.00     0.125 A
HETATM    4  N2  UNL     1     -21.827  34.041  -7.360  1.00  0.00    -0.345 N
ATOM      5  H2  UNL     1     -22.325  33.272  -6.913  1.00  0.00     0.167 HD
HETATM    6  C3  UNL     1     -20.530  34.199  -7.100  1.00  0.00     0.061 A
HETATM    7  C4  UNL     1     -19.862  35.245  -7.715  1.00  0.00     0.068 A
HETATM    8  C5  UNL     1     -20.498  36.119  -8.571  1.00  0.00     0.006 A
HETATM    9  C6  UNL     1     -19.836  37.162  -9.171  1.00  0.00     0.014 A
HETATM   10  C7  UNL     1     -20.556  37.995 -10.015  1.00  0.00     0.001 A
HETATM   11  C8  UNL     1     -21.897  37.800 -10.257  1.00  0.00     0.001 A
HETATM   12  C9  UNL     1     -22.539  36.762  -9.654  1.00  0.00     0.015 A
HETATM   13  C10 UNL     1     -21.855  35.909  -8.805  1.00  0.00     0.014 A
HETATM   14  N3  UNL     1     -18.457  35.367  -7.529  1.00  0.00    -0.364 N
ATOM     15  H3  UNL     1     -17.921  35.912  -8.205  1.00  0.00     0.161 HD
HETATM   16  C11 UNL     1     -17.775  34.766  -6.451  1.00  0.00     0.233 C
HETATM   17  N4  UNL     1     -16.576  34.012  -6.755  1.00  0.00    -0.110 NA
HETATM   18  N5  UNL     1     -16.372  33.207  -5.598  1.00  0.00    -0.300 N
ATOM     19  H5  UNL     1     -15.472  32.850  -5.278  1.00  0.00     0.182 HD
HETATM   20  C12 UNL     1     -17.533  32.996  -5.006  1.00  0.00     0.067 C
HETATM   21  C19 UNL     1     -18.551  33.628  -5.840  1.00  0.00     0.013 C
HETATM   22  C20 UNL     1     -19.801  33.386  -6.140  1.00  0.00     0.045 C
ENDROOT
BRANCH  20  23
HETATM   23  C13 UNL     1     -17.743  32.224  -3.797  1.00  0.00     0.031 A
HETATM   24  C14 UNL     1     -17.304  30.955  -3.561  1.00  0.00     0.017 A
HETATM   25  C15 UNL     1     -17.566  30.253  -2.384  1.00  0.00     0.001 A
HETATM   26  C16 UNL     1     -18.309  30.868  -1.405  1.00  0.00     0.003 A
HETATM   27  C17 UNL     1     -18.777  32.150  -1.597  1.00  0.00     0.043 A
HETATM   28  C18 UNL     1     -18.494  32.804  -2.772  1.00  0.00     0.129 A
HETATM   29  F1  UNL     1     -18.967  34.070  -2.937  1.00  0.00    -0.205 F
ENDBRANCH  20  23
TORSDOF 1
ENDMDL