MODEL 2
REMARK VINA RESULT: -7.011033715      2.076      3.218
REMARK  1 active torsions:
REMARK  status: ('A' for Active; 'I' for Inactive)
REMARK    1  A    between atoms: C7_11  and  N2_12
ROOT
HETATM    1  C1  UNL     1     -25.344  35.564  -3.399  1.00  0.00     0.050 C
HETATM    2  C2  UNL     1     -23.981  35.008  -3.106  1.00  0.00    -0.038 A
HETATM    3  C3  UNL     1     -23.758  34.618  -1.816  1.00  0.00     0.018 A
HETATM    4 BR1  UNL     1     -25.078  34.762  -0.463  1.00  0.00    -0.051 Br
HETATM    5  C4  UNL     1     -22.530  34.106  -1.500  1.00  0.00     0.039 A
HETATM    6  C5  UNL     1     -21.576  34.004  -2.486  1.00  0.00     0.023 A
HETATM    7  S1  UNL     1     -20.015  33.370  -2.160  1.00  0.00    -0.051 SA
HETATM    8  C6  UNL     1     -19.007  33.342  -3.524  1.00  0.00     0.187 A
HETATM    9  N1  UNL     1     -17.729  32.953  -3.794  1.00  0.00    -0.167 N
ATOM     10  H1  UNL     1     -17.069  32.557  -3.126  1.00  0.00     0.186 HD
HETATM   11  C7  UNL     1     -17.495  33.181  -5.087  1.00  0.00     0.693 A
HETATM   12  N3  UNL     1     -18.613  33.701  -5.597  1.00  0.00    -0.122 N
ATOM     13  H3  UNL     1     -18.733  33.978  -6.570  1.00  0.00     0.206 HD
HETATM   14  N4  UNL     1     -19.562  33.809  -4.645  1.00  0.00    -0.207 N
HETATM   15  C8  UNL     1     -20.821  34.287  -4.773  1.00  0.00     0.138 A
HETATM   16  S2  UNL     1     -21.202  34.794  -6.309  1.00  0.00    -0.057 SA
HETATM   17  C9  UNL     1     -21.773  34.396  -3.818  1.00  0.00     0.028 A
HETATM   18  C10 UNL     1     -23.035  34.923  -4.149  1.00  0.00    -0.040 A
HETATM   19  C11 UNL     1     -23.404  35.376  -5.485  1.00  0.00     0.050 C
ENDROOT
BRANCH  11  20
HETATM   20  N2  UNL     1     -16.384  32.944  -5.742  1.00  0.00    -0.233 N
ATOM     21  H22 UNL     1     -15.461  32.806  -5.331  1.00  0.00     0.174 HD
ATOM     22  H21 UNL     1     -16.272  32.862  -6.753  1.00  0.00     0.174 HD
ENDBRANCH  11  20
TORSDOF 1
ENDMDL