MODEL 2
REMARK VINA RESULT: -7.356916252      2.502      4.912
REMARK  1 active torsions:
REMARK  status: ('A' for Active; 'I' for Inactive)
REMARK    1  A    between atoms: C2_2  and  N1_5
REMARK       I    between atoms: N1_5  and  C5_7
REMARK       I    between atoms: C5_7  and  N3_11
ROOT
HETATM    1  N1  UNL     1     -23.928  34.628  -2.415  1.00  0.00    -0.218 N
ATOM      2  H1  UNL     1     -23.742  35.571  -2.754  1.00  0.00     0.178 HD
HETATM    3  C5  UNL     1     -23.358  33.639  -3.236  1.00  0.00     0.680 C
HETATM    4  N2  UNL     1     -23.829  32.511  -3.115  1.00  0.00    -0.234 N
ATOM      5  H21 UNL     1     -23.416  31.793  -3.710  1.00  0.00     0.174 HD
ATOM      6  H22 UNL     1     -24.623  32.303  -2.509  1.00  0.00     0.174 HD
HETATM    7  N3  UNL     1     -22.250  33.928  -4.082  1.00  0.00    -0.141 N
HETATM    8  C6  UNL     1     -20.923  33.749  -3.487  1.00  0.00     0.074 A
HETATM    9  C7  UNL     1     -20.930  33.245  -2.185  1.00  0.00     0.032 A
HETATM   10  C8  UNL     1     -19.714  33.023  -1.552  1.00  0.00     0.002 A
HETATM   11  C9  UNL     1     -18.512  33.285  -2.169  1.00  0.00     0.002 A
HETATM   12  C10 UNL     1     -18.538  33.783  -3.456  1.00  0.00     0.021 A
HETATM   13  C11 UNL     1     -19.744  34.000  -4.075  1.00  0.00     0.035 A
HETATM   14  S1  UNL     1     -19.676  34.641  -5.713  1.00  0.00    -0.068 SA
HETATM   15  C12 UNL     1     -21.373  34.746  -6.246  1.00  0.00     0.107 A
HETATM   16  N4  UNL     1     -21.629  35.166  -7.484  1.00  0.00    -0.345 N
ATOM     17  H4  UNL     1     -20.836  35.408  -8.078  1.00  0.00     0.167 HD
HETATM   18  C13 UNL     1     -22.843  35.291  -7.997  1.00  0.00     0.182 A
HETATM   19  N5  UNL     1     -23.886  34.979  -7.240  1.00  0.00    -0.341 N
ATOM     20  H5  UNL     1     -24.829  35.069  -7.617  1.00  0.00     0.167 HD
HETATM   21  C14 UNL     1     -23.711  34.543  -5.970  1.00  0.00     0.135 A
HETATM   22 CL1  UNL     1     -25.161  34.132  -5.073  1.00  0.00    -0.062 Cl
HETATM   23  C15 UNL     1     -22.457  34.406  -5.410  1.00  0.00     0.129 A
ENDROOT
BRANCH   1  24
HETATM   24  C2  UNL     1     -24.693  34.623  -1.239  1.00  0.00     0.036 C
HETATM   25  C1  UNL     1     -25.995  35.393  -1.248  1.00  0.00     0.038 C
HETATM   26  C3  UNL     1     -25.047  33.299  -0.604  1.00  0.00     0.038 C
HETATM   27  C4  UNL     1     -23.868  35.323  -0.122  1.00  0.00     0.038 C
ENDBRANCH   1  24
TORSDOF 1
ENDMDL