MODEL 1
REMARK VINA RESULT: -7.872834933      0.000      0.000
REMARK  3 active torsions:
REMARK  status: ('A' for Active; 'I' for Inactive)
REMARK    1  A    between atoms: C8_10  and  O1_11
REMARK    2  A    between atoms: C8_10  and  C9_13
REMARK    3  A    between atoms: C10_14  and  C11_15
ROOT
HETATM    1  N1  UNL     1     -16.892  33.599  -6.081  1.00  0.00    -0.191 NA
HETATM    2  C1  UNL     1     -17.670  33.598  -5.192  1.00  0.00     0.100 C
HETATM    3  C2  UNL     1     -18.594  33.618  -4.100  1.00  0.00     0.058 A
HETATM    4  C3  UNL     1     -18.247  33.996  -2.830  1.00  0.00     0.026 A
HETATM    5  C4  UNL     1     -19.135  34.025  -1.778  1.00  0.00     0.047 A
HETATM    6  C5  UNL     1     -20.433  33.652  -2.032  1.00  0.00     0.150 A
HETATM    7  F1  UNL     1     -21.363  33.661  -1.026  1.00  0.00    -0.203 F
HETATM    8  C6  UNL     1     -20.849  33.254  -3.318  1.00  0.00     0.128 A
HETATM    9  C7  UNL     1     -19.927  33.239  -4.342  1.00  0.00     0.048 A
HETATM   10  C8  UNL     1     -20.342  32.833  -5.669  1.00  0.00     0.176 C
HETATM   11  C17 UNL     1     -21.586  31.991  -5.765  1.00  0.00     0.219 C
HETATM   12  C18 UNL     1     -22.136  31.928  -7.097  1.00  0.00     0.076 C
HETATM   13  N2  UNL     1     -22.577  31.863  -8.163  1.00  0.00    -0.196 NA
HETATM   14  C19 UNL     1     -22.590  32.496  -4.767  1.00  0.00     0.140 C
HETATM   15  N3  UNL     1     -23.817  32.541  -5.142  1.00  0.00    -0.382 N
ATOM     16  H31 UNL     1     -24.499  32.884  -4.464  1.00  0.00     0.158 HD
ATOM     17  H32 UNL     1     -24.120  32.252  -6.071  1.00  0.00     0.158 HD
HETATM   18  O2  UNL     1     -22.178  32.889  -3.504  1.00  0.00    -0.293 OA
ENDROOT
BRANCH  10  19
HETATM   19  O1  UNL     1     -19.338  31.907  -6.098  1.00  0.00    -0.371 OA
ATOM     20  H1  UNL     1     -19.390  31.188  -5.480  1.00  0.00     0.212 HD
ENDBRANCH  10  19
BRANCH  10  21
HETATM   21  C9  UNL     1     -20.329  33.934  -6.621  1.00  0.00    -0.056 C
HETATM   22  C10 UNL     1     -20.334  34.845  -7.426  1.00  0.00    -0.064 C
BRANCH  22  23
HETATM   23  C11 UNL     1     -20.335  35.898  -8.383  1.00  0.00     0.017 A
HETATM   24  C12 UNL     1     -21.106  35.778  -9.520  1.00  0.00     0.020 A
HETATM   25  C13 UNL     1     -21.146  36.773 -10.486  1.00  0.00     0.001 A
HETATM   26  C14 UNL     1     -20.405  37.923 -10.332  1.00  0.00     0.000 A
HETATM   27  C15 UNL     1     -19.634  38.062  -9.212  1.00  0.00     0.001 A
HETATM   28  C16 UNL     1     -19.598  37.058  -8.242  1.00  0.00     0.020 A
ENDBRANCH  22  23
ENDBRANCH  10  21
TORSDOF 3
ENDMDL