MODEL 1
REMARK VINA RESULT: -7.784635959      0.000      0.000
REMARK  2 active torsions:
REMARK  status: ('A' for Active; 'I' for Inactive)
REMARK    1  A    between atoms: C13_16  and  C14_17
REMARK    2  A    between atoms: C14_17  and  N1_18
ROOT
HETATM    1  C1  UNL     1     -22.671  35.982  -2.414  1.00  0.00     0.051 C
HETATM    2  C2  UNL     1     -23.508  34.763  -2.065  1.00  0.00     0.087 C
HETATM    3  C3  UNL     1     -23.976  34.810  -0.630  1.00  0.00     0.045 C
HETATM    4  C4  UNL     1     -25.404  34.378  -0.559  1.00  0.00     0.041 C
HETATM    5  C5  UNL     1     -26.319  35.307  -1.320  1.00  0.00     0.174 C
HETATM    6  F1  UNL     1     -27.607  34.826  -1.180  1.00  0.00    -0.249 F
HETATM    7  C6  UNL     1     -25.918  35.438  -2.767  1.00  0.00     0.074 C
HETATM    8  C7  UNL     1     -24.622  34.683  -3.025  1.00  0.00    -0.039 C
HETATM    9  C8  UNL     1     -24.245  33.895  -4.021  1.00  0.00     0.082 C
HETATM   10  C9  UNL     1     -22.858  33.449  -3.710  1.00  0.00     0.336 C
HETATM   11  O1  UNL     1     -22.773  32.103  -4.063  1.00  0.00    -0.164 OA
HETATM   12  O2  UNL     1     -22.359  32.210  -5.328  1.00  0.00    -0.195 OA
HETATM   13  C10 UNL     1     -21.254  33.072  -5.131  1.00  0.00     0.204 C
HETATM   14  C11 UNL     1     -20.788  33.539  -6.461  1.00  0.00     0.072 C
HETATM   15  C12 UNL     1     -19.462  34.215  -6.354  1.00  0.00     0.012 C
HETATM   16  C13 UNL     1     -18.455  33.203  -5.814  1.00  0.00     0.019 C
HETATM   17  C15 UNL     1     -18.854  32.752  -4.445  1.00  0.00    -0.037 C
HETATM   18  C16 UNL     1     -18.588  33.843  -3.404  1.00  0.00     0.015 C
HETATM   19  C17 UNL     1     -17.976  31.560  -4.063  1.00  0.00     0.015 C
HETATM   20  C18 UNL     1     -20.267  32.339  -4.316  1.00  0.00     0.081 C
HETATM   21  O3  UNL     1     -21.892  34.113  -4.420  1.00  0.00    -0.288 OA
HETATM   22  O4  UNL     1     -22.753  33.629  -2.324  1.00  0.00    -0.312 OA
ENDROOT
BRANCH  16  23
HETATM   23  C14 UNL     1     -17.120  33.908  -5.789  1.00  0.00     0.234 C
BRANCH  23  24
HETATM   24  N1  UNL     1     -16.951  34.870  -6.826  1.00  0.00    -0.079 N
ATOM     25  H13 UNL     1     -15.963  34.979  -7.055  1.00  0.00     0.274 HD
ATOM     26  H12 UNL     1     -17.294  34.503  -7.714  1.00  0.00     0.274 HD
ATOM     27  H11 UNL     1     -17.375  35.775  -6.625  1.00  0.00     0.274 HD
ENDBRANCH  23  24
ENDBRANCH  16  23
TORSDOF 2
ENDMDL