MODEL 2
REMARK VINA RESULT: -6.985264025      3.098      6.186
REMARK  2 active torsions:
REMARK  status: ('A' for Active; 'I' for Inactive)
REMARK    1  A    between atoms: C7_12  and  C8_13
REMARK    2  A    between atoms: C14_21  and  N4_22
ROOT
HETATM    1  C1  UNL     1     -25.143  32.530  -6.189  1.00  0.00     0.158 C
HETATM    2  N1  UNL     1     -24.141  32.578  -5.188  1.00  0.00    -0.335 N
HETATM    3  C2  UNL     1     -22.917  33.241  -5.617  1.00  0.00     0.069 A
HETATM    4  C3  UNL     1     -22.827  33.230  -6.992  1.00  0.00     0.099 A
HETATM    5  S1  UNL     1     -21.371  34.021  -7.325  1.00  0.00    -0.024 SA
HETATM    6  N2  UNL     1     -20.905  34.348  -5.755  1.00  0.00    -0.326 N
ATOM      7  H2  UNL     1     -20.059  34.831  -5.450  1.00  0.00     0.174 HD
HETATM    8  C4  UNL     1     -21.858  33.854  -4.993  1.00  0.00     0.072 A
HETATM    9  C5  UNL     1     -21.501  34.124  -3.495  1.00  0.00     0.201 C
HETATM   10 CL1  UNL     1     -21.255  35.888  -3.439  1.00  0.00    -0.106 Cl
HETATM   11  C6  UNL     1     -22.526  33.558  -2.795  1.00  0.00    -0.146 C
HETATM   12  C7  UNL     1     -23.481  33.161  -1.827  1.00  0.00     0.099 C
HETATM   13  C12 UNL     1     -24.320  32.145  -2.611  1.00  0.00     0.018 A
HETATM   14  C13 UNL     1     -24.887  31.301  -1.708  1.00  0.00     0.118 A
HETATM   15  N3  UNL     1     -25.694  30.297  -2.133  1.00  0.00    -0.201 N
ATOM     16  H3  UNL     1     -26.119  29.665  -1.455  1.00  0.00     0.183 HD
HETATM   17  C14 UNL     1     -25.938  30.131  -3.455  1.00  0.00     0.677 A
HETATM   18  N5  UNL     1     -25.391  30.945  -4.367  1.00  0.00    -0.176 N
ATOM     19  H5  UNL     1     -25.584  30.807  -5.359  1.00  0.00     0.186 HD
HETATM   20  C15 UNL     1     -24.589  31.944  -3.966  1.00  0.00     0.132 A
ENDROOT
BRANCH  12  21
HETATM   21  C8  UNL     1     -24.366  34.267  -1.283  1.00  0.00    -0.034 C
HETATM   22  C9  UNL     1     -25.457  33.822  -0.360  1.00  0.00     0.016 C
HETATM   23  C10 UNL     1     -23.478  35.231  -0.522  1.00  0.00     0.016 C
HETATM   24  C11 UNL     1     -25.018  35.075  -2.379  1.00  0.00     0.016 C
ENDBRANCH  12  21
BRANCH  17  25
HETATM   25  N4  UNL     1     -26.724  29.144  -3.772  1.00  0.00    -0.234 N
ATOM     26  H42 UNL     1     -27.492  28.834  -3.176  1.00  0.00     0.174 HD
ATOM     27  H41 UNL     1     -26.533  28.686  -4.664  1.00  0.00     0.174 HD
ENDBRANCH  17  25
TORSDOF 2
ENDMDL