MODEL 2
REMARK VINA RESULT: -7.500076516      3.144      5.395
REMARK  1 active torsions:
REMARK  status: ('A' for Active; 'I' for Inactive)
REMARK    1  A    between atoms: C4_6  and  N2_7
ROOT
HETATM    1  N2  UNL     1     -25.740  30.271  -2.727  1.00  0.00    -0.284 N
ATOM      2  H2  UNL     1     -25.765  30.479  -1.729  1.00  0.00     0.176 HD
HETATM    3  C5  UNL     1     -26.115  28.997  -3.158  1.00  0.00     0.180 C
HETATM    4  N3  UNL     1     -26.419  27.929  -3.529  1.00  0.00    -0.172 NA
ENDROOT
BRANCH   1   5
HETATM    5  C4  UNL     1     -25.319  31.306  -3.645  1.00  0.00     0.337 C
HETATM    6  N1  UNL     1     -24.625  30.668  -4.727  1.00  0.00    -0.363 N
HETATM    7  C2  UNL     1     -24.087  31.554  -5.709  1.00  0.00     0.074 C
ATOM      8  H1  UNL     1     -24.522  29.655  -4.790  1.00  0.00     0.159 HD
HETATM    9  C1  UNL     1     -24.984  31.446  -6.948  1.00  0.00     0.050 C
HETATM   10  C3  UNL     1     -22.712  31.043  -6.094  1.00  0.00     0.050 C
HETATM   11  S1  UNL     1     -23.995  33.264  -5.214  1.00  0.00    -0.093 SA
HETATM   12  C6  UNL     1     -24.429  33.441  -3.498  1.00  0.00     0.176 C
HETATM   13  O1  UNL     1     -24.517  32.182  -2.924  1.00  0.00    -0.319 OA
HETATM   14  C7  UNL     1     -25.666  34.253  -3.278  1.00  0.00     0.025 A
HETATM   15  C13 UNL     1     -23.419  34.237  -2.696  1.00  0.00     0.106 C
HETATM   16  C8  UNL     1     -26.829  34.433  -4.001  1.00  0.00     0.038 A
HETATM   17  C12 UNL     1     -25.456  34.894  -2.076  1.00  0.00     0.080 A
HETATM   18  C9  UNL     1     -27.820  35.264  -3.539  1.00  0.00     0.034 A
HETATM   19 CL1  UNL     1     -29.276  35.460  -4.491  1.00  0.00    -0.084 Cl
HETATM   20  C10 UNL     1     -27.622  35.906  -2.344  1.00  0.00     0.026 A
HETATM   21  C11 UNL     1     -26.466  35.733  -1.616  1.00  0.00     0.039 A
HETATM   22  O2  UNL     1     -24.218  34.552  -1.545  1.00  0.00    -0.336 OA
HETATM   23  C14 UNL     1     -22.225  33.421  -2.312  1.00  0.00     0.051 C
HETATM   24  C15 UNL     1     -23.073  35.548  -3.341  1.00  0.00     0.051 C
ENDBRANCH   1   5
TORSDOF 1
ENDMDL