MODEL 1
REMARK VINA RESULT: -7.059020003      0.000      0.000
REMARK  0 active torsions:
REMARK  status: ('A' for Active; 'I' for Inactive)
REMARK       I    between atoms: C2_4  and  N2_5
REMARK       I    between atoms: C2_4  and  N6_24
ROOT
HETATM    1  C1  UNL     1     -18.598  33.365  -2.925  1.00  0.00     0.165 C
HETATM    2  N1  UNL     1     -19.802  32.684  -3.278  1.00  0.00    -0.230 N
ATOM      3  H1  UNL     1     -20.162  31.963  -2.653  1.00  0.00     0.177 HD
HETATM    4  C2  UNL     1     -20.460  32.955  -4.382  1.00  0.00     0.676 C
HETATM    5  N2  UNL     1     -21.601  32.368  -4.799  1.00  0.00    -0.175 N
ATOM      6  H2  UNL     1     -21.382  31.824  -5.634  1.00  0.00     0.186 HD
HETATM    7  C3  UNL     1     -22.808  32.230  -4.569  1.00  0.00     0.142 C
HETATM    8  N3  UNL     1     -23.561  31.392  -5.473  1.00  0.00    -0.339 N
ATOM      9  H3  UNL     1     -23.012  30.748  -6.043  1.00  0.00     0.167 HD
HETATM   10  C4  UNL     1     -25.003  31.349  -5.674  1.00  0.00     0.067 A
HETATM   11  C5  UNL     1     -25.475  30.926  -6.903  1.00  0.00     0.081 A
HETATM   12  S1  UNL     1     -27.158  30.997  -6.738  1.00  0.00    -0.109 SA
HETATM   13  C6  UNL     1     -27.255  31.553  -5.140  1.00  0.00     0.081 A
HETATM   14  C7  UNL     1     -25.937  31.678  -4.749  1.00  0.00     0.067 A
HETATM   15  N4  UNL     1     -25.706  32.150  -3.386  1.00  0.00    -0.339 N
ATOM     16  H4  UNL     1     -26.430  31.900  -2.711  1.00  0.00     0.167 HD
HETATM   17  C8  UNL     1     -24.603  32.920  -2.850  1.00  0.00     0.128 A
HETATM   18  N5  UNL     1     -24.793  33.656  -1.785  1.00  0.00    -0.326 N
ATOM     19  H5  UNL     1     -25.712  33.678  -1.342  1.00  0.00     0.169 HD
HETATM   20  C9  UNL     1     -23.806  34.368  -1.283  1.00  0.00     0.148 A
HETATM   21 CL1  UNL     1     -23.824  35.429   0.136  1.00  0.00    -0.056 Cl
HETATM   22  S2  UNL     1     -22.523  34.001  -2.346  1.00  0.00    -0.052 SA
HETATM   23  C10 UNL     1     -23.342  32.934  -3.397  1.00  0.00     0.096 A
HETATM   24  N6  UNL     1     -19.855  33.962  -5.205  1.00  0.00    -0.227 N
HETATM   25  C11 UNL     1     -18.568  33.678  -5.781  1.00  0.00     0.168 C
HETATM   26  C12 UNL     1     -20.512  35.213  -5.454  1.00  0.00     0.168 C
ENDROOT
TORSDOF 0
ENDMDL