MODEL 1
REMARK VINA RESULT: -7.328930489      0.000      0.000
REMARK  3 active torsions:
REMARK  status: ('A' for Active; 'I' for Inactive)
REMARK    1  A    between atoms: C2_2  and  C4_5
REMARK    2  A    between atoms: C5_6  and  C6_7
REMARK    3  A    between atoms: C12_17  and  N3_18
ROOT
HETATM    1  C6  UNL     1     -23.024  34.170  -2.098  1.00  0.00     0.100 A
HETATM    2  N1  UNL     1     -23.569  34.887  -1.104  1.00  0.00    -0.357 N
ATOM      3  H1  UNL     1     -22.967  35.142  -0.322  1.00  0.00     0.166 HD
HETATM    4  C7  UNL     1     -24.847  35.296  -1.062  1.00  0.00     0.113 A
HETATM    5  C8  UNL     1     -25.642  34.935  -2.142  1.00  0.00     0.078 A
HETATM    6  C9  UNL     1     -27.045  35.316  -2.216  1.00  0.00     0.102 C
HETATM    7  N2  UNL     1     -28.160  35.620  -2.271  1.00  0.00    -0.191 NA
HETATM    8  C10 UNL     1     -25.079  34.195  -3.165  1.00  0.00     0.043 A
HETATM    9  S1  UNL     1     -25.738  33.583  -4.621  1.00  0.00    -0.082 SA
HETATM   10  C11 UNL     1     -24.353  32.815  -5.251  1.00  0.00     0.077 A
HETATM   11  C12 UNL     1     -24.089  32.089  -6.411  1.00  0.00     0.119 A
HETATM   12  N4  UNL     1     -22.869  31.584  -6.657  1.00  0.00    -0.338 N
ATOM     13  H4  UNL     1     -22.654  31.051  -7.499  1.00  0.00     0.168 HD
HETATM   14  C13 UNL     1     -21.953  31.838  -5.705  1.00  0.00     0.182 A
HETATM   15  N5  UNL     1     -22.183  32.519  -4.608  1.00  0.00    -0.350 N
ATOM     16  H5  UNL     1     -21.413  32.653  -3.952  1.00  0.00     0.166 HD
HETATM   17  C14 UNL     1     -23.404  33.060  -4.295  1.00  0.00     0.068 A
HETATM   18  C15 UNL     1     -23.778  33.773  -3.220  1.00  0.00     0.046 A
ENDROOT
BRANCH   1  19
HETATM   19  C5  UNL     1     -21.627  33.780  -2.042  1.00  0.00    -0.046 C
HETATM   20  C4  UNL     1     -20.459  33.476  -2.002  1.00  0.00    -0.074 C
BRANCH  20  21
HETATM   21  C2  UNL     1     -19.037  33.129  -1.958  1.00  0.00     0.093 C
HETATM   22  C1  UNL     1     -18.489  33.021  -3.353  1.00  0.00     0.046 C
HETATM   23  C3  UNL     1     -18.297  34.155  -1.121  1.00  0.00     0.046 C
HETATM   24 CL1  UNL     1     -18.788  31.542  -1.172  1.00  0.00    -0.106 Cl
ENDBRANCH  20  21
ENDBRANCH   1  19
BRANCH  11  25
HETATM   25  N3  UNL     1     -25.013  31.886  -7.275  1.00  0.00    -0.384 N
ATOM     26  H32 UNL     1     -25.521  31.002  -7.236  1.00  0.00     0.157 HD
ATOM     27  H31 UNL     1     -25.229  32.593  -7.977  1.00  0.00     0.157 HD
ENDBRANCH  11  25
TORSDOF 3
ENDMDL