MODEL 3
REMARK VINA RESULT: -7.117651420      2.590      5.870
REMARK  1 active torsions:
REMARK  status: ('A' for Active; 'I' for Inactive)
REMARK    1  A    between atoms: C2_2  and  N1_5
REMARK       I    between atoms: N1_5  and  C5_7
ROOT
HETATM    1  N1  UNL     1     -22.294  33.950  -1.564  1.00  0.00    -0.217 N
ATOM      2  H1  UNL     1     -21.924  33.885  -0.616  1.00  0.00     0.178 HD
HETATM    3  C5  UNL     1     -21.418  33.583  -2.606  1.00  0.00     0.693 C
HETATM    4  N2  UNL     1     -20.236  33.153  -2.302  1.00  0.00    -0.022 N
ATOM      5  H2  UNL     1     -20.042  33.119  -1.300  1.00  0.00     0.203 HD
HETATM    6  C6  UNL     1     -19.154  32.717  -3.133  1.00  0.00     0.703 A
HETATM    7  N3  UNL     1     -18.088  32.014  -2.712  1.00  0.00    -0.199 N
ATOM      8  H3  UNL     1     -17.939  31.725  -1.745  1.00  0.00     0.183 HD
HETATM    9  C7  UNL     1     -17.243  31.738  -3.721  1.00  0.00     0.124 A
HETATM   10  C8  UNL     1     -17.822  32.306  -4.838  1.00  0.00     0.133 A
HETATM   11  N4  UNL     1     -18.963  32.886  -4.461  1.00  0.00    -0.154 N
HETATM   12  C9  UNL     1     -19.833  33.578  -5.380  1.00  0.00     0.083 A
HETATM   13  C10 UNL     1     -19.255  33.874  -6.580  1.00  0.00     0.034 A
HETATM   14  C11 UNL     1     -19.985  34.538  -7.581  1.00  0.00     0.021 A
HETATM   15  C12 UNL     1     -21.281  34.881  -7.331  1.00  0.00     0.013 A
HETATM   16 BR1  UNL     1     -22.315  35.790  -8.673  1.00  0.00    -0.051 Br
HETATM   17  C13 UNL     1     -21.855  34.578  -6.115  1.00  0.00     0.051 A
HETATM   18  C14 UNL     1     -21.151  33.935  -5.141  1.00  0.00     0.078 A
HETATM   19  N5  UNL     1     -21.890  33.717  -3.939  1.00  0.00    -0.189 N
ATOM     20  H5  UNL     1     -22.902  33.647  -4.054  1.00  0.00     0.184 HD
ENDROOT
BRANCH   1  21
HETATM   21  C2  UNL     1     -23.643  34.404  -1.690  1.00  0.00     0.036 C
HETATM   22  C1  UNL     1     -23.776  35.520  -2.693  1.00  0.00     0.038 C
HETATM   23  C3  UNL     1     -24.646  33.288  -1.903  1.00  0.00     0.038 C
HETATM   24  C4  UNL     1     -24.039  35.023  -0.336  1.00  0.00     0.038 C
ENDBRANCH   1  21
TORSDOF 1
ENDMDL