MODEL 1
REMARK VINA RESULT: -6.252348685      0.000      0.000
REMARK  11 active torsions:
REMARK  status: ('A' for Active; 'I' for Inactive)
REMARK    1  A    between atoms: C2_2  and  C3_3
REMARK    2  A    between atoms: C3_3  and  C4_4
REMARK    3  A    between atoms: C4_4  and  C7_7
REMARK    4  A    between atoms: C8_8  and  C9_9
REMARK    5  A    between atoms: C9_9  and  C10_10
REMARK    6  A    between atoms: C10_10  and  N1_11
REMARK    7  A    between atoms: C11_14  and  O1_15
REMARK    8  A    between atoms: C14_21  and  O2_22
REMARK    9  A    between atoms: C15_24  and  C16_25
REMARK   10  A    between atoms: C16_25  and  C18_27
REMARK   11  A    between atoms: C20_31  and  O3_32
ROOT
HETATM    1  N1  UNL     1      -9.429  39.718  21.345  1.00  0.00    -0.254 N
HETATM    2  N2  UNL     1      -9.032  41.057  21.375  1.00  0.00    -0.277 N
ATOM      3  H2  UNL     1      -9.009  41.500  22.294  1.00  0.00     0.189 HD
HETATM    4  C11 UNL     1      -8.656  41.875  20.274  1.00  0.00     0.153 C
HETATM    5  C12 UNL     1      -9.458  42.246  19.115  1.00  0.00     0.155 C
HETATM    6  C13 UNL     1      -8.879  43.600  18.609  1.00  0.00     0.041 C
HETATM    7  N3  UNL     1      -9.567  41.325  18.033  1.00  0.00    -0.361 N
ATOM      8  H3  UNL     1      -9.720  41.775  17.131  1.00  0.00     0.162 HD
HETATM    9  C14 UNL     1      -9.509  39.930  17.955  1.00  0.00     0.135 C
HETATM   10  C15 UNL     1      -8.411  38.994  18.116  1.00  0.00     0.163 C
HETATM   11  N4  UNL     1      -8.016  38.689  19.470  1.00  0.00    -0.343 N
ATOM     12  H4  UNL     1      -7.029  38.461  19.586  1.00  0.00     0.164 HD
HETATM   13  C20 UNL     1      -8.771  38.657  20.652  1.00  0.00     0.235 C
ENDROOT
BRANCH   1  14
HETATM   14  C10 UNL     1     -10.631  39.406  22.152  1.00  0.00     0.165 C
BRANCH  14  15
HETATM   15  C9  UNL     1     -11.815  40.201  21.636  1.00  0.00     0.115 C
BRANCH  15  16
HETATM   16  C8  UNL     1     -12.550  39.326  20.722  1.00  0.00    -0.104 C
HETATM   17  C7  UNL     1     -13.154  38.604  19.977  1.00  0.00    -0.097 C
BRANCH  17  18
HETATM   18  C4  UNL     1     -13.922  37.720  19.072  1.00  0.00     0.016 C
HETATM   19  C5  UNL     1     -13.903  38.239  17.660  1.00  0.00     0.029 C
HETATM   20  C6  UNL     1     -15.333  37.579  19.606  1.00  0.00     0.029 C
BRANCH  18  21
HETATM   21  C3  UNL     1     -13.280  36.372  19.113  1.00  0.00     0.021 C
BRANCH  21  22
HETATM   22  C2  UNL     1     -12.172  36.359  18.056  1.00  0.00    -0.003 C
HETATM   23  C1  UNL     1     -10.822  36.090  18.687  1.00  0.00     0.005 C
ENDBRANCH  21  22
ENDBRANCH  18  21
ENDBRANCH  17  18
ENDBRANCH  15  16
ENDBRANCH  14  15
ENDBRANCH   1  14
BRANCH  13  24
HETATM   24  O3  UNL     1      -8.922  37.508  21.244  1.00  0.00    -0.331 OA
ATOM     25  H3  UNL     1      -8.876  36.779  20.637  1.00  0.00     0.221 HD
ENDBRANCH  13  24
BRANCH   4  26
HETATM   26  O1  UNL     1      -7.445  42.352  20.313  1.00  0.00    -0.347 OA
ATOM     27  H1  UNL     1      -7.257  42.938  21.036  1.00  0.00     0.219 HD
ENDBRANCH   4  26
BRANCH  10  28
HETATM   28  C16 UNL     1      -7.202  39.227  17.246  1.00  0.00     0.012 C
HETATM   29  C17 UNL     1      -7.351  40.107  16.085  1.00  0.00     0.012 C
BRANCH  28  30
HETATM   30  C18 UNL     1      -6.544  37.943  16.812  1.00  0.00     0.002 C
HETATM   31  C19 UNL     1      -5.965  38.115  15.404  1.00  0.00     0.005 C
ENDBRANCH  28  30
ENDBRANCH  10  28
BRANCH   9  32
HETATM   32  O2  UNL     1     -10.666  39.389  17.681  1.00  0.00    -0.348 OA
ATOM     33  H2  UNL     1     -10.630  38.441  17.640  1.00  0.00     0.219 HD
ENDBRANCH   9  32
TORSDOF 11
ENDMDL