MODEL 1
REMARK VINA RESULT: -7.914595104      0.000      0.000
REMARK  6 active torsions:
REMARK  status: ('A' for Active; 'I' for Inactive)
REMARK    1  A    between atoms: C2_2  and  C3_3
REMARK    2  A    between atoms: C3_3  and  C4_4
REMARK    3  A    between atoms: C3_3  and  C6_6
REMARK    4  A    between atoms: N2_20  and  C18_21
REMARK    5  A    between atoms: C18_21  and  C19_22
REMARK    6  A    between atoms: C19_22  and  N3_23
ROOT
HETATM    1  C6  UNL     1      -7.576  38.113  17.858  1.00  0.00     0.091 C
HETATM    2  C7  UNL     1      -8.388  39.326  18.105  1.00  0.00     0.067 C
HETATM    3  C8  UNL     1      -9.662  38.902  18.838  1.00  0.00     0.124 C
HETATM    4  C9  UNL     1     -10.824  39.199  17.963  1.00  0.00     0.082 C
HETATM    5  C10 UNL     1     -12.044  39.607  18.655  1.00  0.00    -0.023 A
HETATM    6  C11 UNL     1     -12.134  39.791  20.018  1.00  0.00     0.041 A
HETATM    7  N1  UNL     1     -13.370  40.159  20.337  1.00  0.00    -0.361 N
ATOM      8  H1  UNL     1     -13.705  40.360  21.279  1.00  0.00     0.165 HD
HETATM    9  C12 UNL     1     -14.104  40.224  19.219  1.00  0.00     0.012 A
HETATM   10  C13 UNL     1     -15.550  40.604  19.167  1.00  0.00     0.068 C
HETATM   11  C14 UNL     1     -13.291  39.882  18.157  1.00  0.00    -0.031 A
HETATM   12  C15 UNL     1     -13.719  39.831  16.746  1.00  0.00     0.050 C
HETATM   13  C16 UNL     1     -10.960  39.575  20.856  1.00  0.00     0.159 C
HETATM   14  C17 UNL     1     -10.674  40.889  21.604  1.00  0.00     0.159 C
HETATM   15  N2  UNL     1      -9.324  40.639  22.068  1.00  0.00    -0.330 N
HETATM   16  C20 UNL     1      -8.719  39.778  21.110  1.00  0.00     0.322 C
HETATM   17  O1  UNL     1      -7.504  39.464  21.155  1.00  0.00    -0.247 OA
HETATM   18  N4  UNL     1      -9.724  39.386  20.165  1.00  0.00    -0.303 N
HETATM   19  C21 UNL     1      -9.490  37.405  18.935  1.00  0.00     0.247 C
HETATM   20  O2  UNL     1     -10.052  36.597  19.719  1.00  0.00    -0.271 OA
HETATM   21  N5  UNL     1      -8.533  37.013  17.945  1.00  0.00    -0.354 N
ATOM     22  H5  UNL     1      -8.522  36.144  17.410  1.00  0.00     0.162 HD
ENDROOT
BRANCH   1  23
HETATM   23  C3  UNL     1      -6.823  37.993  16.589  1.00  0.00     0.008 C
BRANCH  23  24
HETATM   24  C2  UNL     1      -6.237  39.238  16.017  1.00  0.00     0.002 C
HETATM   25  C1  UNL     1      -6.940  39.819  14.824  1.00  0.00     0.005 C
ENDBRANCH  23  24
BRANCH  23  26
HETATM   26  C4  UNL     1      -5.663  37.003  16.895  1.00  0.00     0.002 C
HETATM   27  C5  UNL     1      -4.747  36.824  15.729  1.00  0.00     0.005 C
ENDBRANCH  23  26
ENDBRANCH   1  23
BRANCH  15  28
HETATM   28  C18 UNL     1      -8.754  41.188  23.282  1.00  0.00     0.154 C
BRANCH  28  29
HETATM   29  C19 UNL     1      -8.718  40.090  24.310  1.00  0.00     0.249 C
BRANCH  29  30
HETATM   30  N3  UNL     1      -7.430  39.424  24.354  1.00  0.00    -0.078 N
ATOM     31  H33 UNL     1      -7.120  39.158  23.419  1.00  0.00     0.274 HD
ATOM     32  H32 UNL     1      -6.684  40.078  24.592  1.00  0.00     0.274 HD
ATOM     33  H31 UNL     1      -7.432  38.622  24.984  1.00  0.00     0.274 HD
ENDBRANCH  29  30
ENDBRANCH  28  29
ENDBRANCH  15  28
TORSDOF 6
ENDMDL