MODEL 3
REMARK VINA RESULT: -7.730822860      1.214      1.592
REMARK  6 active torsions:
REMARK  status: ('A' for Active; 'I' for Inactive)
REMARK       I    between atoms: C1_4  and  N3_6
REMARK    1  A    between atoms: N3_6  and  C2_8
REMARK    2  A    between atoms: C2_8  and  C3_9
REMARK    3  A    between atoms: C4_10  and  C5_11
REMARK    4  A    between atoms: C5_11  and  C6_12
REMARK    5  A    between atoms: C5_11  and  C17_26
REMARK       I    between atoms: C6_12  and  N4_14
REMARK    6  A    between atoms: N4_14  and  C7_16
REMARK       I    between atoms: C17_26  and  N5_28
ROOT
HETATM    1  C5  UNL     1      -8.417  38.250  18.654  1.00  0.00     0.192 C
ENDROOT
BRANCH   1   2
HETATM    2  C4  UNL     1      -8.106  38.622  20.032  1.00  0.00    -0.006 C
HETATM    3  C3  UNL     1      -8.458  39.592  20.802  1.00  0.00    -0.010 C
BRANCH   3   4
HETATM    4  C2  UNL     1      -7.891  39.619  22.220  1.00  0.00     0.149 C
BRANCH   4   5
HETATM    5  N3  UNL     1      -8.951  40.126  23.048  1.00  0.00    -0.361 N
HETATM    6  C1  UNL     1      -9.855  39.232  23.657  1.00  0.00     0.181 C
HETATM    7  N1  UNL     1      -9.384  38.320  24.446  1.00  0.00    -0.374 N
HETATM    8  N2  UNL     1     -11.243  39.296  23.435  1.00  0.00    -0.064 NA
ATOM      9  H12 UNL     1     -10.039  37.674  24.886  1.00  0.00     0.158 HD
ATOM     10  H11 UNL     1      -8.378  38.274  24.607  1.00  0.00     0.158 HD
ATOM     11  H3  UNL     1      -9.048  41.131  23.195  1.00  0.00     0.162 HD
ENDBRANCH   4   5
ENDBRANCH   3   4
ENDBRANCH   1   2
BRANCH   1  12
HETATM   12  C6  UNL     1      -9.917  38.413  18.550  1.00  0.00     0.235 C
HETATM   13  O1  UNL     1     -10.597  37.497  19.010  1.00  0.00    -0.272 OA
HETATM   14  N4  UNL     1     -10.427  39.580  17.942  1.00  0.00    -0.351 N
ATOM     15  H4  UNL     1      -9.753  40.266  17.599  1.00  0.00     0.163 HD
BRANCH  14  16
HETATM   16  C7  UNL     1     -11.815  39.875  17.770  1.00  0.00     0.034 C
HETATM   17  C8  UNL     1     -11.937  41.229  17.092  1.00  0.00     0.035 C
HETATM   18  C9  UNL     1     -13.391  41.681  17.049  1.00  0.00    -0.012 C
HETATM   19  C10 UNL     1     -14.127  40.618  16.229  1.00  0.00     0.009 C
HETATM   20  C14 UNL     1     -13.993  41.775  18.417  1.00  0.00     0.009 C
HETATM   21  C11 UNL     1     -14.014  39.282  16.917  1.00  0.00    -0.012 C
HETATM   22  C12 UNL     1     -14.654  39.359  18.280  1.00  0.00     0.009 C
HETATM   23  C16 UNL     1     -12.576  38.815  17.018  1.00  0.00     0.035 C
HETATM   24  C13 UNL     1     -13.903  40.415  19.065  1.00  0.00    -0.012 C
HETATM   25  C15 UNL     1     -12.464  40.007  19.127  1.00  0.00     0.035 C
ENDBRANCH  14  16
ENDBRANCH   1  12
BRANCH   1  26
HETATM   26  C17 UNL     1      -7.725  39.025  17.635  1.00  0.00     0.236 C
HETATM   27  O2  UNL     1      -7.901  40.244  17.410  1.00  0.00    -0.272 OA
HETATM   28  N5  UNL     1      -6.749  38.413  16.775  1.00  0.00    -0.351 N
HETATM   29  C18 UNL     1      -6.012  39.057  15.737  1.00  0.00     0.126 C
HETATM   30  C21 UNL     1      -6.370  37.023  16.860  1.00  0.00     0.126 C
HETATM   31  C19 UNL     1      -5.391  37.939  14.939  1.00  0.00     0.021 C
HETATM   32  C20 UNL     1      -5.133  36.885  15.990  1.00  0.00     0.021 C
ENDBRANCH   1  26
TORSDOF 6
ENDMDL