MODEL 1
REMARK VINA RESULT: -7.302754709      0.000      0.000
REMARK  10 active torsions:
REMARK  status: ('A' for Active; 'I' for Inactive)
REMARK    1  A    between atoms: N2_4  and  C3_6
REMARK    2  A    between atoms: C3_6  and  C4_7
REMARK    3  A    between atoms: C4_7  and  C5_8
REMARK    4  A    between atoms: C5_8  and  C6_9
REMARK    5  A    between atoms: C6_9  and  C7_10
REMARK    6  A    between atoms: C7_10  and  N3_12
REMARK    7  A    between atoms: C10_15  and  N4_16
REMARK    8  A    between atoms: N4_16  and  C11_18
REMARK    9  A    between atoms: C11_18  and  N5_20
REMARK   10  A    between atoms: N5_20  and  C12_22
ROOT
HETATM    1  N3  UNL     1     -13.497  36.452  17.752  1.00  0.00    -0.375 N
HETATM    2  C8  UNL     1     -12.611  36.041  18.791  1.00  0.00     0.125 C
HETATM    3  C9  UNL     1     -11.177  36.535  18.601  1.00  0.00     0.045 C
HETATM    4  C10 UNL     1     -11.138  37.937  18.084  1.00  0.00     0.087 C
HETATM    5  C16 UNL     1     -12.520  38.565  18.281  1.00  0.00     0.045 C
HETATM    6  C17 UNL     1     -13.416  37.831  17.267  1.00  0.00     0.125 C
ENDROOT
BRANCH   4   7
HETATM    7  N4  UNL     1     -10.113  38.768  18.625  1.00  0.00    -0.362 N
ATOM      8  H4  UNL     1     -10.353  39.750  18.760  1.00  0.00     0.162 HD
BRANCH   7   9
HETATM    9  C11 UNL     1      -8.808  38.389  18.994  1.00  0.00     0.173 C
HETATM   10  S2  UNL     1      -8.341  38.601  20.539  1.00  0.00    -0.041 SA
BRANCH   9  11
HETATM   11  N5  UNL     1      -7.918  37.828  18.087  1.00  0.00    -0.318 N
ATOM     12  H5  UNL     1      -7.814  36.815  18.156  1.00  0.00     0.170 HD
BRANCH  11  13
HETATM   13  C12 UNL     1      -7.208  38.384  17.179  1.00  0.00     0.129 A
HETATM   14  N6  UNL     1      -7.399  39.671  16.737  1.00  0.00    -0.285 N
HETATM   15  N7  UNL     1      -6.527  39.956  15.811  1.00  0.00    -0.310 N
ATOM     16  H6  UNL     1      -8.117  40.308  17.083  1.00  0.00     0.188 HD
HETATM   17  C13 UNL     1      -5.726  38.921  15.580  1.00  0.00     0.117 A
ATOM     18  H7  UNL     1      -6.468  40.853  15.329  1.00  0.00     0.186 HD
HETATM   19  C14 UNL     1      -6.148  37.919  16.441  1.00  0.00     0.000 A
HETATM   20  C15 UNL     1      -5.499  36.597  16.485  1.00  0.00     0.054 C
ENDBRANCH  11  13
ENDBRANCH   9  11
ENDBRANCH   7   9
ENDBRANCH   4   7
BRANCH   1  21
HETATM   21  C7  UNL     1     -14.467  35.606  17.149  1.00  0.00     0.075 C
HETATM   22  S1  UNL     1     -16.054  35.818  17.396  1.00  0.00    -0.066 SA
BRANCH  21  23
HETATM   23  C6  UNL     1     -13.989  34.544  16.255  1.00  0.00     0.069 C
BRANCH  23  24
HETATM   24  C5  UNL     1     -14.921  34.122  15.176  1.00  0.00     0.008 C
BRANCH  24  25
HETATM   25  C4  UNL     1     -14.380  32.992  14.360  1.00  0.00     0.020 C
BRANCH  25  26
HETATM   26  C3  UNL     1     -14.055  33.508  12.951  1.00  0.00     0.120 C
BRANCH  26  27
HETATM   27  N2  UNL     1     -12.604  33.532  12.890  1.00  0.00    -0.382 N
HETATM   28  C2  UNL     1     -12.025  33.991  11.845  1.00  0.00     0.085 C
HETATM   29  C1  UNL     1     -12.857  34.485  10.720  1.00  0.00     0.085 C
HETATM   30  N1  UNL     1     -10.587  34.029  11.752  1.00  0.00    -0.088 NA
ATOM     31  H2  UNL     1     -12.051  33.186  13.674  1.00  0.00     0.160 HD
ENDBRANCH  26  27
ENDBRANCH  25  26
ENDBRANCH  24  25
ENDBRANCH  23  24
ENDBRANCH  21  23
ENDBRANCH   1  21
TORSDOF 10
ENDMDL