MODEL 2
REMARK VINA RESULT: -6.086307726      0.753      1.040
REMARK  7 active torsions:
REMARK  status: ('A' for Active; 'I' for Inactive)
REMARK    1  A    between atoms: N1_2  and  C4_5
REMARK    2  A    between atoms: C4_5  and  C5_6
REMARK    3  A    between atoms: C5_6  and  C6_7
REMARK    4  A    between atoms: C6_7  and  N2_8
REMARK    5  A    between atoms: N2_8  and  C7_10
REMARK    6  A    between atoms: C7_10  and  C8_11
REMARK    7  A    between atoms: C8_11  and  C9_12
REMARK       I    between atoms: N4_27  and  C21_29
ROOT
HETATM    1  C7  UNL     1      -9.279  38.806  18.632  1.00  0.00     0.080 C
HETATM    2  N4  UNL     1      -9.581  39.581  17.656  1.00  0.00    -0.321 N
ATOM      3  H4  UNL     1     -10.313  39.308  17.000  1.00  0.00     0.169 HD
HETATM    4  C21 UNL     1      -8.909  40.805  17.486  1.00  0.00     0.187 C
HETATM    5  N5  UNL     1      -7.638  40.846  17.267  1.00  0.00    -0.373 N
ATOM      6  H51 UNL     1      -7.151  41.734  17.143  1.00  0.00     0.158 HD
ATOM      7  H52 UNL     1      -7.088  39.989  17.211  1.00  0.00     0.158 HD
HETATM    8  N6  UNL     1      -9.673  41.994  17.563  1.00  0.00    -0.064 NA
ENDROOT
BRANCH   1   9
HETATM    9  N2  UNL     1      -8.262  39.203  19.530  1.00  0.00    -0.380 N
ATOM     10  H2  UNL     1      -7.650  39.960  19.226  1.00  0.00     0.160 HD
BRANCH   9  11
HETATM   11  C6  UNL     1      -8.009  38.647  20.822  1.00  0.00     0.122 C
BRANCH  11  12
HETATM   12  C5  UNL     1      -8.164  39.637  21.950  1.00  0.00     0.047 C
BRANCH  12  13
HETATM   13  C4  UNL     1      -9.654  39.846  22.188  1.00  0.00     0.237 C
BRANCH  13  14
HETATM   14  N1  UNL     1      -9.919  41.270  22.301  1.00  0.00    -0.079 N
HETATM   15  C1  UNL     1     -10.984  41.431  23.280  1.00  0.00     0.271 C
HETATM   16  C2  UNL     1      -8.782  42.029  22.732  1.00  0.00     0.271 C
HETATM   17  C3  UNL     1     -10.428  41.764  21.033  1.00  0.00     0.271 C
ENDBRANCH  13  14
ENDBRANCH  12  13
ENDBRANCH  11  12
ENDBRANCH   9  11
ENDBRANCH   1   9
BRANCH   1  18
HETATM   18  C8  UNL     1      -9.965  37.523  18.839  1.00  0.00     0.093 C
BRANCH  18  19
HETATM   19  C9  UNL     1     -11.449  37.613  18.540  1.00  0.00     0.073 C
HETATM   20  C10 UNL     1     -12.197  38.345  19.467  1.00  0.00    -0.101 C
HETATM   21  C11 UNL     1     -12.796  38.951  20.196  1.00  0.00    -0.106 C
HETATM   22  C12 UNL     1     -13.542  39.733  21.089  1.00  0.00     0.094 C
HETATM   23  C13 UNL     1     -14.862  39.088  21.523  1.00  0.00     0.012 C
HETATM   24  C14 UNL     1     -15.497  38.338  20.373  1.00  0.00     0.001 C
HETATM   25  C15 UNL     1     -15.988  39.230  19.278  1.00  0.00     0.000 C
HETATM   26  C16 UNL     1     -16.568  38.356  18.192  1.00  0.00     0.009 C
HETATM   27  C17 UNL     1     -15.522  37.636  17.383  1.00  0.00     0.103 C
HETATM   28  C18 UNL     1     -15.436  36.190  17.770  1.00  0.00     0.217 C
HETATM   29  O1  UNL     1     -16.542  35.634  18.035  1.00  0.00    -0.274 OA
HETATM   30  N3  UNL     1     -14.233  35.473  17.843  1.00  0.00    -0.361 N
HETATM   31  C19 UNL     1     -12.945  35.945  17.388  1.00  0.00     0.123 C
ATOM     32  H3  UNL     1     -14.271  34.540  18.251  1.00  0.00     0.162 HD
HETATM   33  C20 UNL     1     -11.970  36.168  18.531  1.00  0.00     0.037 C
ENDBRANCH  18  19
ENDBRANCH   1  18
TORSDOF 7
ENDMDL