MODEL 5
REMARK VINA RESULT: -6.916818778      2.172      4.930
REMARK  9 active torsions:
REMARK  status: ('A' for Active; 'I' for Inactive)
REMARK    1  A    between atoms: C6_6  and  C7_7
REMARK    2  A    between atoms: C7_7  and  N1_8
REMARK    3  A    between atoms: N1_8  and  N2_9
REMARK    4  A    between atoms: N2_9  and  C8_11
REMARK    5  A    between atoms: C8_11  and  C9_12
REMARK    6  A    between atoms: C12_17  and  C13_18
REMARK    7  A    between atoms: C13_18  and  C14_19
REMARK    8  A    between atoms: C14_19  and  C15_20
REMARK    9  A    between atoms: C15_20  and  C17_22
REMARK       I    between atoms: N4_26  and  C21_27
ROOT
HETATM    1  C1  UNL     1      -9.767  39.488  22.542  1.00  0.00     0.016 C
HETATM    2  C2  UNL     1     -10.329  39.404  21.289  1.00  0.00    -0.065 C
HETATM    3  C3  UNL     1     -11.759  39.314  21.114  1.00  0.00     0.040 C
HETATM    4  C4  UNL     1     -12.235  39.535  19.707  1.00  0.00     0.039 C
HETATM    5  C5  UNL     1     -11.264  39.080  18.661  1.00  0.00    -0.066 C
HETATM    6  C6  UNL     1     -11.737  39.075  17.436  1.00  0.00     0.037 C
HETATM    7  C10 UNL     1      -9.910  38.683  18.969  1.00  0.00     0.013 C
HETATM    8  C11 UNL     1      -9.926  37.169  19.184  1.00  0.00     0.023 C
HETATM    9  C12 UNL     1      -8.862  39.078  17.915  1.00  0.00     0.045 C
HETATM   10  C19 UNL     1      -8.610  40.520  18.313  1.00  0.00     0.092 C
HETATM   11  C20 UNL     1      -9.433  41.508  17.515  1.00  0.00     0.033 C
HETATM   12  N4  UNL     1      -8.929  40.668  19.713  1.00  0.00    -0.341 N
HETATM   13  C21 UNL     1      -8.860  41.855  20.472  1.00  0.00     0.185 C
HETATM   14  N5  UNL     1      -9.959  42.414  20.937  1.00  0.00    -0.374 N
ATOM     15  H51 UNL     1      -9.908  43.272  21.486  1.00  0.00     0.158 HD
ATOM     16  H52 UNL     1     -10.827  41.931  20.707  1.00  0.00     0.158 HD
HETATM   17  N6  UNL     1      -7.660  42.522  20.790  1.00  0.00    -0.064 NA
HETATM   18  C22 UNL     1      -9.343  39.385  20.182  1.00  0.00     0.129 C
ENDROOT
BRANCH   6  19
HETATM   19  C7  UNL     1     -13.094  39.479  17.115  1.00  0.00     0.209 C
BRANCH  19  20
HETATM   20  N1  UNL     1     -14.049  38.675  17.115  1.00  0.00    -0.343 NA
BRANCH  20  21
HETATM   21  N2  UNL     1     -14.945  37.851  17.382  1.00  0.00    -0.264 N
ATOM     22  H2  UNL     1     -15.741  37.710  16.761  1.00  0.00     0.195 HD
BRANCH  21  23
HETATM   23  C8  UNL     1     -14.808  37.105  18.608  1.00  0.00     0.253 C
BRANCH  23  24
HETATM   24  C9  UNL     1     -13.805  36.033  18.402  1.00  0.00     0.251 C
HETATM   25  N3  UNL     1     -13.698  35.335  17.174  1.00  0.00    -0.061 NA
HETATM   26  O1  UNL     1     -13.036  35.755  19.373  1.00  0.00    -0.275 OA
ENDBRANCH  23  24
ENDBRANCH  21  23
ENDBRANCH  20  21
ENDBRANCH  19  20
ENDBRANCH   6  19
BRANCH   9  27
HETATM   27  C13 UNL     1      -7.693  38.180  18.079  1.00  0.00    -0.019 C
BRANCH  27  28
HETATM   28  C14 UNL     1      -6.818  37.793  17.014  1.00  0.00    -0.001 C
BRANCH  28  29
HETATM   29  C15 UNL     1      -6.228  38.331  15.992  1.00  0.00    -0.084 C
HETATM   30  C16 UNL     1      -6.670  39.485  15.204  1.00  0.00     0.043 C
BRANCH  29  31
HETATM   31  C17 UNL     1      -4.908  37.708  15.538  1.00  0.00     0.029 C
HETATM   32  C18 UNL     1      -4.694  36.381  16.181  1.00  0.00     0.010 C
ENDBRANCH  29  31
ENDBRANCH  28  29
ENDBRANCH  27  28
ENDBRANCH   9  27
TORSDOF 9
ENDMDL