MODEL 3
REMARK VINA RESULT: -6.879375972      3.128      5.307
REMARK  9 active torsions:
REMARK  status: ('A' for Active; 'I' for Inactive)
REMARK    1  A    between atoms: C4_6  and  N2_7
REMARK    2  A    between atoms: N2_7  and  C5_9
REMARK    3  A    between atoms: C5_9  and  C6_10
REMARK    4  A    between atoms: C6_10  and  C7_11
REMARK    5  A    between atoms: C7_11  and  N3_12
REMARK    6  A    between atoms: N3_12  and  C8_14
REMARK    7  A    between atoms: C8_14  and  N4_16
REMARK    8  A    between atoms: N4_16  and  C9_18
REMARK    9  A    between atoms: C9_18  and  C10_19
ROOT
HETATM    1  C8  UNL     1     -10.097  37.960  18.966  1.00  0.00     0.167 C
HETATM    2  S1  UNL     1     -10.198  36.351  18.793  1.00  0.00    -0.041 SA
ENDROOT
BRANCH   1   3
HETATM    3  N3  UNL     1     -10.364  38.842  17.865  1.00  0.00    -0.367 N
ATOM      4  H3  UNL     1     -10.108  38.559  16.919  1.00  0.00     0.161 HD
BRANCH   3   5
HETATM    5  C7  UNL     1     -10.985  40.114  18.078  1.00  0.00     0.123 C
BRANCH   5   6
HETATM    6  C6  UNL     1     -10.199  41.276  17.573  1.00  0.00     0.040 C
BRANCH   6   7
HETATM    7  C5  UNL     1      -8.708  41.064  17.722  1.00  0.00     0.139 C
BRANCH   7   8
HETATM    8  N2  UNL     1      -8.014  40.986  16.474  1.00  0.00    -0.226 N
ATOM      9  H2  UNL     1      -8.089  41.788  15.849  1.00  0.00     0.177 HD
BRANCH   8  10
HETATM   10  C4  UNL     1      -7.306  39.996  16.072  1.00  0.00     0.678 A
HETATM   11  N1  UNL     1      -6.843  39.790  14.831  1.00  0.00    -0.200 N
HETATM   12  C3  UNL     1      -6.138  38.646  14.778  1.00  0.00     0.131 A
ATOM     13  H1  UNL     1      -7.002  40.413  14.040  1.00  0.00     0.183 HD
HETATM   14  C2  UNL     1      -6.170  38.122  16.055  1.00  0.00     0.038 A
HETATM   15  C1  UNL     1      -5.548  36.863  16.546  1.00  0.00     0.070 C
HETATM   16  N6  UNL     1      -6.888  38.964  16.820  1.00  0.00    -0.195 N
ATOM     17  H6  UNL     1      -7.084  38.837  17.813  1.00  0.00     0.184 HD
ENDBRANCH   8  10
ENDBRANCH   7   8
ENDBRANCH   6   7
ENDBRANCH   5   6
ENDBRANCH   3   5
ENDBRANCH   1   3
BRANCH   1  18
HETATM   18  N4  UNL     1      -9.777  38.503  20.237  1.00  0.00    -0.367 N
ATOM     19  H4  UNL     1     -10.533  38.827  20.841  1.00  0.00     0.161 HD
BRANCH  18  20
HETATM   20  C9  UNL     1      -8.443  38.607  20.690  1.00  0.00     0.126 C
BRANCH  20  21
HETATM   21  C10 UNL     1      -8.074  39.892  21.395  1.00  0.00     0.007 C
HETATM   22  C11 UNL     1      -7.631  39.599  22.790  1.00  0.00     0.034 C
HETATM   23  C12 UNL     1      -8.723  39.517  23.804  1.00  0.00     0.238 C
HETATM   24  N5  UNL     1      -9.794  40.430  23.681  1.00  0.00    -0.063 N
HETATM   25  C13 UNL     1     -11.063  39.726  23.580  1.00  0.00     0.238 C
HETATM   26  C16 UNL     1      -9.896  41.193  24.938  1.00  0.00     0.238 C
HETATM   27  C17 UNL     1      -9.643  41.403  22.644  1.00  0.00     0.187 C
HETATM   28  C14 UNL     1     -11.420  39.355  25.017  1.00  0.00     0.029 C
HETATM   29  C15 UNL     1     -10.932  40.535  25.778  1.00  0.00     0.029 C
HETATM   30  C18 UNL     1      -8.716  42.515  23.017  1.00  0.00     0.040 C
HETATM   31  C19 UNL     1      -9.226  40.855  21.308  1.00  0.00     0.039 C
ENDBRANCH  20  21
ENDBRANCH  18  20
ENDBRANCH   1  18
TORSDOF 9
ENDMDL