MODEL 4
REMARK VINA RESULT: -7.256954365      1.091      1.987
REMARK  6 active torsions:
REMARK  status: ('A' for Active; 'I' for Inactive)
REMARK    1  A    between atoms: C2_2  and  C3_3
REMARK    2  A    between atoms: C3_3  and  C4_4
REMARK    3  A    between atoms: C4_4  and  N1_5
REMARK       I    between atoms: C5_7  and  N3_9
REMARK    4  A    between atoms: N3_9  and  C6_11
REMARK    5  A    between atoms: C6_11  and  C7_12
REMARK    6  A    between atoms: C7_12  and  N4_13
ROOT
HETATM    1  N4  UNL     1     -11.214  38.217  18.403  1.00  0.00     0.100 N
HETATM    2  C8  UNL     1     -11.282  36.811  18.577  1.00  0.00     0.330 C
HETATM    3  C9  UNL     1     -12.641  36.438  18.110  1.00  0.00     0.048 A
HETATM    4  N5  UNL     1     -13.465  35.393  17.807  1.00  0.00    -0.355 N
ATOM      5  H5  UNL     1     -13.219  34.405  17.866  1.00  0.00     0.166 HD
HETATM    6  C10 UNL     1     -14.653  35.882  17.418  1.00  0.00     0.068 A
HETATM    7  C11 UNL     1     -15.922  35.547  16.983  1.00  0.00    -0.005 A
HETATM    8  C12 UNL     1     -16.644  36.713  16.767  1.00  0.00     0.020 A
HETATM    9  N6  UNL     1     -15.834  37.723  17.064  1.00  0.00    -0.357 N
ATOM     10  H6  UNL     1     -16.086  38.710  17.001  1.00  0.00     0.166 HD
HETATM   11  C13 UNL     1     -14.637  37.259  17.456  1.00  0.00     0.070 A
HETATM   12  C14 UNL     1     -13.353  37.592  17.897  1.00  0.00     0.023 A
HETATM   13  C15 UNL     1     -12.515  38.760  18.208  1.00  0.00     0.316 C
HETATM   14  C16 UNL     1     -18.048  36.812  16.295  1.00  0.00     0.085 C
HETATM   15  C17 UNL     1     -18.661  35.463  16.099  1.00  0.00     0.242 C
HETATM   16  N7  UNL     1     -18.051  34.695  15.050  1.00  0.00    -0.074 N
HETATM   17  C18 UNL     1     -17.704  35.604  13.949  1.00  0.00     0.272 C
HETATM   18  C19 UNL     1     -19.076  33.800  14.512  1.00  0.00     0.272 C
HETATM   19  C20 UNL     1     -16.937  33.901  15.430  1.00  0.00     0.241 C
HETATM   20  C21 UNL     1     -16.391  34.166  16.794  1.00  0.00     0.071 C
ENDROOT
BRANCH   1  21
HETATM   21  C7  UNL     1     -10.566  38.903  19.512  1.00  0.00     0.293 C
BRANCH  21  22
HETATM   22  C6  UNL     1      -9.168  39.250  19.101  1.00  0.00     0.152 C
BRANCH  22  23
HETATM   23  N3  UNL     1      -9.062  39.483  17.690  1.00  0.00    -0.363 N
HETATM   24  C5  UNL     1      -8.279  40.550  17.197  1.00  0.00     0.184 C
HETATM   25  N1  UNL     1      -7.158  40.273  16.604  1.00  0.00    -0.365 N
HETATM   26  N2  UNL     1      -8.668  41.932  17.320  1.00  0.00    -0.064 NA
ATOM     27  H1  UNL     1      -6.571  41.021  16.236  1.00  0.00     0.162 HD
ATOM     28  H3  UNL     1      -9.556  38.873  17.038  1.00  0.00     0.162 HD
BRANCH  25  29
HETATM   29  C4  UNL     1      -6.755  38.896  16.473  1.00  0.00     0.122 C
BRANCH  29  30
HETATM   30  C3  UNL     1      -5.958  38.821  15.164  1.00  0.00     0.019 C
BRANCH  30  31
HETATM   31  C2  UNL     1      -4.859  37.783  15.270  1.00  0.00    -0.003 C
HETATM   32  C1  UNL     1      -5.128  36.851  16.430  1.00  0.00     0.005 C
ENDBRANCH  30  31
ENDBRANCH  29  30
ENDBRANCH  25  29
ENDBRANCH  22  23
ENDBRANCH  21  22
ENDBRANCH   1  21
TORSDOF 6
ENDMDL