MODEL 1
REMARK VINA RESULT: -6.741738045      0.000      0.000
REMARK  7 active torsions:
REMARK  status: ('A' for Active; 'I' for Inactive)
REMARK    1  A    between atoms: C2_2  and  N1_3
REMARK       I    between atoms: C3_5  and  N3_7
REMARK    2  A    between atoms: N3_7  and  C4_9
REMARK    3  A    between atoms: N5_15  and  C8_17
REMARK    4  A    between atoms: C8_17  and  C9_18
REMARK    5  A    between atoms: C9_18  and  C10_19
REMARK    6  A    between atoms: C10_19  and  C11_20
REMARK    7  A    between atoms: C11_20  and  N6_21
ROOT
HETATM    1  C4  UNL     1      -7.372  37.992  17.079  1.00  0.00     0.685 A
HETATM    2  N4  UNL     1      -7.626  37.549  18.317  1.00  0.00    -0.189 N
ATOM      3  H4  UNL     1      -7.438  36.608  18.663  1.00  0.00     0.184 HD
HETATM    4  C5  UNL     1      -8.171  38.549  19.028  1.00  0.00     0.082 A
HETATM    5  C6  UNL     1      -8.632  38.695  20.330  1.00  0.00     0.080 A
HETATM    6  C7  UNL     1      -9.155  39.891  20.775  1.00  0.00     0.103 A
HETATM    7  N5  UNL     1      -9.561  39.946  21.998  1.00  0.00    -0.376 N
ATOM      8  H5  UNL     1      -9.502  39.141  22.621  1.00  0.00     0.161 HD
HETATM    9  N7  UNL     1      -9.213  40.927  19.925  1.00  0.00    -0.344 N
ATOM     10  H7  UNL     1      -9.600  41.809  20.261  1.00  0.00     0.167 HD
HETATM   11  C18 UNL     1      -8.788  40.864  18.654  1.00  0.00     0.036 A
HETATM   12  C19 UNL     1      -8.864  42.030  17.727  1.00  0.00     0.070 C
HETATM   13  C20 UNL     1      -8.264  39.671  18.198  1.00  0.00     0.098 A
HETATM   14  N8  UNL     1      -7.764  39.292  17.007  1.00  0.00    -0.187 N
ATOM     15  H8  UNL     1      -7.691  39.886  16.181  1.00  0.00     0.184 HD
ENDROOT
BRANCH   7  16
HETATM   16  C8  UNL     1     -10.109  41.223  22.443  1.00  0.00     0.121 C
BRANCH  16  17
HETATM   17  C9  UNL     1     -11.508  41.005  23.035  1.00  0.00     0.021 C
BRANCH  17  18
HETATM   18  C10 UNL     1     -12.501  41.129  21.918  1.00  0.00     0.029 C
BRANCH  18  19
HETATM   19  C11 UNL     1     -13.194  39.868  21.562  1.00  0.00     0.237 C
BRANCH  19  20
HETATM   20  N6  UNL     1     -13.578  39.708  20.210  1.00  0.00    -0.071 N
HETATM   21  C12 UNL     1     -14.920  40.192  19.955  1.00  0.00     0.272 C
HETATM   22  C13 UNL     1     -12.686  40.563  19.405  1.00  0.00     0.237 C
HETATM   23  C14 UNL     1     -12.708  40.181  17.955  1.00  0.00     0.028 C
HETATM   24  C15 UNL     1     -11.851  38.931  17.806  1.00  0.00     0.003 C
HETATM   25  C16 UNL     1     -12.025  38.149  19.104  1.00  0.00     0.028 C
HETATM   26  C17 UNL     1     -13.427  38.376  19.684  1.00  0.00     0.237 C
ENDBRANCH  19  20
ENDBRANCH  18  19
ENDBRANCH  17  18
ENDBRANCH  16  17
ENDBRANCH   7  16
BRANCH   1  27
HETATM   27  N3  UNL     1      -6.843  37.306  16.104  1.00  0.00    -0.163 N
HETATM   28  C3  UNL     1      -5.853  37.903  15.285  1.00  0.00     0.202 C
HETATM   29  N1  UNL     1      -4.601  37.533  15.380  1.00  0.00    -0.364 N
HETATM   30  N2  UNL     1      -6.222  38.901  14.363  1.00  0.00    -0.063 NA
ATOM     31  H1  UNL     1      -3.902  37.973  14.782  1.00  0.00     0.162 HD
ATOM     32  H3  UNL     1      -7.140  36.345  15.933  1.00  0.00     0.187 HD
BRANCH  29  33
HETATM   33  C2  UNL     1      -4.193  36.511  16.318  1.00  0.00     0.118 C
HETATM   34  C1  UNL     1      -3.893  35.261  15.509  1.00  0.00     0.026 C
ENDBRANCH  29  33
ENDBRANCH   1  27
TORSDOF 7
ENDMDL