MODEL 3
REMARK VINA RESULT: -6.917706472      2.154      2.883
REMARK  8 active torsions:
REMARK  status: ('A' for Active; 'I' for Inactive)
REMARK    1  A    between atoms: N1_4  and  C4_5
REMARK    2  A    between atoms: C4_5  and  N2_7
REMARK    3  A    between atoms: N2_7  and  C5_9
REMARK    4  A    between atoms: C14_18  and  C15_19
REMARK       I    between atoms: C15_19  and  N3_21
REMARK    5  A    between atoms: N3_21  and  C16_23
REMARK    6  A    between atoms: C16_23  and  C17_24
REMARK    7  A    between atoms: C17_24  and  C18_25
REMARK    8  A    between atoms: C18_25  and  N4_26
ROOT
HETATM    1  C1  UNL     1      -8.532  39.651  20.984  1.00  0.00     0.012 C
HETATM    2  C2  UNL     1      -9.696  38.871  20.440  1.00  0.00     0.012 C
HETATM    3  C3  UNL     1     -10.915  39.756  20.493  1.00  0.00     0.130 C
HETATM    4  N1  UNL     1     -12.103  39.086  19.979  1.00  0.00    -0.358 N
HETATM    5  C12 UNL     1     -11.921  37.911  19.162  1.00  0.00     0.126 C
HETATM    6  C13 UNL     1     -10.730  38.242  18.252  1.00  0.00     0.034 C
HETATM    7  C14 UNL     1      -9.501  38.164  19.163  1.00  0.00     0.084 C
ENDROOT
BRANCH   7   8
HETATM    8  C15 UNL     1      -8.380  38.584  18.314  1.00  0.00     0.222 C
HETATM    9  O1  UNL     1      -8.111  39.775  18.130  1.00  0.00    -0.273 OA
HETATM   10  N3  UNL     1      -7.585  37.606  17.684  1.00  0.00    -0.361 N
ATOM     11  H3  UNL     1      -7.832  36.631  17.851  1.00  0.00     0.162 HD
BRANCH  10  12
HETATM   12  C16 UNL     1      -6.467  37.853  16.835  1.00  0.00     0.124 C
BRANCH  12  13
HETATM   13  C17 UNL     1      -5.705  36.588  16.578  1.00  0.00     0.039 C
BRANCH  13  14
HETATM   14  C18 UNL     1      -4.502  36.800  15.712  1.00  0.00     0.123 C
BRANCH  14  15
HETATM   15  N4  UNL     1      -3.291  36.214  16.160  1.00  0.00    -0.367 N
HETATM   16  C19 UNL     1      -2.756  35.121  15.773  1.00  0.00     0.196 C
HETATM   17  N5  UNL     1      -3.339  34.299  14.781  1.00  0.00    -0.067 NA
HETATM   18  N6  UNL     1      -1.528  34.712  16.358  1.00  0.00    -0.067 NA
ATOM     19  H4  UNL     1      -2.785  36.728  16.881  1.00  0.00     0.161 HD
ENDBRANCH  14  15
ENDBRANCH  13  14
ENDBRANCH  12  13
ENDBRANCH  10  12
ENDBRANCH   7   8
BRANCH   4  20
HETATM   20  C4  UNL     1     -13.361  39.623  20.313  1.00  0.00     0.170 C
HETATM   21  S1  UNL     1     -13.743  39.783  21.892  1.00  0.00    -0.041 SA
BRANCH  20  22
HETATM   22  N2  UNL     1     -14.273  40.047  19.329  1.00  0.00    -0.362 N
ATOM     23  H2  UNL     1     -15.232  39.702  19.348  1.00  0.00     0.162 HD
BRANCH  22  24
HETATM   24  C5  UNL     1     -13.854  40.990  18.266  1.00  0.00     0.084 C
HETATM   25  C6  UNL     1     -14.550  42.224  18.450  1.00  0.00     0.026 C
HETATM   26  C7  UNL     1     -13.979  43.592  18.054  1.00  0.00     0.013 C
HETATM   27  C8  UNL     1     -13.629  43.641  16.523  1.00  0.00     0.080 C
HETATM   28  C9  UNL     1     -13.550  42.303  16.110  1.00  0.00    -0.183 C
HETATM   29  C10 UNL     1     -13.492  40.951  15.737  1.00  0.00     0.082 C
HETATM   30  C11 UNL     1     -13.935  40.144  17.009  1.00  0.00     0.036 C
ENDBRANCH  22  24
ENDBRANCH  20  22
ENDBRANCH   4  20
TORSDOF 8
ENDMDL