MODEL 4
REMARK VINA RESULT: -6.349787934      2.241      4.391
REMARK  4 active torsions:
REMARK  status: ('A' for Active; 'I' for Inactive)
REMARK    1  A    between atoms: C3_3  and  N1_4
REMARK    2  A    between atoms: C5_9  and  N3_10
REMARK    3  A    between atoms: C6_15  and  N5_16
REMARK    4  A    between atoms: C7_18  and  C8_19
ROOT
HETATM    1  C1  UNL     1      30.050  31.418  49.546  1.00  0.00     0.014 C
HETATM    2  C2  UNL     1      29.490  32.391  49.104  1.00  0.00    -0.097 C
HETATM    3  C3  UNL     1      28.785  33.586  48.576  1.00  0.00     0.245 C
ENDROOT
BRANCH   3   4
HETATM    4  N1  UNL     1      29.753  34.427  47.922  1.00  0.00    -0.120 N
HETATM    5  C4  UNL     1      30.126  35.531  48.643  1.00  0.00     0.355 A
HETATM    6  O1  UNL     1      29.642  35.764  49.793  1.00  0.00    -0.245 OA
HETATM    7  N2  UNL     1      31.019  36.380  48.122  1.00  0.00    -0.140 N
HETATM    8  C5  UNL     1      31.549  36.153  46.899  1.00  0.00     0.694 A
ATOM      9  H2  UNL     1      31.303  37.204  48.652  1.00  0.00     0.189 HD
HETATM   10  N4  UNL     1      31.172  35.081  46.224  1.00  0.00    -0.022 N
HETATM   11  C6  UNL     1      30.261  34.179  46.709  1.00  0.00     0.703 A
ATOM     12  H4  UNL     1      31.577  34.917  45.303  1.00  0.00     0.203 HD
BRANCH   8  13
HETATM   13  N3  UNL     1      32.426  37.007  46.416  1.00  0.00    -0.234 N
ATOM     14  H32 UNL     1      32.501  37.961  46.770  1.00  0.00     0.174 HD
ATOM     15  H31 UNL     1      33.047  36.706  45.665  1.00  0.00     0.174 HD
ENDBRANCH   8  13
BRANCH  11  16
HETATM   16  N5  UNL     1      29.999  33.211  45.997  1.00  0.00    -0.204 N
HETATM   17  C7  UNL     1      30.163  32.602  44.787  1.00  0.00     0.087 C
ATOM     18  H5  UNL     1      29.401  32.598  46.551  1.00  0.00     0.183 HD
BRANCH  17  19
HETATM   19  C8  UNL     1      29.551  31.211  44.659  1.00  0.00    -0.019 C
HETATM   20  C9  UNL     1      28.822  30.781  45.886  1.00  0.00     0.020 C
HETATM   21  C10 UNL     1      28.549  31.307  43.524  1.00  0.00     0.020 C
HETATM   22  C11 UNL     1      30.578  30.187  44.274  1.00  0.00     0.020 C
ENDBRANCH  17  19
ENDBRANCH  11  16
ENDBRANCH   3   4
TORSDOF 4
ENDMDL