MODEL 1
REMARK VINA RESULT: -5.872719498      0.000      0.000
REMARK  6 active torsions:
REMARK  status: ('A' for Active; 'I' for Inactive)
REMARK    1  A    between atoms: N1_2  and  C2_4
REMARK    2  A    between atoms: C3_7  and  C4_8
REMARK    3  A    between atoms: C8_14  and  N4_15
REMARK    4  A    between atoms: N4_15  and  C9_17
REMARK    5  A    between atoms: C9_17  and  C10_18
REMARK    6  A    between atoms: C10_18  and  O1_19
ROOT
HETATM    1  C2  UNL     1      30.586  31.971  48.549  1.00  0.00     0.693 A
HETATM    2  N2  UNL     1      30.688  31.172  47.466  1.00  0.00    -0.179 N
ATOM      3  H2  UNL     1      30.498  30.175  47.573  1.00  0.00     0.185 HD
HETATM    4  C3  UNL     1      31.028  31.638  46.254  1.00  0.00     0.121 A
HETATM    5  N3  UNL     1      31.272  32.953  46.147  1.00  0.00    -0.179 N
ATOM      6  H3  UNL     1      31.533  33.326  45.234  1.00  0.00     0.185 HD
HETATM    7  C8  UNL     1      31.188  33.797  47.183  1.00  0.00     0.694 A
HETATM    8  N5  UNL     1      30.847  33.302  48.372  1.00  0.00    -0.022 N
ATOM      9  H5  UNL     1      30.779  33.932  49.171  1.00  0.00     0.203 HD
ENDROOT
BRANCH   7  10
HETATM   10  N4  UNL     1      31.431  35.033  47.020  1.00  0.00    -0.224 N
ATOM     11  H4  UNL     1      32.186  35.247  46.368  1.00  0.00     0.177 HD
BRANCH  10  12
HETATM   12  C9  UNL     1      30.806  36.161  47.612  1.00  0.00     0.164 C
BRANCH  12  13
HETATM   13  C10 UNL     1      31.537  37.416  47.120  1.00  0.00     0.184 C
BRANCH  13  14
HETATM   14  O1  UNL     1      32.688  37.590  47.884  1.00  0.00    -0.399 OA
ATOM     15  H1  UNL     1      33.178  36.777  47.886  1.00  0.00     0.209 HD
ENDBRANCH  13  14
ENDBRANCH  12  13
ENDBRANCH  10  12
ENDBRANCH   7  10
BRANCH   4  16
HETATM   16  C4  UNL     1      31.120  30.715  45.097  1.00  0.00     0.009 C
HETATM   17  C5  UNL     1      31.172  29.311  45.717  1.00  0.00     0.022 C
HETATM   18  C6  UNL     1      29.950  30.821  44.157  1.00  0.00     0.022 C
HETATM   19  C7  UNL     1      32.409  30.891  44.352  1.00  0.00     0.022 C
ENDBRANCH   4  16
BRANCH   1  20
HETATM   20  N1  UNL     1      30.260  31.547  49.719  1.00  0.00    -0.230 N
HETATM   21  C1  UNL     1      28.953  31.141  50.138  1.00  0.00     0.165 C
ATOM     22  H1  UNL     1      31.004  31.494  50.414  1.00  0.00     0.177 HD
ENDBRANCH   1  20
TORSDOF 6
ENDMDL