MODEL 5
REMARK VINA RESULT: -6.252887898      1.448      3.109
REMARK  4 active torsions:
REMARK  status: ('A' for Active; 'I' for Inactive)
REMARK    1  A    between atoms: C5_7  and  N2_8
REMARK    2  A    between atoms: N2_8  and  C6_10
REMARK    3  A    between atoms: C6_10  and  C7_11
REMARK    4  A    between atoms: C7_11  and  N3_12
ROOT
HETATM    1  C1  UNL     1      28.821  30.915  50.517  1.00  0.00     0.054 C
HETATM    2  C2  UNL     1      29.134  31.536  49.219  1.00  0.00     0.008 A
HETATM    3  C3  UNL     1      29.895  32.689  49.178  1.00  0.00     0.044 A
HETATM    4  C4  UNL     1      30.204  33.293  47.985  1.00  0.00     0.078 A
HETATM    5  N1  UNL     1      30.945  34.419  47.899  1.00  0.00    -0.190 N
ATOM      6  H1  UNL     1      31.295  34.845  48.757  1.00  0.00     0.184 HD
HETATM    7  C5  UNL     1      31.235  34.993  46.725  1.00  0.00     0.678 A
HETATM    8  N4  UNL     1      30.804  34.475  45.568  1.00  0.00    -0.194 N
ATOM      9  H4  UNL     1      31.037  34.927  44.683  1.00  0.00     0.184 HD
HETATM   10  C8  UNL     1      30.049  33.337  45.583  1.00  0.00     0.051 A
HETATM   11  C9  UNL     1      29.567  32.756  44.319  1.00  0.00     0.071 C
HETATM   12  C10 UNL     1      29.752  32.748  46.794  1.00  0.00     0.085 A
HETATM   13  N5  UNL     1      29.005  31.614  46.864  1.00  0.00    -0.320 N
ATOM     14  H5  UNL     1      28.665  31.202  45.994  1.00  0.00     0.169 HD
HETATM   15  C11 UNL     1      28.694  31.013  48.017  1.00  0.00     0.252 A
HETATM   16  O1  UNL     1      28.000  29.960  48.068  1.00  0.00    -0.268 OA
ENDROOT
BRANCH   7  17
HETATM   17  N2  UNL     1      31.944  36.063  46.701  1.00  0.00    -0.224 N
ATOM     18  H2  UNL     1      32.853  36.053  46.238  1.00  0.00     0.177 HD
BRANCH  17  19
HETATM   19  C6  UNL     1      31.473  37.284  47.320  1.00  0.00     0.165 C
BRANCH  19  20
HETATM   20  C7  UNL     1      32.449  38.380  46.972  1.00  0.00     0.249 C
BRANCH  20  21
HETATM   21  N3  UNL     1      33.266  38.034  45.832  1.00  0.00    -0.078 N
ATOM     22  H33 UNL     1      33.631  37.084  45.912  1.00  0.00     0.274 HD
ATOM     23  H32 UNL     1      32.699  37.918  44.992  1.00  0.00     0.274 HD
ATOM     24  H31 UNL     1      34.017  38.707  45.683  1.00  0.00     0.274 HD
ENDBRANCH  20  21
ENDBRANCH  19  20
ENDBRANCH  17  19
ENDBRANCH   7  17
TORSDOF 4
ENDMDL