MODEL 3
REMARK VINA RESULT: -6.283281613      1.813      2.361
REMARK  2 active torsions:
REMARK  status: ('A' for Active; 'I' for Inactive)
REMARK    1  A    between atoms: C2_2  and  N1_3
REMARK       I    between atoms: C3_5  and  N2_6
REMARK       I    between atoms: C3_5  and  N7_18
REMARK    2  A    between atoms: N7_18  and  C9_20
ROOT
HETATM    1  N1  UNL     1      28.958  33.988  49.240  1.00  0.00    -0.226 N
ATOM      2  H1  UNL     1      29.219  34.056  50.223  1.00  0.00     0.177 HD
HETATM    3  C3  UNL     1      28.548  32.889  48.758  1.00  0.00     0.688 C
HETATM    4  N2  UNL     1      28.190  32.795  47.420  1.00  0.00    -0.022 N
ATOM      5  H2  UNL     1      27.294  33.227  47.195  1.00  0.00     0.203 HD
HETATM    6  C4  UNL     1      28.775  32.271  46.434  1.00  0.00     0.701 A
HETATM    7  N3  UNL     1      28.198  32.315  45.196  1.00  0.00    -0.175 N
ATOM      8  H3  UNL     1      27.302  32.746  44.965  1.00  0.00     0.185 HD
HETATM    9  C5  UNL     1      29.021  31.690  44.339  1.00  0.00     0.170 A
HETATM   10  N4  UNL     1      28.832  31.492  42.935  1.00  0.00    -0.079 NA
HETATM   11  C6  UNL     1      30.104  31.268  45.077  1.00  0.00     0.173 A
HETATM   12  C7  UNL     1      31.231  30.550  44.545  1.00  0.00     0.122 C
HETATM   13  N5  UNL     1      32.154  29.973  44.118  1.00  0.00    -0.190 NA
HETATM   14  N6  UNL     1      29.949  31.630  46.385  1.00  0.00    -0.174 N
HETATM   15  C8  UNL     1      30.906  31.335  47.409  1.00  0.00     0.176 C
HETATM   16  N7  UNL     1      28.452  31.766  49.602  1.00  0.00    -0.226 N
ATOM     17  H7  UNL     1      29.266  31.507  50.159  1.00  0.00     0.177 HD
ENDROOT
BRANCH   1  18
HETATM   18  C2  UNL     1      29.051  35.144  48.376  1.00  0.00     0.133 C
HETATM   19  C1  UNL     1      30.471  35.578  48.159  1.00  0.00     0.027 C
ENDBRANCH   1  18
BRANCH  16  20
HETATM   20  C9  UNL     1      27.254  30.960  49.719  1.00  0.00     0.133 C
HETATM   21  C10 UNL     1      27.338  29.735  48.854  1.00  0.00     0.027 C
ENDBRANCH  16  20
TORSDOF 2
ENDMDL