MODEL 2
REMARK VINA RESULT: -6.669414688      1.882      2.728
REMARK  5 active torsions:
REMARK  status: ('A' for Active; 'I' for Inactive)
REMARK    1  A    between atoms: C5_6  and  C6_7
REMARK    2  A    between atoms: C6_7  and  C7_8
REMARK    3  A    between atoms: C7_8  and  C8_9
REMARK    4  A    between atoms: C8_9  and  N2_10
REMARK    5  A    between atoms: N2_10  and  C9_12
ROOT
HETATM    1  C1  UNL     1      28.797  30.484  47.271  1.00  0.00     0.052 C
HETATM    2  C2  UNL     1      29.838  31.386  46.731  1.00  0.00    -0.014 A
HETATM    3  C3  UNL     1      29.877  32.713  47.064  1.00  0.00     0.087 A
HETATM    4  C4  UNL     1      28.905  33.302  47.959  1.00  0.00     0.103 C
HETATM    5  N1  UNL     1      28.113  33.759  48.679  1.00  0.00    -0.191 NA
HETATM    6  C5  UNL     1      30.846  33.579  46.568  1.00  0.00     0.110 A
HETATM    7  N3  UNL     1      31.753  33.034  45.734  1.00  0.00    -0.333 N
ATOM      8  H3  UNL     1      32.482  33.632  45.346  1.00  0.00     0.168 HD
HETATM    9  C10 UNL     1      31.736  31.738  45.393  1.00  0.00     0.121 A
HETATM   10  N4  UNL     1      32.639  31.297  44.591  1.00  0.00    -0.384 N
ATOM     11  H41 UNL     1      32.626  30.311  44.331  1.00  0.00     0.157 HD
ATOM     12  H42 UNL     1      33.346  31.939  44.231  1.00  0.00     0.157 HD
HETATM   13  C11 UNL     1      30.788  30.878  45.875  1.00  0.00     0.095 A
HETATM   14  C12 UNL     1      30.775  29.469  45.500  1.00  0.00     0.104 C
HETATM   15  N5  UNL     1      30.748  28.354  45.207  1.00  0.00    -0.191 NA
ENDROOT
BRANCH   6  16
HETATM   16  C6  UNL     1      30.850  34.965  46.943  1.00  0.00    -0.045 C
BRANCH  16  17
HETATM   17  C7  UNL     1      30.872  36.128  47.264  1.00  0.00    -0.080 C
BRANCH  17  18
HETATM   18  C8  UNL     1      30.924  37.555  47.652  1.00  0.00     0.216 C
BRANCH  18  19
HETATM   19  N2  UNL     1      32.202  38.139  47.263  1.00  0.00    -0.358 N
ATOM     20  H2  UNL     1      33.050  37.574  47.233  1.00  0.00     0.162 HD
BRANCH  19  21
HETATM   21  C9  UNL     1      32.232  39.531  46.926  1.00  0.00     0.349 C
HETATM   22  O1  UNL     1      31.196  40.156  46.628  1.00  0.00    -0.284 OA
ENDBRANCH  19  21
ENDBRANCH  18  19
ENDBRANCH  17  18
ENDBRANCH  16  17
ENDBRANCH   6  16
TORSDOF 5
ENDMDL