MODEL 2
REMARK VINA RESULT: -6.558448999      1.482      1.711
REMARK  4 active torsions:
REMARK  status: ('A' for Active; 'I' for Inactive)
REMARK    1  A    between atoms: C5_5  and  N1_6
REMARK    2  A    between atoms: N1_6  and  C6_8
REMARK    3  A    between atoms: C6_8  and  C7_9
REMARK    4  A    between atoms: C11_18  and  N5_19
ROOT
HETATM    1  C1  UNL     1      31.921  29.776  45.789  1.00  0.00     0.019 C
HETATM    2  C2  UNL     1      31.435  30.816  46.158  1.00  0.00    -0.059 C
HETATM    3  C3  UNL     1      30.840  32.039  46.583  1.00  0.00     0.105 A
HETATM    4  C4  UNL     1      31.515  33.258  46.528  1.00  0.00     0.088 A
HETATM    5  C5  UNL     1      30.896  34.415  46.953  1.00  0.00     0.119 A
HETATM    6  N4  UNL     1      29.641  34.325  47.412  1.00  0.00    -0.177 N
ATOM      7  H4  UNL     1      29.168  35.172  47.730  1.00  0.00     0.185 HD
HETATM    8  C11 UNL     1      28.986  33.153  47.467  1.00  0.00     0.678 A
HETATM    9  N6  UNL     1      29.587  32.026  47.055  1.00  0.00    -0.184 N
ATOM     10  H6  UNL     1      29.079  31.142  47.101  1.00  0.00     0.185 HD
ENDROOT
BRANCH   5  11
HETATM   11  N1  UNL     1      31.466  35.558  46.925  1.00  0.00    -0.370 N
ATOM     12  H1  UNL     1      32.338  35.698  46.414  1.00  0.00     0.161 HD
BRANCH  11  13
HETATM   13  C6  UNL     1      30.842  36.644  47.635  1.00  0.00     0.179 C
BRANCH  13  14
HETATM   14  C7  UNL     1      31.389  37.969  47.328  1.00  0.00     0.045 A
HETATM   15  C8  UNL     1      32.677  38.204  46.841  1.00  0.00     0.115 A
HETATM   16  N2  UNL     1      32.831  39.526  46.676  1.00  0.00    -0.360 N
HETATM   17  C9  UNL     1      31.677  40.114  47.047  1.00  0.00     0.182 A
ATOM     18  H2  UNL     1      33.667  39.999  46.332  1.00  0.00     0.166 HD
HETATM   19  N3  UNL     1      30.798  39.155  47.445  1.00  0.00    -0.348 N
HETATM   20  C10 UNL     1      29.462  39.442  47.907  1.00  0.00     0.157 C
ENDBRANCH  13  14
ENDBRANCH  11  13
ENDBRANCH   5  11
BRANCH   8  21
HETATM   21  N5  UNL     1      27.759  33.149  47.930  1.00  0.00    -0.234 N
ATOM     22  H52 UNL     1      27.488  33.716  48.733  1.00  0.00     0.174 HD
ATOM     23  H51 UNL     1      27.069  32.559  47.464  1.00  0.00     0.174 HD
ENDBRANCH   8  21
TORSDOF 4
ENDMDL