MODEL 3
REMARK VINA RESULT: -6.855371749      1.787      6.181
REMARK  4 active torsions:
REMARK  status: ('A' for Active; 'I' for Inactive)
REMARK    1  A    between atoms: C4_4  and  N1_5
REMARK    2  A    between atoms: C7_12  and  N3_13
REMARK    3  A    between atoms: N3_13  and  C8_15
REMARK    4  A    between atoms: C8_15  and  C9_16
ROOT
HETATM    1  C9  UNL     1      31.763  29.291  45.658  1.00  0.00     0.144 C
HETATM    2  C10 UNL     1      31.704  29.775  44.278  1.00  0.00     0.060 C
HETATM    3  N4  UNL     1      31.675  30.171  43.176  1.00  0.00    -0.197 NA
ENDROOT
BRANCH   1   4
HETATM    4  C8  UNL     1      31.842  30.534  46.551  1.00  0.00     0.152 C
BRANCH   4   5
HETATM    5  N3  UNL     1      31.276  31.624  45.827  1.00  0.00    -0.225 N
ATOM      6  H3  UNL     1      31.249  31.585  44.808  1.00  0.00     0.177 HD
BRANCH   5   7
HETATM    7  C7  UNL     1      30.795  32.664  46.434  1.00  0.00     0.679 A
HETATM    8  N2  UNL     1      29.689  32.655  47.168  1.00  0.00    -0.201 N
HETATM    9  C6  UNL     1      29.259  33.800  47.771  1.00  0.00     0.123 A
ATOM     10  H2  UNL     1      29.160  31.790  47.282  1.00  0.00     0.183 HD
HETATM   11  C5  UNL     1      29.968  34.980  47.625  1.00  0.00     0.051 A
HETATM   12  C4  UNL     1      29.558  36.146  48.220  1.00  0.00     0.043 A
HETATM   13  C11 UNL     1      31.121  34.989  46.858  1.00  0.00     0.135 A
HETATM   14  C3  UNL     1      30.351  37.275  48.003  1.00  0.00     0.054 A
HETATM   15  C2  UNL     1      31.484  37.279  47.249  1.00  0.00     0.009 A
HETATM   16  C1  UNL     1      32.323  38.478  47.021  1.00  0.00     0.068 C
HETATM   17  N6  UNL     1      31.857  36.124  46.682  1.00  0.00    -0.345 N
ATOM     18  H6  UNL     1      32.702  36.094  46.111  1.00  0.00     0.167 HD
HETATM   19  N5  UNL     1      31.489  33.830  46.294  1.00  0.00    -0.176 N
ATOM     20  H5  UNL     1      32.337  33.818  45.727  1.00  0.00     0.186 HD
BRANCH  12  21
HETATM   21  N1  UNL     1      28.502  36.206  48.940  1.00  0.00    -0.398 N
ATOM     22  H12 UNL     1      28.544  36.258  49.958  1.00  0.00     0.156 HD
ATOM     23  H11 UNL     1      27.573  36.203  48.519  1.00  0.00     0.156 HD
ENDBRANCH  12  21
ENDBRANCH   5   7
ENDBRANCH   4   5
ENDBRANCH   1   4
TORSDOF 4
ENDMDL