MODEL 4
REMARK VINA RESULT: -5.882781952      1.383      5.219
REMARK  4 active torsions:
REMARK  status: ('A' for Active; 'I' for Inactive)
REMARK    1  A    between atoms: C2_2  and  C3_3
REMARK    2  A    between atoms: C3_3  and  N1_4
REMARK    3  A    between atoms: N1_4  and  C4_6
REMARK    4  A    between atoms: C7_11  and  N3_12
ROOT
HETATM    1  C4  UNL     1      30.919  32.787  45.578  1.00  0.00     0.681 A
HETATM    2  N2  UNL     1      31.346  33.978  45.973  1.00  0.00    -0.174 N
ATOM      3  H2  UNL     1      32.211  34.369  45.597  1.00  0.00     0.186 HD
HETATM    4  C5  UNL     1      30.623  34.661  46.874  1.00  0.00     0.150 A
HETATM    5  C6  UNL     1      29.436  34.169  47.414  1.00  0.00     0.121 A
HETATM    6  C7  UNL     1      29.001  32.926  46.997  1.00  0.00     0.145 A
HETATM    7  N4  UNL     1      29.783  32.294  46.085  1.00  0.00    -0.175 N
ATOM      8  H4  UNL     1      29.482  31.375  45.762  1.00  0.00     0.186 HD
HETATM    9  N5  UNL     1      28.881  35.115  48.321  1.00  0.00    -0.363 N
HETATM   10  C8  UNL     1      27.503  35.265  48.727  1.00  0.00     0.152 C
HETATM   11  C9  UNL     1      30.026  35.932  48.756  1.00  0.00     0.250 C
HETATM   12  N6  UNL     1      30.794  35.941  47.514  1.00  0.00    -0.353 N
HETATM   13  C10 UNL     1      31.589  37.038  47.018  1.00  0.00     0.153 C
ENDROOT
BRANCH   1  14
HETATM   14  N1  UNL     1      31.528  32.042  44.722  1.00  0.00    -0.226 N
ATOM     15  H1  UNL     1      31.214  32.107  43.754  1.00  0.00     0.177 HD
BRANCH  14  16
HETATM   16  C3  UNL     1      32.587  31.144  44.988  1.00  0.00     0.137 C
BRANCH  16  17
HETATM   17  C2  UNL     1      32.228  29.752  44.479  1.00  0.00     0.016 C
HETATM   18  C1  UNL     1      31.415  28.991  45.502  1.00  0.00     0.006 C
ENDBRANCH  16  17
ENDBRANCH  14  16
ENDBRANCH   1  14
BRANCH   6  19
HETATM   19  N3  UNL     1      27.933  32.384  47.445  1.00  0.00    -0.383 N
ATOM     20  H32 UNL     1      27.121  32.945  47.701  1.00  0.00     0.157 HD
ATOM     21  H31 UNL     1      27.835  31.375  47.558  1.00  0.00     0.157 HD
ENDBRANCH   6  19
TORSDOF 4
ENDMDL