MODEL 4
REMARK VINA RESULT: -5.481849561      1.838      3.682
REMARK  5 active torsions:
REMARK  status: ('A' for Active; 'I' for Inactive)
REMARK    1  A    between atoms: C4_9  and  N3_10
REMARK    2  A    between atoms: N3_10  and  C5_12
REMARK    3  A    between atoms: C5_12  and  N4_14
REMARK    4  A    between atoms: C7_18  and  N5_19
REMARK    5  A    between atoms: N6_21  and  N7_23
ROOT
HETATM    1  C1  UNL     1      29.128  35.556  49.620  1.00  0.00     0.071 C
HETATM    2  C2  UNL     1      29.863  35.350  48.334  1.00  0.00     0.041 A
HETATM    3  N1  UNL     1      30.580  36.335  47.763  1.00  0.00    -0.310 N
ATOM      4  H1  UNL     1      30.621  37.243  48.226  1.00  0.00     0.170 HD
HETATM    5  C3  UNL     1      31.246  36.167  46.608  1.00  0.00     0.326 A
HETATM    6  O1  UNL     1      31.904  37.142  46.125  1.00  0.00    -0.247 OA
HETATM    7  N2  UNL     1      31.190  34.970  46.007  1.00  0.00    -0.293 N
ATOM      8  H2  UNL     1      31.695  34.839  45.131  1.00  0.00     0.172 HD
HETATM    9  C4  UNL     1      30.501  33.942  46.508  1.00  0.00     0.137 A
HETATM   10  C7  UNL     1      29.814  34.140  47.712  1.00  0.00     0.115 A
ENDROOT
BRANCH   9  11
HETATM   11  N3  UNL     1      30.442  32.775  45.927  1.00  0.00    -0.347 N
ATOM     12  H3  UNL     1      29.584  32.464  45.472  1.00  0.00     0.163 HD
BRANCH  11  13
HETATM   13  C5  UNL     1      31.602  31.938  45.940  1.00  0.00     0.279 C
HETATM   14  C6  UNL     1      31.290  30.508  46.375  1.00  0.00     0.063 C
BRANCH  13  15
HETATM   15  N4  UNL     1      32.135  31.891  44.569  1.00  0.00    -0.059 N
ATOM     16  H43 UNL     1      31.637  31.230  43.973  1.00  0.00     0.276 HD
ATOM     17  H42 UNL     1      31.930  32.735  44.033  1.00  0.00     0.276 HD
ATOM     18  H41 UNL     1      33.133  31.694  44.631  1.00  0.00     0.276 HD
ENDBRANCH  13  15
ENDBRANCH  11  13
ENDBRANCH   9  11
BRANCH  10  19
HETATM   19  N5  UNL     1      29.077  33.065  48.264  1.00  0.00    -0.281 N
HETATM   20  N6  UNL     1      29.603  32.214  49.054  1.00  0.00    -0.245 N
ATOM     21  H6  UNL     1      30.588  32.302  49.303  1.00  0.00     0.208 HD
ATOM     22  H5  UNL     1      28.091  32.968  48.020  1.00  0.00     0.188 HD
BRANCH  20  23
HETATM   23  N7  UNL     1      28.864  31.180  49.577  1.00  0.00    -0.322 N
HETATM   24  C8  UNL     1      27.914  30.498  48.723  1.00  0.00     0.172 C
HETATM   25  C9  UNL     1      28.999  30.747  50.948  1.00  0.00     0.172 C
ENDBRANCH  20  23
ENDBRANCH  10  19
TORSDOF 5
ENDMDL