MODEL 5
REMARK VINA RESULT: -6.093445504      2.822      6.514
REMARK  5 active torsions:
REMARK  status: ('A' for Active; 'I' for Inactive)
REMARK    1  A    between atoms: O1_2  and  C2_3
REMARK    2  A    between atoms: C3_6  and  N2_7
REMARK       I    between atoms: N2_7  and  C4_8
REMARK    3  A    between atoms: C4_8  and  C5_10
REMARK    4  A    between atoms: C5_10  and  N3_12
REMARK       I    between atoms: N3_12  and  C7_14
REMARK    5  A    between atoms: C8_19  and  N7_20
ROOT
HETATM    1  C2  UNL     1     -13.321  -9.411  -5.538  1.00  0.00     0.241 A
HETATM    2  N1  UNL     1     -14.136  -8.374  -5.461  1.00  0.00    -0.281 N
ATOM      3  H1  UNL     1     -13.784  -7.531  -5.006  1.00  0.00     0.173 HD
HETATM    4  C3  UNL     1     -15.424  -8.340  -5.946  1.00  0.00     0.280 A
HETATM    5  N6  UNL     1     -15.903  -9.477  -6.558  1.00  0.00    -0.149 N
ATOM      6  H6  UNL     1     -16.849  -9.519  -6.938  1.00  0.00     0.188 HD
HETATM    7  C8  UNL     1     -15.075 -10.523  -6.634  1.00  0.00     0.682 A
HETATM    8  N8  UNL     1     -13.836 -10.517  -6.154  1.00  0.00    -0.155 N
ATOM      9  H8  UNL     1     -13.258 -11.353  -6.249  1.00  0.00     0.188 HD
ENDROOT
BRANCH   4  10
HETATM   10  N2  UNL     1     -16.087  -7.345  -5.902  1.00  0.00    -0.332 NA
HETATM   11  C4  UNL     1     -16.853  -6.276  -5.751  1.00  0.00     0.317 C
HETATM   12  O2  UNL     1     -17.687  -6.210  -4.789  1.00  0.00    -0.255 OA
BRANCH  11  13
HETATM   13  C5  UNL     1     -16.819  -5.063  -6.686  1.00  0.00     0.187 C
HETATM   14  C6  UNL     1     -18.221  -4.525  -6.592  1.00  0.00     0.043 C
BRANCH  13  15
HETATM   15  N3  UNL     1     -16.331  -5.418  -7.906  1.00  0.00    -0.353 N
HETATM   16  C7  UNL     1     -15.185  -5.019  -8.552  1.00  0.00     0.197 C
HETATM   17  N4  UNL     1     -13.928  -5.342  -7.881  1.00  0.00    -0.067 NA
HETATM   18  N5  UNL     1     -15.059  -3.715  -9.110  1.00  0.00    -0.067 NA
ATOM     19  H3  UNL     1     -16.906  -6.084  -8.421  1.00  0.00     0.162 HD
ENDBRANCH  13  15
ENDBRANCH  11  13
ENDBRANCH   4  10
BRANCH   1  20
HETATM   20  O1  UNL     1     -12.062  -9.386  -5.037  1.00  0.00    -0.327 OA
HETATM   21  C1  UNL     1     -10.960 -10.170  -5.284  1.00  0.00     0.213 C
ENDBRANCH   1  20
BRANCH   7  22
HETATM   22  N7  UNL     1     -15.504 -11.623  -7.192  1.00  0.00    -0.234 N
ATOM     23  H72 UNL     1     -16.492 -11.853  -7.086  1.00  0.00     0.174 HD
ATOM     24  H71 UNL     1     -14.843 -12.196  -7.718  1.00  0.00     0.174 HD
ENDBRANCH   7  22
TORSDOF 5
ENDMDL