MODEL 3
REMARK VINA RESULT: -6.233524907      0.797      1.975
REMARK  7 active torsions:
REMARK  status: ('A' for Active; 'I' for Inactive)
REMARK    1  A    between atoms: N5_15  and  C6_16
REMARK    2  A    between atoms: C6_16  and  C7_17
REMARK       I    between atoms: C7_17  and  N6_19
REMARK    3  A    between atoms: N6_19  and  N7_21
REMARK    4  A    between atoms: N7_21  and  C8_22
REMARK    5  A    between atoms: C8_22  and  O2_23
REMARK    6  A    between atoms: C8_22  and  N8_25
REMARK    7  A    between atoms: N8_25  and  N9_27
ROOT
HETATM    1  N1  UNL     1     -16.438  -7.783  -6.223  1.00  0.00    -0.383 N
ATOM      2  H11 UNL     1     -16.895  -8.694  -6.284  1.00  0.00     0.157 HD
ATOM      3  H12 UNL     1     -17.038  -6.959  -6.201  1.00  0.00     0.157 HD
HETATM    4  C1  UNL     1     -15.167  -7.713  -6.179  1.00  0.00     0.131 A
HETATM    5  N2  UNL     1     -14.561  -6.503  -6.097  1.00  0.00    -0.337 N
ATOM      6  H2  UNL     1     -15.140  -5.664  -6.073  1.00  0.00     0.168 HD
HETATM    7  C2  UNL     1     -13.209  -6.370  -6.045  1.00  0.00     0.183 A
HETATM    8  N3  UNL     1     -12.445  -7.493  -6.074  1.00  0.00    -0.336 N
ATOM      9  H3  UNL     1     -11.429  -7.409  -6.033  1.00  0.00     0.168 HD
HETATM   10  C3  UNL     1     -12.988  -8.681  -6.153  1.00  0.00     0.141 A
HETATM   11  C4  UNL     1     -14.356  -8.826  -6.208  1.00  0.00     0.122 A
HETATM   12  N4  UNL     1     -14.559 -10.150  -6.300  1.00  0.00    -0.346 N
ATOM     13  H4  UNL     1     -15.470 -10.603  -6.354  1.00  0.00     0.167 HD
HETATM   14  C5  UNL     1     -13.356 -10.796  -6.310  1.00  0.00     0.185 A
HETATM   15  N5  UNL     1     -12.355  -9.925  -6.214  1.00  0.00    -0.318 N
ENDROOT
BRANCH  15  16
HETATM   16  C6  UNL     1     -10.953 -10.090  -6.090  1.00  0.00     0.236 C
BRANCH  16  17
HETATM   17  C7  UNL     1     -10.426 -10.763  -4.881  1.00  0.00     0.264 C
HETATM   18  O1  UNL     1     -10.407 -10.235  -3.795  1.00  0.00    -0.269 OA
HETATM   19  N6  UNL     1      -9.954 -12.083  -5.135  1.00  0.00    -0.197 N
ATOM     20  H6  UNL     1     -10.055 -12.344  -6.116  1.00  0.00     0.205 HD
BRANCH  19  21
HETATM   21  N7  UNL     1      -9.420 -13.049  -4.417  1.00  0.00    -0.276 NA
BRANCH  21  22
HETATM   22  C8  UNL     1      -8.870 -14.042  -3.678  1.00  0.00     0.333 C
BRANCH  22  23
HETATM   23  O2  UNL     1      -9.700 -14.752  -2.911  1.00  0.00    -0.319 OA
ATOM     24  H2  UNL     1      -9.980 -14.351  -2.096  1.00  0.00     0.222 HD
ENDBRANCH  22  23
BRANCH  22  25
HETATM   25  N8  UNL     1      -7.522 -14.472  -3.587  1.00  0.00    -0.258 N
ATOM     26  H8  UNL     1      -7.225 -15.357  -3.996  1.00  0.00     0.191 HD
BRANCH  25  27
HETATM   27  N9  UNL     1      -6.595 -13.629  -2.908  1.00  0.00    -0.341 N
ATOM     28  H92 UNL     1      -6.382 -13.794  -1.924  1.00  0.00     0.177 HD
ATOM     29  H91 UNL     1      -6.162 -12.870  -3.434  1.00  0.00     0.177 HD
ENDBRANCH  25  27
ENDBRANCH  22  25
ENDBRANCH  21  22
ENDBRANCH  19  21
ENDBRANCH  16  17
ENDBRANCH  15  16
TORSDOF 7
ENDMDL