MODEL 5
REMARK VINA RESULT: -6.173398073      2.898      5.928
REMARK  4 active torsions:
REMARK  status: ('A' for Active; 'I' for Inactive)
REMARK    1  A    between atoms: C2_2  and  N1_3
REMARK    2  A    between atoms: C2_2  and  C8_21
REMARK    3  A    between atoms: N1_3  and  C3_5
REMARK    4  A    between atoms: C5_13  and  O2_14
ROOT
HETATM    1  C3  UNL     1     -15.030  -7.408  -5.993  1.00  0.00     0.186 A
HETATM    2  N2  UNL     1     -15.650  -8.577  -6.205  1.00  0.00    -0.269 N
ATOM      3  H2  UNL     1     -16.668  -8.584  -6.273  1.00  0.00     0.189 HD
HETATM    4  N3  UNL     1     -14.998  -9.724  -6.332  1.00  0.00    -0.182 N
HETATM    5  C4  UNL     1     -15.380 -11.004  -6.546  1.00  0.00     0.349 A
HETATM    6  O1  UNL     1     -16.575 -11.408  -6.681  1.00  0.00    -0.244 OA
HETATM    7  N4  UNL     1     -14.301 -11.796  -6.593  1.00  0.00    -0.284 N
ATOM      8  H4  UNL     1     -14.301 -12.805  -6.741  1.00  0.00     0.172 HD
HETATM    9  C5  UNL     1     -13.219 -11.022  -6.410  1.00  0.00     0.191 A
HETATM   10  C6  UNL     1     -13.637  -9.732  -6.246  1.00  0.00     0.186 A
HETATM   11  N5  UNL     1     -12.953  -8.595  -6.035  1.00  0.00    -0.301 N
ATOM     12  H5  UNL     1     -11.936  -8.597  -5.969  1.00  0.00     0.171 HD
HETATM   13  C7  UNL     1     -13.654  -7.457  -5.912  1.00  0.00     0.292 A
HETATM   14  O3  UNL     1     -13.025  -6.383  -5.714  1.00  0.00    -0.264 OA
ENDROOT
BRANCH   1  15
HETATM   15  N1  UNL     1     -15.730  -6.156  -5.857  1.00  0.00    -0.358 N
ATOM     16  H1  UNL     1     -15.243  -5.297  -6.113  1.00  0.00     0.162 HD
BRANCH  15  17
HETATM   17  C2  UNL     1     -17.069  -6.059  -5.381  1.00  0.00     0.168 C
HETATM   18  C1  UNL     1     -17.424  -4.570  -5.296  1.00  0.00     0.042 C
BRANCH  17  19
HETATM   19  C8  UNL     1     -17.262  -6.599  -4.015  1.00  0.00     0.253 C
HETATM   20  N6  UNL     1     -16.931  -5.785  -2.905  1.00  0.00    -0.060 NA
HETATM   21  O4  UNL     1     -17.713  -7.758  -3.874  1.00  0.00    -0.275 OA
ENDBRANCH  17  19
ENDBRANCH  15  17
ENDBRANCH   1  15
BRANCH   9  22
HETATM   22  O2  UNL     1     -11.892 -11.479  -6.392  1.00  0.00    -0.343 OA
ATOM     23  H2  UNL     1     -11.122 -10.926  -6.457  1.00  0.00     0.219 HD
ENDBRANCH   9  22
TORSDOF 4
ENDMDL