MODEL 4
REMARK VINA RESULT: -6.425022100      2.847      3.652
REMARK  4 active torsions:
REMARK  status: ('A' for Active; 'I' for Inactive)
REMARK    1  A    between atoms: N1_1  and  C1_4
REMARK    2  A    between atoms: C4_13  and  N4_14
REMARK    3  A    between atoms: N4_14  and  N5_16
REMARK    4  A    between atoms: C5_18  and  C6_19
ROOT
HETATM    1  C1  UNL     1     -14.684 -10.707  -6.888  1.00  0.00     0.681 C
HETATM    2  N2  UNL     1     -13.517 -11.351  -6.656  1.00  0.00    -0.141 N
ATOM      3  H2  UNL     1     -13.529 -12.361  -6.803  1.00  0.00     0.189 HD
HETATM    4  C2  UNL     1     -12.329 -10.826  -6.252  1.00  0.00     0.341 C
HETATM    5  O1  UNL     1     -11.402 -11.652  -6.058  1.00  0.00    -0.246 OA
HETATM    6  N3  UNL     1     -12.011  -9.538  -6.031  1.00  0.00    -0.272 N
ATOM      7  H3  UNL     1     -11.031  -9.343  -5.828  1.00  0.00     0.174 HD
HETATM    8  C3  UNL     1     -12.833  -8.482  -6.048  1.00  0.00     0.295 C
HETATM    9  O2  UNL     1     -12.269  -7.362  -5.947  1.00  0.00    -0.264 OA
HETATM   10  C4  UNL     1     -14.212  -8.436  -6.161  1.00  0.00     0.204 C
HETATM   11  N9  UNL     1     -14.982  -9.415  -6.648  1.00  0.00    -0.170 N
ATOM     12  H9  UNL     1     -15.938  -9.143  -6.871  1.00  0.00     0.186 HD
ENDROOT
BRANCH  10  13
HETATM   13  N4  UNL     1     -14.804  -7.346  -5.757  1.00  0.00    -0.281 N
ATOM     14  H4  UNL     1     -14.868  -7.120  -4.764  1.00  0.00     0.188 HD
BRANCH  13  15
HETATM   15  N5  UNL     1     -15.345  -6.498  -6.724  1.00  0.00    -0.308 N
HETATM   16  C5  UNL     1     -14.754  -5.430  -7.095  1.00  0.00     0.140 C
ATOM     17  H5  UNL     1     -16.241  -6.739  -7.148  1.00  0.00     0.186 HD
BRANCH  16  18
HETATM   18  C6  UNL     1     -15.355  -4.568  -8.114  1.00  0.00     0.091 A
HETATM   19  N6  UNL     1     -14.696  -3.912  -9.083  1.00  0.00    -0.348 N
HETATM   20  C7  UNL     1     -15.617  -3.239  -9.797  1.00  0.00     0.182 A
ATOM     21  H6  UNL     1     -13.689  -3.921  -9.248  1.00  0.00     0.167 HD
HETATM   22  N7  UNL     1     -16.838  -3.464  -9.290  1.00  0.00    -0.339 N
HETATM   23  C8  UNL     1     -16.700  -4.295  -8.232  1.00  0.00     0.145 A
ATOM     24  H7  UNL     1     -17.714  -3.078  -9.640  1.00  0.00     0.167 HD
HETATM   25  N8  UNL     1     -17.734  -4.806  -7.386  1.00  0.00    -0.080 NA
ENDBRANCH  16  18
ENDBRANCH  13  15
ENDBRANCH  10  13
BRANCH   1  26
HETATM   26  N1  UNL     1     -15.636 -11.406  -7.402  1.00  0.00    -0.234 N
ATOM     27  H12 UNL     1     -15.810 -12.305  -6.953  1.00  0.00     0.174 HD
ATOM     28  H11 UNL     1     -16.120 -10.998  -8.202  1.00  0.00     0.174 HD
ENDBRANCH   1  26
TORSDOF 4
ENDMDL