MODEL 1
REMARK VINA RESULT: -6.751455687      0.000      0.000
REMARK  4 active torsions:
REMARK  status: ('A' for Active; 'I' for Inactive)
REMARK       I    between atoms: N1_1  and  C1_4
REMARK    1  A    between atoms: N3_6  and  N4_8
REMARK       I    between atoms: N4_8  and  C2_9
REMARK    2  A    between atoms: C2_9  and  C3_11
REMARK    3  A    between atoms: C3_11  and  N5_12
REMARK    4  A    between atoms: C7_21  and  N8_22
ROOT
HETATM    1  N5  UNL     1     -14.523  -9.225  -6.102  1.00  0.00    -0.317 N
HETATM    2  C4  UNL     1     -15.543  -9.965  -5.704  1.00  0.00     0.185 A
HETATM    3  N6  UNL     1     -16.490  -9.219  -5.122  1.00  0.00    -0.345 N
ATOM      4  H6  UNL     1     -17.382  -9.556  -4.757  1.00  0.00     0.167 HD
HETATM    5  C5  UNL     1     -16.037  -7.889  -5.103  1.00  0.00     0.147 A
HETATM    6  C6  UNL     1     -16.561  -6.738  -4.610  1.00  0.00     0.290 A
HETATM    7  O2  UNL     1     -17.682  -6.721  -4.087  1.00  0.00    -0.265 OA
HETATM    8  N7  UNL     1     -15.782  -5.648  -4.735  1.00  0.00    -0.154 N
ATOM      9  H7  UNL     1     -16.134  -4.755  -4.391  1.00  0.00     0.187 HD
HETATM   10  C7  UNL     1     -14.537  -5.688  -5.307  1.00  0.00     0.680 A
HETATM   11  N9  UNL     1     -14.049  -6.812  -5.796  1.00  0.00    -0.174 N
ATOM     12  H9  UNL     1     -13.127  -6.817  -6.232  1.00  0.00     0.186 HD
HETATM   13  C8  UNL     1     -14.777  -7.983  -5.723  1.00  0.00     0.157 A
ENDROOT
BRANCH   1  14
HETATM   14  C3  UNL     1     -13.543  -9.578  -7.066  1.00  0.00     0.252 C
BRANCH  14  15
HETATM   15  C2  UNL     1     -12.945 -10.930  -6.360  1.00  0.00     0.330 C
HETATM   16  N4  UNL     1     -11.964 -10.505  -5.572  1.00  0.00    -0.283 NA
HETATM   17  O1  UNL     1     -13.414 -11.987  -6.598  1.00  0.00    -0.253 OA
BRANCH  16  18
HETATM   18  N3  UNL     1     -10.976 -10.085  -4.776  1.00  0.00    -0.203 N
HETATM   19  C1  UNL     1      -9.756 -10.045  -4.400  1.00  0.00     0.211 C
HETATM   20  N1  UNL     1      -8.946  -8.995  -4.474  1.00  0.00    -0.372 N
HETATM   21  N2  UNL     1      -9.166 -11.203  -3.700  1.00  0.00    -0.062 NA
ATOM     22  H12 UNL     1      -7.972  -8.963  -4.174  1.00  0.00     0.158 HD
ATOM     23  H11 UNL     1      -9.354  -8.195  -4.957  1.00  0.00     0.158 HD
ATOM     24  H3  UNL     1     -11.448  -9.466  -4.117  1.00  0.00     0.205 HD
ENDBRANCH  16  18
ENDBRANCH  14  15
ENDBRANCH   1  14
BRANCH  10  25
HETATM   25  N8  UNL     1     -13.768  -4.662  -5.220  1.00  0.00    -0.234 N
ATOM     26  H82 UNL     1     -13.937  -3.865  -5.833  1.00  0.00     0.174 HD
ATOM     27  H81 UNL     1     -12.930  -4.710  -4.640  1.00  0.00     0.174 HD
ENDBRANCH  10  25
TORSDOF 4
ENDMDL