MODEL 2
REMARK VINA RESULT: -6.275667477      4.158      6.247
REMARK  4 active torsions:
REMARK  status: ('A' for Active; 'I' for Inactive)
REMARK       I    between atoms: N1_1  and  C1_4
REMARK       I    between atoms: C1_4  and  N3_6
REMARK    1  A    between atoms: N3_6  and  N4_8
REMARK       I    between atoms: N4_8  and  C2_10
REMARK    2  A    between atoms: C2_10  and  C3_12
REMARK    3  A    between atoms: C3_12  and  N5_13
REMARK    4  A    between atoms: C6_18  and  N7_19
ROOT
HETATM    1  N5  UNL     1     -12.171 -10.268  -6.058  1.00  0.00    -0.318 N
HETATM    2  C4  UNL     1     -12.054  -8.928  -5.955  1.00  0.00     0.185 A
HETATM    3  N6  UNL     1     -13.270  -8.356  -5.998  1.00  0.00    -0.346 N
ATOM      4  H6  UNL     1     -13.468  -7.357  -5.941  1.00  0.00     0.167 HD
HETATM    5  C5  UNL     1     -14.185  -9.346  -6.134  1.00  0.00     0.122 A
HETATM    6  C6  UNL     1     -15.565  -9.365  -6.231  1.00  0.00     0.131 A
HETATM    7  N8  UNL     1     -16.213 -10.528  -6.358  1.00  0.00    -0.337 N
ATOM      8  H8  UNL     1     -17.230 -10.551  -6.429  1.00  0.00     0.168 HD
HETATM    9  C7  UNL     1     -15.501 -11.666  -6.390  1.00  0.00     0.183 A
HETATM   10  N9  UNL     1     -14.161 -11.714  -6.301  1.00  0.00    -0.336 N
ATOM     11  H9  UNL     1     -13.664 -12.605  -6.330  1.00  0.00     0.168 HD
HETATM   12  C8  UNL     1     -13.485 -10.534  -6.170  1.00  0.00     0.141 A
ENDROOT
BRANCH   1  13
HETATM   13  C3  UNL     1     -11.091 -11.235  -6.051  1.00  0.00     0.235 C
BRANCH  13  14
HETATM   14  C2  UNL     1     -10.345 -11.202  -4.767  1.00  0.00     0.254 C
HETATM   15  N4  UNL     1      -9.593 -10.063  -4.359  1.00  0.00    -0.266 N
ATOM     16  H4  UNL     1      -9.559  -9.239  -4.958  1.00  0.00     0.190 HD
HETATM   17  O1  UNL     1     -10.375 -12.202  -4.018  1.00  0.00    -0.270 OA
BRANCH  15  18
HETATM   18  N3  UNL     1      -8.903 -10.065  -3.148  1.00  0.00    -0.271 N
HETATM   19  C1  UNL     1      -8.145  -8.947  -2.729  1.00  0.00     0.200 C
HETATM   20  N1  UNL     1      -8.100  -7.887  -3.460  1.00  0.00    -0.372 N
HETATM   21  N2  UNL     1      -7.418  -8.953  -1.504  1.00  0.00    -0.062 NA
ATOM     22  H12 UNL     1      -7.554  -7.081  -3.158  1.00  0.00     0.158 HD
ATOM     23  H11 UNL     1      -8.621  -7.882  -4.338  1.00  0.00     0.158 HD
ATOM     24  H3  UNL     1      -8.946 -10.891  -2.551  1.00  0.00     0.189 HD
ENDBRANCH  15  18
ENDBRANCH  13  14
ENDBRANCH   1  13
BRANCH   6  25
HETATM   25  N7  UNL     1     -16.153  -8.215  -6.188  1.00  0.00    -0.383 N
ATOM     26  H72 UNL     1     -17.164  -8.095  -6.128  1.00  0.00     0.157 HD
ATOM     27  H71 UNL     1     -15.541  -7.398  -6.217  1.00  0.00     0.157 HD
ENDBRANCH   6  25
TORSDOF 4
ENDMDL