MODEL 4
REMARK VINA RESULT: -5.984130454      3.570      5.029
REMARK  6 active torsions:
REMARK  status: ('A' for Active; 'I' for Inactive)
REMARK    1  A    between atoms: C3_4  and  C4_5
REMARK    2  A    between atoms: C4_5  and  O1_6
REMARK    3  A    between atoms: C4_5  and  C5_8
REMARK    4  A    between atoms: C5_8  and  N2_9
REMARK    5  A    between atoms: C5_8  and  C6_13
REMARK    6  A    between atoms: C9_21  and  N5_22
ROOT
HETATM    1  C1  UNL     1     -17.246  -8.399  -3.963  1.00  0.00     0.157 C
HETATM    2  N1  UNL     1     -16.075  -8.195  -4.806  1.00  0.00    -0.346 N
HETATM    3  C2  UNL     1     -15.428  -7.036  -5.047  1.00  0.00     0.103 A
HETATM    4  C3  UNL     1     -14.363  -7.268  -5.904  1.00  0.00     0.008 A
HETATM    5  C7  UNL     1     -14.404  -8.618  -6.166  1.00  0.00     0.087 A
HETATM    6  C8  UNL     1     -13.616  -9.423  -6.943  1.00  0.00     0.274 A
HETATM    7  O3  UNL     1     -12.647  -8.940  -7.575  1.00  0.00    -0.267 OA
HETATM    8  N4  UNL     1     -13.835 -10.737  -7.064  1.00  0.00    -0.155 N
ATOM      9  H4  UNL     1     -13.231 -11.314  -7.649  1.00  0.00     0.187 HD
HETATM   10  C9  UNL     1     -14.874 -11.284  -6.393  1.00  0.00     0.680 A
HETATM   11  N6  UNL     1     -15.668 -10.507  -5.620  1.00  0.00    -0.176 N
ATOM     12  H6  UNL     1     -16.445 -10.944  -5.125  1.00  0.00     0.186 HD
HETATM   13  C10 UNL     1     -15.476  -9.189  -5.477  1.00  0.00     0.139 A
ENDROOT
BRANCH   4  14
HETATM   14  C4  UNL     1     -13.372  -6.311  -6.436  1.00  0.00     0.193 C
BRANCH  14  15
HETATM   15  O1  UNL     1     -12.063  -6.570  -6.034  1.00  0.00    -0.388 OA
ATOM     16  H1  UNL     1     -11.649  -7.283  -6.506  1.00  0.00     0.210 HD
ENDBRANCH  14  15
BRANCH  14  17
HETATM   17  C5  UNL     1     -13.765  -4.874  -6.151  1.00  0.00     0.304 C
BRANCH  17  18
HETATM   18  N2  UNL     1     -13.069  -4.320  -5.009  1.00  0.00    -0.064 N
ATOM     19  H23 UNL     1     -13.632  -4.402  -4.162  1.00  0.00     0.275 HD
ATOM     20  H22 UNL     1     -12.280  -4.908  -4.741  1.00  0.00     0.275 HD
ATOM     21  H21 UNL     1     -12.772  -3.356  -5.159  1.00  0.00     0.275 HD
ENDBRANCH  17  18
BRANCH  17  22
HETATM   22  C6  UNL     1     -13.508  -4.000  -7.306  1.00  0.00     0.264 C
HETATM   23  N3  UNL     1     -12.237  -3.940  -7.911  1.00  0.00    -0.060 NA
HETATM   24  O2  UNL     1     -14.436  -3.298  -7.756  1.00  0.00    -0.274 OA
ENDBRANCH  17  22
ENDBRANCH  14  17
ENDBRANCH   4  14
BRANCH  10  25
HETATM   25  N5  UNL     1     -15.052 -12.546  -6.534  1.00  0.00    -0.234 N
ATOM     26  H52 UNL     1     -14.846 -13.045  -7.398  1.00  0.00     0.174 HD
ATOM     27  H51 UNL     1     -15.420 -13.051  -5.727  1.00  0.00     0.174 HD
ENDBRANCH  10  25
TORSDOF 6
ENDMDL