MODEL 5
REMARK VINA RESULT: -5.917176376      2.748      5.092
REMARK  6 active torsions:
REMARK  status: ('A' for Active; 'I' for Inactive)
REMARK    1  A    between atoms: C2_2  and  N1_3
REMARK    2  A    between atoms: N1_3  and  N2_4
REMARK    3  A    between atoms: N2_4  and  N3_6
REMARK    4  A    between atoms: N3_6  and  C3_8
REMARK    5  A    between atoms: C7_21  and  N8_22
REMARK    6  A    between atoms: N8_22  and  N9_24
ROOT
HETATM    1  C3  UNL     1     -13.582  -8.950  -6.456  1.00  0.00     0.139 A
HETATM    2  N4  UNL     1     -12.620  -8.034  -6.668  1.00  0.00    -0.337 N
ATOM      3  H4  UNL     1     -11.791  -8.332  -7.180  1.00  0.00     0.168 HD
HETATM    4  C4  UNL     1     -12.667  -6.767  -6.260  1.00  0.00     0.183 A
HETATM    5  N5  UNL     1     -13.748  -6.343  -5.582  1.00  0.00    -0.338 N
ATOM      6  H5  UNL     1     -13.806  -5.378  -5.260  1.00  0.00     0.168 HD
HETATM    7  C5  UNL     1     -14.738  -7.193  -5.336  1.00  0.00     0.128 A
HETATM    8  N6  UNL     1     -15.829  -6.754  -4.647  1.00  0.00    -0.293 N
ATOM      9  H6  UNL     1     -15.872  -5.784  -4.332  1.00  0.00     0.172 HD
HETATM   10  C6  UNL     1     -16.838  -7.575  -4.382  1.00  0.00     0.327 A
HETATM   11  O1  UNL     1     -17.820  -7.126  -3.747  1.00  0.00    -0.247 OA
HETATM   12  N7  UNL     1     -16.791  -8.860  -4.796  1.00  0.00    -0.292 N
ATOM     13  H7  UNL     1     -17.578  -9.474  -4.582  1.00  0.00     0.172 HD
HETATM   14  C7  UNL     1     -15.751  -9.359  -5.476  1.00  0.00     0.141 A
HETATM   15  C8  UNL     1     -14.694  -8.519  -5.760  1.00  0.00     0.099 A
ENDROOT
BRANCH   1  16
HETATM   16  N3  UNL     1     -13.509 -10.153  -6.858  1.00  0.00    -0.273 N
ATOM     17  H3  UNL     1     -14.244 -10.474  -7.487  1.00  0.00     0.189 HD
BRANCH  16  18
HETATM   18  N2  UNL     1     -12.534 -11.063  -6.525  1.00  0.00    -0.245 N
ATOM     19  H2  UNL     1     -12.247 -11.751  -7.223  1.00  0.00     0.203 HD
BRANCH  18  20
HETATM   20  N1  UNL     1     -11.920 -11.082  -5.270  1.00  0.00    -0.126 NA
BRANCH  20  21
HETATM   21  C2  UNL     1     -10.469 -11.116  -5.427  1.00  0.00     0.132 C
HETATM   22  C1  UNL     1      -9.856  -9.761  -5.207  1.00  0.00     0.024 C
ENDBRANCH  20  21
ENDBRANCH  18  20
ENDBRANCH  16  18
ENDBRANCH   1  16
BRANCH  14  23
HETATM   23  N8  UNL     1     -15.722 -10.601  -5.867  1.00  0.00    -0.291 N
ATOM     24  H8  UNL     1     -14.967 -11.211  -5.554  1.00  0.00     0.188 HD
BRANCH  23  25
HETATM   25  N9  UNL     1     -16.705 -11.100  -6.704  1.00  0.00    -0.344 N
ATOM     26  H92 UNL     1     -16.970 -10.557  -7.526  1.00  0.00     0.176 HD
ATOM     27  H91 UNL     1     -17.156 -11.992  -6.501  1.00  0.00     0.176 HD
ENDBRANCH  23  25
ENDBRANCH  14  23
TORSDOF 6
ENDMDL