MODEL 5
REMARK VINA RESULT: -5.716820008      2.758      5.072
REMARK  6 active torsions:
REMARK  status: ('A' for Active; 'I' for Inactive)
REMARK    1  A    between atoms: N1_1  and  C1_4
REMARK    2  A    between atoms: C4_12  and  N4_13
REMARK    3  A    between atoms: N4_13  and  N5_15
REMARK    4  A    between atoms: N7_22  and  C7_23
REMARK    5  A    between atoms: C7_23  and  C8_24
REMARK    6  A    between atoms: C8_24  and  C9_25
ROOT
HETATM    1  C1  UNL     1     -15.601  -9.785  -5.764  1.00  0.00     0.686 A
HETATM    2  N2  UNL     1     -16.567  -9.217  -5.004  1.00  0.00    -0.154 N
ATOM      3  H2  UNL     1     -17.318  -9.802  -4.636  1.00  0.00     0.187 HD
HETATM    4  C2  UNL     1     -16.560  -7.914  -4.723  1.00  0.00     0.290 A
HETATM    5  O1  UNL     1     -17.411  -7.330  -4.036  1.00  0.00    -0.265 OA
HETATM    6  C3  UNL     1     -15.507  -7.154  -5.250  1.00  0.00     0.148 A
HETATM    7  N3  UNL     1     -15.451  -5.854  -5.003  1.00  0.00    -0.333 N
ATOM      8  H3  UNL     1     -16.175  -5.418  -4.431  1.00  0.00     0.168 HD
HETATM    9  C4  UNL     1     -14.452  -5.101  -5.495  1.00  0.00     0.135 A
HETATM   10  C5  UNL     1     -13.473  -5.673  -6.265  1.00  0.00     0.139 A
HETATM   11  N6  UNL     1     -13.549  -6.980  -6.502  1.00  0.00    -0.346 N
ATOM     12  H6  UNL     1     -12.822  -7.411  -7.074  1.00  0.00     0.167 HD
HETATM   13  C6  UNL     1     -14.537  -7.766  -6.024  1.00  0.00     0.160 A
HETATM   14  N7  UNL     1     -14.590  -9.083  -6.276  1.00  0.00    -0.144 N
ENDROOT
BRANCH   9  15
HETATM   15  N4  UNL     1     -14.459  -3.840  -5.214  1.00  0.00    -0.291 N
ATOM     16  H4  UNL     1     -14.774  -3.177  -5.923  1.00  0.00     0.188 HD
BRANCH  15  17
HETATM   17  N5  UNL     1     -14.051  -3.358  -3.971  1.00  0.00    -0.344 N
ATOM     18  H52 UNL     1     -14.066  -4.001  -3.179  1.00  0.00     0.176 HD
ATOM     19  H51 UNL     1     -13.742  -2.394  -3.841  1.00  0.00     0.176 HD
ENDBRANCH  15  17
ENDBRANCH   9  15
BRANCH  14  20
HETATM   20  C7  UNL     1     -13.595  -9.687  -7.063  1.00  0.00     0.099 C
BRANCH  20  21
HETATM   21  C8  UNL     1     -12.592 -10.524  -6.345  1.00  0.00     0.145 C
BRANCH  21  22
HETATM   22  C9  UNL     1     -11.540  -9.645  -5.809  1.00  0.00     0.235 C
HETATM   23  N8  UNL     1     -10.935  -8.689  -6.648  1.00  0.00    -0.062 NA
HETATM   24  O2  UNL     1     -11.179  -9.738  -4.623  1.00  0.00    -0.277 OA
ENDBRANCH  21  22
ENDBRANCH  20  21
ENDBRANCH  14  20
BRANCH   1  25
HETATM   25  N1  UNL     1     -15.654 -11.038  -6.004  1.00  0.00    -0.234 N
ATOM     26  H12 UNL     1     -16.539 -11.437  -6.316  1.00  0.00     0.174 HD
ATOM     27  H11 UNL     1     -14.815 -11.604  -5.878  1.00  0.00     0.174 HD
ENDBRANCH   1  25
TORSDOF 6
ENDMDL