MODEL 4
REMARK VINA RESULT: -5.920922427      1.728      5.829
REMARK  4 active torsions:
REMARK  status: ('A' for Active; 'I' for Inactive)
REMARK    1  A    between atoms: N2_4  and  N3_6
REMARK    2  A    between atoms: N3_6  and  S1_8
REMARK    3  A    between atoms: S1_8  and  C3_11
REMARK    4  A    between atoms: C5_16  and  N6_17
ROOT
HETATM    1  C3  UNL     1     -16.190  -6.567  -4.646  1.00  0.00     0.190 A
HETATM    2  C4  UNL     1     -17.256  -7.032  -3.938  1.00  0.00     0.160 A
HETATM    3  N4  UNL     1     -17.530  -8.417  -3.933  1.00  0.00    -0.080 NA
HETATM    4  N5  UNL     1     -18.021  -6.160  -3.264  1.00  0.00    -0.177 N
ATOM      5  H5  UNL     1     -18.819  -6.512  -2.736  1.00  0.00     0.185 HD
HETATM    6  C5  UNL     1     -17.774  -4.839  -3.259  1.00  0.00     0.680 A
HETATM    7  N7  UNL     1     -16.730  -4.357  -3.948  1.00  0.00    -0.155 N
ATOM      8  H7  UNL     1     -16.537  -3.356  -3.950  1.00  0.00     0.187 HD
HETATM    9  C6  UNL     1     -15.930  -5.207  -4.644  1.00  0.00     0.286 A
HETATM   10  O3  UNL     1     -14.951  -4.711  -5.285  1.00  0.00    -0.266 OA
ENDROOT
BRANCH   1  11
HETATM   11  S1  UNL     1     -15.148  -7.643  -5.549  1.00  0.00     0.285 S
HETATM   12  O1  UNL     1     -14.264  -6.871  -6.482  1.00  0.00    -0.199 OA
HETATM   13  O2  UNL     1     -14.293  -8.373  -4.535  1.00  0.00    -0.199 OA
BRANCH  11  14
HETATM   14  N3  UNL     1     -16.124  -8.711  -6.453  1.00  0.00    -0.222 N
ATOM     15  H3  UNL     1     -16.669  -8.370  -7.246  1.00  0.00     0.200 HD
BRANCH  14  16
HETATM   16  N2  UNL     1     -16.163 -10.055  -6.091  1.00  0.00    -0.282 N
HETATM   17  C2  UNL     1     -15.256 -10.841  -6.540  1.00  0.00     0.104 C
HETATM   18  C1  UNL     1     -15.274 -12.281  -6.169  1.00  0.00     0.086 C
HETATM   19  N1  UNL     1     -14.247 -10.324  -7.386  1.00  0.00    -0.087 NA
ATOM     20  H2  UNL     1     -16.900 -10.406  -5.480  1.00  0.00     0.188 HD
ENDBRANCH  14  16
ENDBRANCH  11  14
ENDBRANCH   1  11
BRANCH   6  21
HETATM   21  N6  UNL     1     -18.524  -4.025  -2.604  1.00  0.00    -0.234 N
ATOM     22  H62 UNL     1     -19.476  -3.856  -2.926  1.00  0.00     0.174 HD
ATOM     23  H61 UNL     1     -18.182  -3.548  -1.769  1.00  0.00     0.174 HD
ENDBRANCH   6  21
TORSDOF 4
ENDMDL