MODEL 4
REMARK VINA RESULT: -6.252431568      1.001      1.788
REMARK  4 active torsions:
REMARK  status: ('A' for Active; 'I' for Inactive)
REMARK    1  A    between atoms: C2_2  and  C3_3
REMARK    2  A    between atoms: C3_3  and  N1_4
REMARK    3  A    between atoms: N1_4  and  C4_7
REMARK    4  A    between atoms: C4_7  and  C5_8
ROOT
HETATM    1  C4  UNL     1      18.256  91.688  34.081  1.00  0.00     0.266 C
ENDROOT
BRANCH   1   2
HETATM    2  N1  UNL     1      17.226  90.810  33.640  1.00  0.00    -0.069 N
ATOM      3  H12 UNL     1      16.355  90.997  34.138  1.00  0.00     0.277 HD
ATOM      4  H11 UNL     1      17.403  89.858  33.958  1.00  0.00     0.277 HD
BRANCH   2   5
HETATM    5  C3  UNL     1      17.014  90.841  32.213  1.00  0.00     0.259 C
BRANCH   5   6
HETATM    6  C2  UNL     1      16.646  89.513  31.672  1.00  0.00    -0.010 C
HETATM    7  C1  UNL     1      17.445  88.941  30.784  1.00  0.00     0.008 C
ENDBRANCH   5   6
ENDBRANCH   2   5
ENDBRANCH   1   2
BRANCH   1   8
HETATM    8  C5  UNL     1      17.927  93.122  34.084  1.00  0.00    -0.058 C
HETATM    9  C6  UNL     1      18.637  94.152  33.626  1.00  0.00    -0.017 C
HETATM   10  C7  UNL     1      17.864  95.340  33.877  1.00  0.00     0.013 A
HETATM   11  C8  UNL     1      16.798  96.049  33.319  1.00  0.00     0.014 A
HETATM   12  C9  UNL     1      16.492  94.702  33.482  1.00  0.00    -0.002 A
HETATM   13  C10 UNL     1      16.607  93.696  34.595  1.00  0.00     0.041 C
ENDBRANCH   1   8
TORSDOF 4
ENDMDL