MODEL 4
REMARK VINA RESULT: -5.719549570      1.484      2.517
REMARK  4 active torsions:
REMARK  status: ('A' for Active; 'I' for Inactive)
REMARK    1  A    between atoms: C2_2  and  C3_3
REMARK    2  A    between atoms: C3_3  and  N1_4
REMARK    3  A    between atoms: N1_4  and  C4_7
REMARK    4  A    between atoms: C4_7  and  C5_8
ROOT
HETATM    1  N1  UNL     1      17.573  92.659  35.699  1.00  0.00    -0.069 N
ATOM      2  H11 UNL     1      17.289  93.535  36.139  1.00  0.00     0.277 HD
ATOM      3  H12 UNL     1      16.848  92.069  36.106  1.00  0.00     0.277 HD
ENDROOT
BRANCH   1   4
HETATM    4  C3  UNL     1      18.924  92.245  36.065  1.00  0.00     0.259 C
BRANCH   4   5
HETATM    5  C2  UNL     1      19.772  92.419  34.868  1.00  0.00    -0.010 C
HETATM    6  C1  UNL     1      21.068  92.126  34.877  1.00  0.00     0.008 C
ENDBRANCH   4   5
ENDBRANCH   1   4
BRANCH   1   7
HETATM    7  C4  UNL     1      17.524  92.705  34.247  1.00  0.00     0.260 C
BRANCH   7   8
HETATM    8  C5  UNL     1      16.454  93.661  33.860  1.00  0.00     0.003 C
HETATM    9  C6  UNL     1      16.731  94.905  33.488  1.00  0.00    -0.082 C
HETATM   10  C7  UNL     1      17.973  95.703  33.331  1.00  0.00     0.034 C
HETATM   11  C9  UNL     1      15.968  96.101  33.047  1.00  0.00     0.034 C
HETATM   12  C8  UNL     1      17.157  96.947  33.446  1.00  0.00     0.009 C
ENDBRANCH   7   8
ENDBRANCH   1   7
TORSDOF 4
ENDMDL