MODEL 4
REMARK VINA RESULT: -5.504767759      1.027      1.665
REMARK  4 active torsions:
REMARK  status: ('A' for Active; 'I' for Inactive)
REMARK    1  A    between atoms: N1_2  and  C2_4
REMARK    2  A    between atoms: C2_4  and  C3_5
REMARK    3  A    between atoms: C3_5  and  N2_6
REMARK    4  A    between atoms: N2_6  and  C4_8
ROOT
HETATM    1  N2  UNL     1      20.117  92.556  36.166  1.00  0.00    -0.388 N
ATOM      2  H2  UNL     1      20.004  92.398  37.168  1.00  0.00     0.159 HD
ENDROOT
BRANCH   1   3
HETATM    3  C3  UNL     1      21.389  92.277  35.545  1.00  0.00     0.139 C
BRANCH   3   4
HETATM    4  C2  UNL     1      22.552  92.647  36.438  1.00  0.00     0.137 C
BRANCH   4   5
HETATM    5  N1  UNL     1      21.972  93.009  37.720  1.00  0.00    -0.406 N
HETATM    6  C1  UNL     1      22.686  93.059  38.781  1.00  0.00     0.112 C
ATOM      7  H1  UNL     1      20.977  93.227  37.776  1.00  0.00     0.158 HD
ENDBRANCH   4   5
ENDBRANCH   3   4
ENDBRANCH   1   3
BRANCH   1   8
HETATM    8  C4  UNL     1      19.020  93.047  35.413  1.00  0.00     0.028 A
HETATM    9  C5  UNL     1      17.797  92.414  35.417  1.00  0.00     0.029 A
HETATM   10  C6  UNL     1      16.745  92.931  34.661  1.00  0.00     0.002 A
HETATM   11  C7  UNL     1      16.874  94.068  33.896  1.00  0.00     0.000 A
HETATM   12  C8  UNL     1      18.097  94.693  33.897  1.00  0.00     0.002 A
HETATM   13  C9  UNL     1      19.131  94.189  34.637  1.00  0.00     0.029 A
ENDBRANCH   1   8
TORSDOF 4
ENDMDL