MODEL 3
REMARK VINA RESULT: -5.788509943      3.795      5.512
REMARK  4 active torsions:
REMARK  status: ('A' for Active; 'I' for Inactive)
REMARK    1  A    between atoms: C2_2  and  C3_3
REMARK    2  A    between atoms: C3_3  and  N1_4
REMARK    3  A    between atoms: N1_4  and  C4_7
REMARK    4  A    between atoms: C4_7  and  C5_8
ROOT
HETATM    1  C4  UNL     1      21.124  92.329  35.321  1.00  0.00     0.271 C
ENDROOT
BRANCH   1   2
HETATM    2  N1  UNL     1      21.550  93.336  36.264  1.00  0.00    -0.068 N
ATOM      3  H12 UNL     1      20.797  93.675  36.862  1.00  0.00     0.277 HD
ATOM      4  H11 UNL     1      21.776  94.230  35.827  1.00  0.00     0.277 HD
BRANCH   2   5
HETATM    5  C3  UNL     1      22.669  92.755  37.010  1.00  0.00     0.259 C
BRANCH   5   6
HETATM    6  C2  UNL     1      22.672  93.179  38.427  1.00  0.00    -0.010 C
HETATM    7  C1  UNL     1      23.058  92.402  39.413  1.00  0.00     0.008 C
ENDBRANCH   5   6
ENDBRANCH   2   5
ENDBRANCH   1   2
BRANCH   1   8
HETATM    8  C5  UNL     1      19.763  92.548  34.813  1.00  0.00    -0.033 A
HETATM    9  C6  UNL     1      19.292  93.797  34.465  1.00  0.00     0.009 A
HETATM   10  C7  UNL     1      18.007  93.993  33.987  1.00  0.00     0.001 A
HETATM   11  C8  UNL     1      17.164  92.911  33.851  1.00  0.00     0.000 A
HETATM   12  C9  UNL     1      17.605  91.639  34.193  1.00  0.00     0.001 A
HETATM   13  C10 UNL     1      18.899  91.485  34.667  1.00  0.00     0.009 A
ENDBRANCH   1   8
TORSDOF 4
ENDMDL