MODEL 5
REMARK VINA RESULT: -6.027395515      1.230      4.294
REMARK  5 active torsions:
REMARK  status: ('A' for Active; 'I' for Inactive)
REMARK    1  A    between atoms: C2_2  and  C3_3
REMARK    2  A    between atoms: C3_3  and  N1_4
REMARK    3  A    between atoms: N1_4  and  C4_7
REMARK    4  A    between atoms: C4_7  and  C5_8
REMARK    5  A    between atoms: C7_10  and  C8_11
ROOT
HETATM    1  N1  UNL     1      18.695  93.771  33.536  1.00  0.00    -0.072 N
ATOM      2  H11 UNL     1      19.463  94.040  32.921  1.00  0.00     0.277 HD
ATOM      3  H12 UNL     1      18.058  93.421  32.821  1.00  0.00     0.277 HD
ENDROOT
BRANCH   1   4
HETATM    4  C3  UNL     1      18.146  94.898  34.261  1.00  0.00     0.259 C
BRANCH   4   5
HETATM    5  C2  UNL     1      16.909  95.318  33.530  1.00  0.00    -0.010 C
HETATM    6  C1  UNL     1      16.728  96.555  33.175  1.00  0.00     0.008 C
ENDBRANCH   4   5
ENDBRANCH   1   4
BRANCH   1   7
HETATM    7  C4  UNL     1      19.086  92.730  34.501  1.00  0.00     0.237 C
BRANCH   7   8
HETATM    8  C5  UNL     1      18.311  91.455  34.137  1.00  0.00     0.019 A
HETATM    9  C6  UNL     1      17.023  91.231  34.901  1.00  0.00     0.016 A
HETATM   10  C7  UNL     1      16.972  91.678  33.508  1.00  0.00     0.013 A
BRANCH  10  11
HETATM   11  C8  UNL     1      16.491  90.828  32.401  1.00  0.00    -0.032 C
HETATM   12  C9  UNL     1      17.280  89.935  31.821  1.00  0.00     0.007 C
ENDBRANCH  10  11
ENDBRANCH   7   8
ENDBRANCH   1   7
TORSDOF 5
ENDMDL