MODEL 1
REMARK VINA RESULT: -6.106063587      0.000      0.000
REMARK  5 active torsions:
REMARK  status: ('A' for Active; 'I' for Inactive)
REMARK    1  A    between atoms: C2_2  and  C3_3
REMARK    2  A    between atoms: C4_4  and  C5_5
REMARK    3  A    between atoms: C5_5  and  C6_6
REMARK    4  A    between atoms: C6_6  and  N1_7
REMARK    5  A    between atoms: N1_7  and  C7_10
ROOT
HETATM    1  C6  UNL     1      18.121  92.472  34.929  1.00  0.00     0.236 C
ENDROOT
BRANCH   1   2
HETATM    2  C5  UNL     1      19.100  93.420  34.274  1.00  0.00     0.054 C
BRANCH   2   3
HETATM    3  C4  UNL     1      18.358  94.623  33.817  1.00  0.00    -0.025 C
HETATM    4  C3  UNL     1      17.044  94.597  33.797  1.00  0.00    -0.005 C
BRANCH   4   5
HETATM    5  C2  UNL     1      16.314  95.788  33.345  1.00  0.00    -0.011 C
HETATM    6  C1  UNL     1      16.942  96.920  33.102  1.00  0.00     0.011 C
ENDBRANCH   4   5
ENDBRANCH   2   3
ENDBRANCH   1   2
BRANCH   1   7
HETATM    7  N1  UNL     1      18.179  91.196  34.281  1.00  0.00    -0.071 N
ATOM      8  H12 UNL     1      19.121  90.808  34.333  1.00  0.00     0.277 HD
ATOM      9  H11 UNL     1      17.675  90.494  34.823  1.00  0.00     0.277 HD
BRANCH   7  10
HETATM   10  C7  UNL     1      17.714  91.215  32.923  1.00  0.00     0.186 A
HETATM   11  C8  UNL     1      17.216  89.952  32.274  1.00  0.00     0.035 A
HETATM   12  C9  UNL     1      16.292  91.090  32.566  1.00  0.00     0.035 A
ENDBRANCH   7  10
ENDBRANCH   1   7
TORSDOF 5
ENDMDL