MODEL 5
REMARK VINA RESULT: -5.511061527      1.640      4.680
REMARK  4 active torsions:
REMARK  status: ('A' for Active; 'I' for Inactive)
REMARK    1  A    between atoms: C2_2  and  C3_3
REMARK    2  A    between atoms: C3_3  and  C4_4
REMARK    3  A    between atoms: C4_4  and  N1_5
REMARK    4  A    between atoms: N1_5  and  C5_7
ROOT
HETATM    1  N1  UNL     1      16.767  94.438  33.943  1.00  0.00    -0.417 N
ATOM      2  H1  UNL     1      15.809  94.684  33.696  1.00  0.00     0.153 HD
ENDROOT
BRANCH   1   3
HETATM    3  C4  UNL     1      17.885  95.277  33.630  1.00  0.00     0.118 C
BRANCH   3   4
HETATM    4  C3  UNL     1      17.415  96.664  33.201  1.00  0.00     0.045 C
BRANCH   4   5
HETATM    5  C2  UNL     1      15.950  96.738  33.108  1.00  0.00    -0.035 C
HETATM    6  C1  UNL     1      15.244  97.675  33.753  1.00  0.00     0.007 C
ENDBRANCH   4   5
ENDBRANCH   3   4
ENDBRANCH   1   3
BRANCH   1   7
HETATM    7  C5  UNL     1      17.097  93.229  34.627  1.00  0.00     0.076 C
HETATM    8  C6  UNL     1      18.451  93.204  35.240  1.00  0.00     0.024 C
HETATM    9  C7  UNL     1      18.862  91.748  35.251  1.00  0.00     0.002 C
HETATM   10  C8  UNL     1      18.101  91.093  34.120  1.00  0.00     0.002 C
HETATM   11  C9  UNL     1      17.141  92.118  33.603  1.00  0.00     0.024 C
ENDBRANCH   1   7
TORSDOF 4
ENDMDL