MODEL 3
REMARK VINA RESULT: -9.049733685      1.008      2.827
REMARK  14 active torsions:
REMARK  status: ('A' for Active; 'I' for Inactive)
REMARK    1  A    between atoms: C2_2  and  O2_4
REMARK    2  A    between atoms: O2_4  and  C3_5
REMARK    3  A    between atoms: C11_13  and  O3_14
REMARK    4  A    between atoms: C13_17  and  C14_18
REMARK    5  A    between atoms: C14_18  and  O4_19
REMARK    6  A    between atoms: C15_21  and  C17_23
REMARK    7  A    between atoms: C17_23  and  C18_24
REMARK    8  A    between atoms: C18_24  and  C19_25
REMARK    9  A    between atoms: C20_26  and  C22_28
REMARK   10  A    between atoms: C22_28  and  C23_29
REMARK   11  A    between atoms: C23_29  and  C24_30
REMARK   12  A    between atoms: C25_31  and  C27_33
REMARK   13  A    between atoms: C27_33  and  C28_34
REMARK   14  A    between atoms: C28_34  and  C29_35
ROOT
HETATM    1  C3  UNL     1       0.369  62.459  72.223  1.00  0.00     0.141 C
HETATM    2  C4  UNL     1       0.618  60.991  72.622  1.00  0.00     0.034 C
HETATM    3  C5  UNL     1       2.059  60.687  72.592  1.00  0.00     0.017 C
HETATM    4  C6  UNL     1       2.526  60.820  71.154  1.00  0.00    -0.011 C
HETATM    5  C7  UNL     1       1.909  59.659  70.383  1.00  0.00     0.021 C
HETATM    6  C8  UNL     1       3.971  60.450  71.230  1.00  0.00    -0.076 C
HETATM    7  C9  UNL     1       4.349  58.989  71.388  1.00  0.00     0.044 C
HETATM    8  C10 UNL     1       4.920  61.310  71.174  1.00  0.00     0.007 C
HETATM    9  C11 UNL     1       4.716  62.738  71.030  1.00  0.00     0.142 C
HETATM   10  C12 UNL     1       3.282  63.159  71.146  1.00  0.00     0.049 C
HETATM   11  C13 UNL     1       2.286  62.161  70.600  1.00  0.00     0.004 C
HETATM   12  C15 UNL     1       0.911  62.780  70.880  1.00  0.00    -0.006 C
HETATM   13  C16 UNL     1      -0.086  62.327  69.836  1.00  0.00     0.019 C
ENDROOT
BRANCH  12  14
HETATM   14  C17 UNL     1       0.986  64.276  70.827  1.00  0.00     0.016 C
BRANCH  14  15
HETATM   15  C18 UNL     1       0.197  65.034  69.834  1.00  0.00     0.028 C
BRANCH  15  16
HETATM   16  C19 UNL     1       0.692  66.318  69.318  1.00  0.00    -0.024 C
HETATM   17  C20 UNL     1       0.091  67.025  68.386  1.00  0.00    -0.087 C
HETATM   18  C21 UNL     1      -1.172  66.625  67.724  1.00  0.00     0.043 C
BRANCH  17  19
HETATM   19  C22 UNL     1       0.674  68.342  67.905  1.00  0.00     0.037 C
BRANCH  19  20
HETATM   20  C23 UNL     1       2.134  68.307  67.824  1.00  0.00     0.031 C
BRANCH  20  21
HETATM   21  C24 UNL     1       2.673  68.270  66.460  1.00  0.00    -0.024 C
HETATM   22  C25 UNL     1       3.815  68.610  65.940  1.00  0.00    -0.087 C
HETATM   23  C26 UNL     1       5.004  69.181  66.617  1.00  0.00     0.043 C
BRANCH  22  24
HETATM   24  C27 UNL     1       3.949  68.396  64.427  1.00  0.00     0.037 C
BRANCH  24  25
HETATM   25  C28 UNL     1       2.738  67.643  63.916  1.00  0.00     0.031 C
BRANCH  25  26
HETATM   26  C29 UNL     1       2.087  68.377  62.794  1.00  0.00    -0.024 C
HETATM   27  C30 UNL     1       0.790  68.654  62.796  1.00  0.00    -0.091 C
HETATM   28  C31 UNL     1       0.143  69.378  61.690  1.00  0.00     0.042 C
HETATM   29  C32 UNL     1      -0.023  68.211  63.963  1.00  0.00     0.042 C
ENDBRANCH  25  26
ENDBRANCH  24  25
ENDBRANCH  22  24
ENDBRANCH  20  21
ENDBRANCH  19  20
ENDBRANCH  17  19
ENDBRANCH  15  16
ENDBRANCH  14  15
ENDBRANCH  12  14
BRANCH   1  30
HETATM   30  O2  UNL     1       0.978  63.164  73.307  1.00  0.00    -0.316 OA
BRANCH  30  31
HETATM   31  C2  UNL     1       0.240  63.680  74.337  1.00  0.00     0.255 C
HETATM   32  C1  UNL     1      -0.725  64.767  74.049  1.00  0.00     0.126 C
HETATM   33  O1  UNL     1       0.337  63.281  75.521  1.00  0.00    -0.266 OA
ENDBRANCH  30  31
ENDBRANCH   1  30
BRANCH  11  34
HETATM   34  C14 UNL     1       2.563  62.086  69.122  1.00  0.00     0.175 C
BRANCH  34  35
HETATM   35  O4  UNL     1       2.883  63.263  68.489  1.00  0.00    -0.400 OA
ATOM     36  H4  UNL     1       3.664  63.262  67.948  1.00  0.00     0.209 HD
ENDBRANCH  34  35
ENDBRANCH  11  34
BRANCH   9  37
HETATM   37  O3  UNL     1       5.367  63.202  69.900  1.00  0.00    -0.392 OA
ATOM     38  H3  UNL     1       5.062  64.075  69.682  1.00  0.00     0.210 HD
ENDBRANCH   9  37
TORSDOF 14
ENDMDL