MODEL 1
REMARK VINA RESULT: -10.629896699      0.000      0.000
REMARK  14 active torsions:
REMARK  status: ('A' for Active; 'I' for Inactive)
REMARK    1  A    between atoms: C2_2  and  C3_3
REMARK    2  A    between atoms: C5_5  and  C6_6
REMARK    3  A    between atoms: C6_6  and  C7_7
REMARK    4  A    between atoms: C8_8  and  C9_9
REMARK    5  A    between atoms: C9_9  and  C11_11
REMARK    6  A    between atoms: C11_11  and  C12_12
REMARK    7  A    between atoms: C12_12  and  C13_13
REMARK    8  A    between atoms: C13_13  and  C14_14
REMARK    9  A    between atoms: C15_15  and  C17_17
REMARK   10  A    between atoms: C17_17  and  C18_18
REMARK   11  A    between atoms: C18_18  and  C19_19
REMARK   12  A    between atoms: C20_20  and  C22_22
REMARK   13  A    between atoms: C22_22  and  O1_23
REMARK   14  A    between atoms: C30_34  and  O4_36
ROOT
HETATM    1  C13 UNL     1       3.195  68.921  68.847  1.00  0.00     0.054 C
ENDROOT
BRANCH   1   2
HETATM    2  C12 UNL     1       3.611  70.432  68.987  1.00  0.00    -0.022 C
BRANCH   2   3
HETATM    3  C11 UNL     1       4.923  70.718  68.698  1.00  0.00     0.003 C
BRANCH   3   4
HETATM    4  C9  UNL     1       5.686  70.013  67.829  1.00  0.00    -0.063 C
HETATM    5  C10 UNL     1       7.173  70.766  68.652  1.00  0.00     0.048 C
BRANCH   4   6
HETATM    6  C8  UNL     1       6.422  69.342  67.013  1.00  0.00     0.003 C
HETATM    7  C7  UNL     1       6.588  69.097  65.755  1.00  0.00    -0.026 C
BRANCH   7   8
HETATM    8  C6  UNL     1       5.969  69.489  64.501  1.00  0.00     0.031 C
BRANCH   8   9
HETATM    9  C5  UNL     1       4.987  68.355  64.084  1.00  0.00    -0.008 C
HETATM   10  C4  UNL     1       3.752  68.535  64.956  1.00  0.00     0.009 C
HETATM   11  C3  UNL     1       2.713  67.510  64.684  1.00  0.00    -0.012 C
HETATM   12  C32 UNL     1       2.421  67.296  63.242  1.00  0.00     0.042 C
HETATM   13  C30 UNL     1       3.459  67.699  62.252  1.00  0.00     0.055 C
HETATM   14  C29 UNL     1       4.443  68.727  62.697  1.00  0.00     0.042 C
HETATM   15  C31 UNL     1       2.655  68.422  61.118  1.00  0.00     0.045 C
BRANCH  11  16
HETATM   16  C2  UNL     1       2.825  66.235  65.471  1.00  0.00     0.000 C
HETATM   17  C1  UNL     1       3.257  65.057  64.719  1.00  0.00     0.005 C
ENDBRANCH  11  16
BRANCH  13  18
HETATM   18  O4  UNL     1       4.042  66.593  61.619  1.00  0.00    -0.390 OA
ATOM     19  H4  UNL     1       3.942  65.779  62.099  1.00  0.00     0.210 HD
ENDBRANCH  13  18
ENDBRANCH   8   9
ENDBRANCH   7   8
ENDBRANCH   4   6
ENDBRANCH   3   4
ENDBRANCH   2   3
ENDBRANCH   1   2
BRANCH   1  20
HETATM   20  C14 UNL     1       1.888  69.190  68.288  1.00  0.00    -0.021 C
HETATM   21  C15 UNL     1       0.976  68.304  68.030  1.00  0.00    -0.087 C
HETATM   22  C16 UNL     1      -0.315  68.827  67.423  1.00  0.00     0.043 C
BRANCH  21  23
HETATM   23  C17 UNL     1       0.987  66.876  68.245  1.00  0.00     0.037 C
BRANCH  23  24
HETATM   24  C18 UNL     1       0.887  66.568  69.724  1.00  0.00     0.032 C
BRANCH  24  25
HETATM   25  C19 UNL     1       1.236  65.162  69.925  1.00  0.00    -0.020 C
HETATM   26  C20 UNL     1       0.588  64.409  70.790  1.00  0.00    -0.040 C
HETATM   27  C21 UNL     1      -0.520  64.903  71.610  1.00  0.00     0.047 C
BRANCH  26  28
HETATM   28  C22 UNL     1       1.198  63.050  71.036  1.00  0.00     0.187 C
HETATM   29  C23 UNL     1       2.624  63.028  71.352  1.00  0.00     0.025 C
HETATM   30  C24 UNL     1       3.509  62.339  70.628  1.00  0.00     0.010 C
HETATM   31  C25 UNL     1       3.071  61.559  69.461  1.00  0.00     0.081 C
HETATM   32  C26 UNL     1       3.963  60.340  69.321  1.00  0.00     0.051 C
HETATM   33  C27 UNL     1       3.148  62.295  68.143  1.00  0.00     0.051 C
HETATM   34  O2  UNL     1       1.710  61.132  69.611  1.00  0.00    -0.304 OA
HETATM   35  C28 UNL     1       0.793  62.101  69.965  1.00  0.00     0.303 C
HETATM   36  O3  UNL     1      -0.357  62.245  69.465  1.00  0.00    -0.261 OA
BRANCH  28  37
HETATM   37  O1  UNL     1       0.570  62.501  72.209  1.00  0.00    -0.372 OA
ATOM     38  H1  UNL     1       1.254  62.113  72.743  1.00  0.00     0.212 HD
ENDBRANCH  28  37
ENDBRANCH  26  28
ENDBRANCH  24  25
ENDBRANCH  23  24
ENDBRANCH  21  23
ENDBRANCH   1  20
TORSDOF 14
ENDMDL