MODEL 3
REMARK VINA RESULT: -11.406954358      1.171      1.732
REMARK  13 active torsions:
REMARK  status: ('A' for Active; 'I' for Inactive)
REMARK    1  A    between atoms: C2_2  and  C3_3
REMARK    2  A    between atoms: C3_3  and  C4_4
REMARK    3  A    between atoms: C4_4  and  C5_5
REMARK    4  A    between atoms: C8_8  and  C9_9
REMARK    5  A    between atoms: C10_10  and  C11_11
REMARK    6  A    between atoms: C13_13  and  C14_14
REMARK    7  A    between atoms: C15_15  and  C16_16
REMARK    8  A    between atoms: C24_25  and  C25_26
REMARK    9  A    between atoms: C25_26  and  O2_28
REMARK   10  A    between atoms: C25_26  and  C27_30
REMARK   11  A    between atoms: C27_30  and  C28_31
REMARK   12  A    between atoms: C28_31  and  C29_32
REMARK   13  A    between atoms: C31_35  and  O4_36
ROOT
HETATM    1  C16 UNL     1      -0.153  63.772  72.378  1.00  0.00     0.028 C
HETATM    2  C17 UNL     1      -1.315  64.045  73.406  1.00  0.00     0.088 C
HETATM    3  C18 UNL     1      -1.375  62.888  74.200  1.00  0.00     0.136 C
HETATM    4  O1  UNL     1      -1.926  62.842  75.333  1.00  0.00    -0.297 OA
HETATM    5  C19 UNL     1      -0.719  61.731  73.528  1.00  0.00     0.028 C
HETATM    6  C20 UNL     1       0.253  61.245  74.573  1.00  0.00     0.024 C
HETATM    7  C21 UNL     1      -1.885  60.763  73.388  1.00  0.00     0.018 C
HETATM    8  C22 UNL     1      -2.394  61.070  72.039  1.00  0.00     0.002 C
HETATM    9  C23 UNL     1      -1.323  61.815  71.289  1.00  0.00     0.014 C
HETATM   10  C24 UNL     1      -0.256  62.203  72.278  1.00  0.00     0.012 C
ENDROOT
BRANCH   1  11
HETATM   11  C15 UNL     1      -0.473  64.567  71.302  1.00  0.00    -0.021 C
HETATM   12  C14 UNL     1      -0.023  65.500  70.474  1.00  0.00    -0.003 C
BRANCH  12  13
HETATM   13  C13 UNL     1      -0.950  65.941  69.405  1.00  0.00     0.006 C
HETATM   14  C11 UNL     1      -0.648  66.550  68.344  1.00  0.00    -0.062 C
HETATM   15  C12 UNL     1      -1.775  66.806  67.362  1.00  0.00     0.048 C
BRANCH  14  16
HETATM   16  C10 UNL     1       0.666  66.986  67.961  1.00  0.00     0.007 C
HETATM   17  C9  UNL     1       0.899  67.439  66.714  1.00  0.00     0.002 C
BRANCH  17  18
HETATM   18  C8  UNL     1       2.203  67.896  66.367  1.00  0.00     0.019 C
HETATM   19  C3  UNL     1       3.049  67.240  65.563  1.00  0.00     0.004 C
BRANCH  19  20
HETATM   20  C2  UNL     1       2.560  65.949  65.060  1.00  0.00     0.009 C
HETATM   21  C1  UNL     1       3.308  64.915  64.824  1.00  0.00     0.013 C
ENDBRANCH  19  20
BRANCH  19  22
HETATM   22  C4  UNL     1       4.129  67.995  65.084  1.00  0.00    -0.140 C
BRANCH  22  23
HETATM   23  C5  UNL     1       5.078  68.639  64.660  1.00  0.00     0.049 C
HETATM   24  C6  UNL     1       5.908  69.327  65.807  1.00  0.00     0.022 C
HETATM   25  C7  UNL     1       5.555  68.937  63.315  1.00  0.00     0.022 C
ENDBRANCH  22  23
ENDBRANCH  19  22
ENDBRANCH  17  18
ENDBRANCH  14  16
ENDBRANCH  12  13
ENDBRANCH   1  11
BRANCH  10  26
HETATM   26  C25 UNL     1       1.062  61.750  71.686  1.00  0.00     0.064 C
HETATM   27  C26 UNL     1       2.278  62.341  72.236  1.00  0.00     0.046 C
BRANCH  26  28
HETATM   28  O2  UNL     1       1.142  60.380  72.137  1.00  0.00    -0.389 OA
ATOM     29  H2  UNL     1       1.286  59.910  71.325  1.00  0.00     0.210 HD
ENDBRANCH  26  28
BRANCH  26  30
HETATM   30  C27 UNL     1       1.086  61.591  70.231  1.00  0.00     0.043 C
BRANCH  30  31
HETATM   31  C28 UNL     1       2.357  61.353  69.521  1.00  0.00     0.043 C
BRANCH  31  32
HETATM   32  C29 UNL     1       3.217  60.230  69.916  1.00  0.00    -0.031 A
HETATM   33  C30 UNL     1       4.391  60.225  70.579  1.00  0.00     0.152 A
HETATM   34  O3  UNL     1       4.787  58.986  70.758  1.00  0.00    -0.300 OA
HETATM   35  C31 UNL     1       3.927  58.155  70.241  1.00  0.00     0.183 A
HETATM   36  C32 UNL     1       2.914  58.877  69.696  1.00  0.00     0.073 A
BRANCH  35  37
HETATM   37  O4  UNL     1       4.057  56.750  70.256  1.00  0.00    -0.341 OA
ATOM     38  H4  UNL     1       3.773  56.172  69.557  1.00  0.00     0.220 HD
ENDBRANCH  35  37
ENDBRANCH  31  32
ENDBRANCH  30  31
ENDBRANCH  26  30
ENDBRANCH  10  26
TORSDOF 13
ENDMDL