MODEL 5
REMARK VINA RESULT: -8.366491001      4.167      7.712
REMARK  12 active torsions:
REMARK  status: ('A' for Active; 'I' for Inactive)
REMARK    1  A    between atoms: C2_2  and  C4_4
REMARK    2  A    between atoms: C5_5  and  C6_6
REMARK    3  A    between atoms: C9_9  and  O1_10
REMARK    4  A    between atoms: O1_10  and  C10_11
REMARK    5  A    between atoms: C10_11  and  C11_13
REMARK    6  A    between atoms: C11_13  and  C12_14
REMARK    7  A    between atoms: C12_14  and  C13_15
REMARK    8  A    between atoms: C13_15  and  N1_18
REMARK    9  A    between atoms: C24_30  and  C25_31
REMARK   10  A    between atoms: C25_31  and  C27_33
REMARK   11  A    between atoms: C27_33  and  C28_34
REMARK   12  A    between atoms: C28_34  and  C29_35
ROOT
HETATM    1  C6  UNL     1       0.509  62.754  71.337  1.00  0.00    -0.010 C
HETATM    2  C7  UNL     1       1.210  62.237  72.535  1.00  0.00     0.017 C
HETATM    3  C8  UNL     1       2.312  61.243  72.264  1.00  0.00     0.034 C
HETATM    4  C9  UNL     1       2.193  60.480  71.000  1.00  0.00     0.140 C
HETATM    5  C16 UNL     1       2.198  61.498  69.878  1.00  0.00    -0.016 C
HETATM    6  C17 UNL     1       3.691  61.704  69.552  1.00  0.00     0.018 C
HETATM    7  C18 UNL     1       1.647  60.789  68.660  1.00  0.00     0.018 C
HETATM    8  C19 UNL     1       1.531  62.785  70.200  1.00  0.00     0.009 C
HETATM    9  C20 UNL     1       2.506  63.880  70.415  1.00  0.00     0.011 C
HETATM   10  C21 UNL     1       1.839  65.185  70.044  1.00  0.00     0.034 C
HETATM   11  C22 UNL     1       0.410  65.082  70.396  1.00  0.00    -0.084 C
HETATM   12  C23 UNL     1      -0.398  65.941  69.776  1.00  0.00     0.015 C
HETATM   13  C24 UNL     1      -0.128  64.079  71.393  1.00  0.00     0.030 C
ENDROOT
BRANCH   4  14
HETATM   14  O1  UNL     1       3.379  59.666  70.928  1.00  0.00    -0.315 OA
BRANCH  14  15
HETATM   15  C10 UNL     1       3.337  58.281  70.908  1.00  0.00     0.259 C
HETATM   16  O2  UNL     1       4.047  57.705  70.045  1.00  0.00    -0.265 OA
BRANCH  15  17
HETATM   17  C11 UNL     1       2.487  57.504  71.866  1.00  0.00     0.113 C
BRANCH  17  18
HETATM   18  C12 UNL     1       2.820  57.830  73.286  1.00  0.00     0.047 C
BRANCH  18  19
HETATM   19  C13 UNL     1       2.186  56.756  74.160  1.00  0.00     0.117 C
HETATM   20  C14 UNL     1       1.601  55.651  73.312  1.00  0.00     0.045 C
HETATM   21  C15 UNL     1       1.067  57.396  74.935  1.00  0.00     0.045 C
BRANCH  19  22
HETATM   22  N1  UNL     1       3.142  56.240  75.119  1.00  0.00    -0.071 N
ATOM     23  H13 UNL     1       3.772  55.558  74.695  1.00  0.00     0.275 HD
ATOM     24  H12 UNL     1       3.831  56.945  75.380  1.00  0.00     0.275 HD
ATOM     25  H11 UNL     1       2.667  55.857  75.936  1.00  0.00     0.275 HD
ENDBRANCH  19  22
ENDBRANCH  18  19
ENDBRANCH  17  18
ENDBRANCH  15  17
ENDBRANCH  14  15
ENDBRANCH   4  14
BRANCH   1  26
HETATM   26  C5  UNL     1      -0.537  61.698  71.006  1.00  0.00    -0.015 C
HETATM   27  C4  UNL     1      -1.733  61.989  70.542  1.00  0.00     0.003 C
BRANCH  27  28
HETATM   28  C2  UNL     1      -2.766  61.065  70.209  1.00  0.00    -0.072 C
HETATM   29  C1  UNL     1      -3.102  60.782  68.971  1.00  0.00     0.018 C
HETATM   30  C3  UNL     1      -3.493  60.391  71.312  1.00  0.00     0.047 C
ENDBRANCH  27  28
ENDBRANCH   1  26
BRANCH  13  31
HETATM   31  C25 UNL     1      -0.280  64.856  72.654  1.00  0.00    -0.009 C
HETATM   32  C26 UNL     1      -1.595  65.557  72.804  1.00  0.00     0.011 C
BRANCH  31  33
HETATM   33  C27 UNL     1       0.328  64.301  73.890  1.00  0.00     0.009 C
BRANCH  33  34
HETATM   34  C28 UNL     1      -0.723  64.067  74.946  1.00  0.00     0.028 C
BRANCH  34  35
HETATM   35  C29 UNL     1      -0.330  62.871  75.753  1.00  0.00    -0.025 C
HETATM   36  C30 UNL     1      -0.864  61.681  75.546  1.00  0.00    -0.091 C
HETATM   37  C31 UNL     1      -0.455  60.525  76.358  1.00  0.00     0.042 C
HETATM   38  C32 UNL     1      -1.882  61.513  74.490  1.00  0.00     0.042 C
ENDBRANCH  34  35
ENDBRANCH  33  34
ENDBRANCH  31  33
ENDBRANCH  13  31
TORSDOF 12
ENDMDL