MODEL 5
REMARK VINA RESULT: -9.525542480      1.173      2.244
REMARK  12 active torsions:
REMARK  status: ('A' for Active; 'I' for Inactive)
REMARK    1  A    between atoms: C2_2  and  C3_3
REMARK    2  A    between atoms: C6_6  and  C7_7
REMARK    3  A    between atoms: C7_7  and  C8_8
REMARK    4  A    between atoms: C7_7  and  C14_14
REMARK    5  A    between atoms: C7_7  and  S1_18
REMARK    6  A    between atoms: C8_8  and  C9_9
REMARK    7  A    between atoms: C9_9  and  C10_10
REMARK    8  A    between atoms: S1_18  and  C18_19
REMARK    9  A    between atoms: C18_19  and  C19_20
REMARK   10  A    between atoms: C19_20  and  C20_21
REMARK   11  A    between atoms: C29_30  and  O1_32
REMARK   12  A    between atoms: C31_34  and  O2_35
ROOT
HETATM    1  C7  UNL     1       0.491  63.123  71.216  1.00  0.00     0.049 C
ENDROOT
BRANCH   1   2
HETATM    2  C6  UNL     1       0.005  62.898  72.586  1.00  0.00    -0.057 C
HETATM    3  C5  UNL     1      -0.378  63.918  73.578  1.00  0.00     0.051 C
HETATM    4  C3  UNL     1       0.008  63.628  75.002  1.00  0.00     0.006 C
HETATM    5  C4  UNL     1       1.353  64.230  75.340  1.00  0.00     0.022 C
HETATM    6  C31 UNL     1       0.037  62.182  75.359  1.00  0.00     0.168 C
HETATM    7  C29 UNL     1      -0.666  61.279  74.371  1.00  0.00     0.099 C
HETATM    8  C28 UNL     1      -0.166  61.623  73.040  1.00  0.00     0.017 C
HETATM    9  C30 UNL     1      -2.131  61.308  74.582  1.00  0.00     0.053 C
BRANCH   4  10
HETATM   10  C2  UNL     1      -1.005  64.369  75.848  1.00  0.00    -0.025 C
HETATM   11  C1  UNL     1      -1.760  65.322  75.344  1.00  0.00     0.008 C
ENDBRANCH   4  10
BRANCH   6  12
HETATM   12  O2  UNL     1      -0.581  61.969  76.611  1.00  0.00    -0.391 OA
ATOM     13  H2  UNL     1      -0.718  61.041  76.760  1.00  0.00     0.210 HD
ENDBRANCH   6  12
BRANCH   7  14
HETATM   14  O1  UNL     1      -0.231  59.966  74.685  1.00  0.00    -0.384 OA
ATOM     15  H1  UNL     1      -0.936  59.362  74.486  1.00  0.00     0.211 HD
ENDBRANCH   7  14
ENDBRANCH   1   2
BRANCH   1  16
HETATM   16  C8  UNL     1      -0.269  62.384  70.172  1.00  0.00     0.033 C
BRANCH  16  17
HETATM   17  C9  UNL     1      -1.361  61.464  70.335  1.00  0.00     0.029 C
BRANCH  17  18
HETATM   18  C10 UNL     1      -2.291  61.209  69.227  1.00  0.00    -0.025 C
HETATM   19  C11 UNL     1      -3.503  60.681  69.423  1.00  0.00    -0.091 C
HETATM   20  C12 UNL     1      -4.430  60.429  68.286  1.00  0.00     0.042 C
HETATM   21  C13 UNL     1      -3.938  60.340  70.792  1.00  0.00     0.042 C
ENDBRANCH  17  18
ENDBRANCH  16  17
ENDBRANCH   1  16
BRANCH   1  22
HETATM   22  C14 UNL     1       1.958  62.912  71.034  1.00  0.00     0.000 C
HETATM   23  C15 UNL     1       2.519  61.737  70.404  1.00  0.00    -0.090 C
HETATM   24  C16 UNL     1       2.237  60.387  70.973  1.00  0.00     0.042 C
HETATM   25  C17 UNL     1       2.418  61.688  68.911  1.00  0.00     0.042 C
ENDBRANCH   1  22
BRANCH   1  26
HETATM   26  S1  UNL     1       0.081  64.882  70.796  1.00  0.00    -0.150 SA
BRANCH  26  27
HETATM   27  C18 UNL     1       1.171  65.731  69.733  1.00  0.00     0.076 C
BRANCH  27  28
HETATM   28  C19 UNL     1       0.932  67.115  69.297  1.00  0.00     0.020 C
BRANCH  28  29
HETATM   29  C20 UNL     1       1.237  67.398  67.855  1.00  0.00     0.018 C
HETATM   30  C21 UNL     1       2.283  68.375  67.559  1.00  0.00    -0.083 C
HETATM   31  C22 UNL     1       2.961  69.258  68.535  1.00  0.00     0.043 C
HETATM   32  C23 UNL     1       2.585  68.468  66.242  1.00  0.00    -0.024 C
HETATM   33  C24 UNL     1       1.837  67.601  65.313  1.00  0.00     0.028 C
HETATM   34  C25 UNL     1       0.353  67.907  65.581  1.00  0.00     0.009 C
HETATM   35  C26 UNL     1       0.002  67.750  67.046  1.00  0.00    -0.010 C
HETATM   36  C27 UNL     1      -1.091  66.731  67.164  1.00  0.00     0.010 C
ENDBRANCH  28  29
ENDBRANCH  27  28
ENDBRANCH  26  27
ENDBRANCH   1  26
TORSDOF 12
ENDMDL