MODEL 4
REMARK VINA RESULT: -9.819695441      2.090      3.780
REMARK  11 active torsions:
REMARK  status: ('A' for Active; 'I' for Inactive)
REMARK    1  A    between atoms: C2_2  and  C3_3
REMARK    2  A    between atoms: C4_4  and  C5_5
REMARK    3  A    between atoms: C12_12  and  O1_13
REMARK    4  A    between atoms: C14_17  and  C15_18
REMARK    5  A    between atoms: C16_19  and  C17_20
REMARK    6  A    between atoms: C20_24  and  C21_25
REMARK    7  A    between atoms: C21_25  and  C22_26
REMARK    8  A    between atoms: C24_28  and  C26_30
REMARK    9  A    between atoms: C26_30  and  C27_31
REMARK   10  A    between atoms: C27_31  and  C28_32
REMARK   11  A    between atoms: C32_36  and  O4_37
ROOT
HETATM    1  C3  UNL     1      -1.241  67.363  67.124  1.00  0.00     0.030 A
HETATM    2  C4  UNL     1       0.140  67.124  67.088  1.00  0.00     0.079 A
HETATM    3  O2  UNL     1       0.367  66.237  68.002  1.00  0.00    -0.310 OA
HETATM    4  C14 UNL     1      -0.682  65.866  68.630  1.00  0.00     0.109 A
HETATM    5  C32 UNL     1      -1.764  66.559  68.109  1.00  0.00     0.112 A
ENDROOT
BRANCH   4   6
HETATM    6  C15 UNL     1      -0.734  64.888  69.704  1.00  0.00     0.040 C
HETATM    7  C16 UNL     1       0.324  64.612  70.459  1.00  0.00     0.003 C
BRANCH   7   8
HETATM    8  C17 UNL     1       0.283  63.647  71.524  1.00  0.00     0.006 C
HETATM    9  C18 UNL     1      -0.315  63.963  72.660  1.00  0.00    -0.046 C
HETATM   10  C19 UNL     1      -0.983  65.246  73.000  1.00  0.00     0.203 C
HETATM   11  C24 UNL     1      -0.481  63.129  73.869  1.00  0.00     0.008 C
HETATM   12  O3  UNL     1      -1.170  65.256  74.350  1.00  0.00    -0.381 OA
HETATM   13  C20 UNL     1      -0.710  64.136  74.951  1.00  0.00     0.134 C
HETATM   14  C25 UNL     1       0.817  62.364  74.058  1.00  0.00     0.023 C
BRANCH  13  15
HETATM   15  C21 UNL     1       0.513  64.360  75.804  1.00  0.00     0.033 C
BRANCH  15  16
HETATM   16  C22 UNL     1       0.222  63.919  77.211  1.00  0.00    -0.002 C
HETATM   17  C23 UNL     1      -0.796  64.800  77.865  1.00  0.00     0.005 C
ENDBRANCH  15  16
ENDBRANCH  13  15
BRANCH  11  18
HETATM   18  C26 UNL     1      -1.643  62.175  73.669  1.00  0.00     0.020 C
BRANCH  18  19
HETATM   19  C27 UNL     1      -1.376  61.113  72.639  1.00  0.00     0.028 C
BRANCH  19  20
HETATM   20  C28 UNL     1      -2.730  60.669  72.143  1.00  0.00    -0.025 C
HETATM   21  C29 UNL     1      -3.068  60.753  70.873  1.00  0.00    -0.091 C
HETATM   22  C30 UNL     1      -4.408  60.304  70.432  1.00  0.00     0.042 C
HETATM   23  C31 UNL     1      -2.081  61.304  69.910  1.00  0.00     0.042 C
ENDBRANCH  19  20
ENDBRANCH  18  19
ENDBRANCH  11  18
ENDBRANCH   7   8
ENDBRANCH   4   6
BRANCH   5  24
HETATM   24  O4  UNL     1      -3.095  66.442  68.523  1.00  0.00    -0.357 OA
ATOM     25  H4  UNL     1      -3.481  65.791  69.097  1.00  0.00     0.217 HD
ENDBRANCH   5  24
BRANCH   2  26
HETATM   26  C5  UNL     1       1.127  67.734  66.215  1.00  0.00     0.026 C
HETATM   27  C6  UNL     1       1.235  69.225  66.582  1.00  0.00     0.027 C
HETATM   28  C7  UNL     1       2.478  67.183  66.515  1.00  0.00    -0.014 C
HETATM   29  C8  UNL     1       3.429  67.178  65.605  1.00  0.00    -0.018 C
HETATM   30  C9  UNL     1       3.259  67.705  64.240  1.00  0.00    -0.004 C
HETATM   31  C10 UNL     1       4.378  68.728  64.032  1.00  0.00     0.021 C
HETATM   32  C11 UNL     1       3.443  66.550  63.277  1.00  0.00     0.021 C
HETATM   33  C12 UNL     1       1.953  68.414  64.041  1.00  0.00     0.131 C
HETATM   34  C13 UNL     1       0.809  67.714  64.748  1.00  0.00     0.052 C
BRANCH  33  35
HETATM   35  O1  UNL     1       1.635  68.566  62.709  1.00  0.00    -0.394 OA
ATOM     36  H1  UNL     1       2.308  68.223  62.133  1.00  0.00     0.210 HD
ENDBRANCH  33  35
ENDBRANCH   2  26
BRANCH   1  37
HETATM   37  C2  UNL     1      -1.991  68.267  66.293  1.00  0.00     0.007 C
HETATM   38  C1  UNL     1      -3.148  68.077  65.745  1.00  0.00     0.012 C
ENDBRANCH   1  37
TORSDOF 11
ENDMDL