MODEL 3
REMARK VINA RESULT: -10.782430104      2.582      4.453
REMARK  11 active torsions:
REMARK  status: ('A' for Active; 'I' for Inactive)
REMARK    1  A    between atoms: C10_10  and  C12_12
REMARK    2  A    between atoms: C13_13  and  C14_14
REMARK    3  A    between atoms: C14_14  and  O1_15
REMARK    4  A    between atoms: C15_17  and  C16_18
REMARK    5  A    between atoms: C16_18  and  C19_21
REMARK    6  A    between atoms: C19_21  and  C20_22
REMARK    7  A    between atoms: C21_23  and  C23_25
REMARK    8  A    between atoms: C23_25  and  C24_26
REMARK    9  A    between atoms: C24_26  and  C25_27
REMARK   10  A    between atoms: C30_34  and  C31_35
REMARK   11  A    between atoms: C31_35  and  C32_36
ROOT
HETATM    1  C12 UNL     1       2.136  63.895  70.239  1.00  0.00    -0.004 C
HETATM    2  C13 UNL     1       2.091  65.100  69.901  1.00  0.00     0.034 C
ENDROOT
BRANCH   1   3
HETATM    3  C10 UNL     1       1.436  62.643  70.402  1.00  0.00     0.065 C
HETATM    4  C8  UNL     1      -0.060  62.788  70.205  1.00  0.00     0.003 C
HETATM    5  C7  UNL     1      -0.788  63.537  71.256  1.00  0.00     0.009 C
HETATM    6  C9  UNL     1      -0.706  61.468  69.852  1.00  0.00     0.011 C
HETATM    7  C6  UNL     1      -1.193  62.643  72.418  1.00  0.00     0.040 C
HETATM    8  C5  UNL     1      -0.125  62.645  73.415  1.00  0.00     0.078 C
HETATM    9  C4  UNL     1      -0.352  61.535  74.454  1.00  0.00     0.043 C
HETATM   10  O3  UNL     1       1.170  62.572  72.939  1.00  0.00    -0.308 OA
HETATM   11  C30 UNL     1      -0.146  63.870  74.372  1.00  0.00     0.049 C
HETATM   12  C3  UNL     1       0.537  61.954  75.615  1.00  0.00     0.037 C
HETATM   13  C2  UNL     1       0.844  63.391  75.340  1.00  0.00    -0.082 C
HETATM   14  C1  UNL     1       1.845  64.066  75.852  1.00  0.00     0.015 C
HETATM   15  C29 UNL     1       1.772  62.160  71.794  1.00  0.00     0.272 C
HETATM   16  O2  UNL     1       2.702  61.293  71.894  1.00  0.00    -0.264 OA
HETATM   17  C11 UNL     1       1.964  61.564  69.477  1.00  0.00     0.031 C
BRANCH  11  18
HETATM   18  C31 UNL     1      -1.497  64.189  74.813  1.00  0.00     0.011 C
BRANCH  18  19
HETATM   19  C32 UNL     1      -1.854  65.633  74.823  1.00  0.00    -0.004 C
HETATM   20  C33 UNL     1      -2.610  66.194  75.954  1.00  0.00     0.005 C
ENDBRANCH  18  19
ENDBRANCH  11  18
ENDBRANCH   1   3
BRANCH   2  21
HETATM   21  C14 UNL     1       1.122  66.056  69.392  1.00  0.00     0.066 C
HETATM   22  C15 UNL     1       1.454  66.790  68.318  1.00  0.00     0.043 C
BRANCH  21  23
HETATM   23  O1  UNL     1      -0.083  66.213  69.987  1.00  0.00    -0.361 OA
ATOM     24  H1  UNL     1      -0.171  66.709  70.792  1.00  0.00     0.217 HD
ENDBRANCH  21  23
BRANCH  22  25
HETATM   25  C16 UNL     1       0.720  67.760  67.617  1.00  0.00    -0.056 C
HETATM   26  C17 UNL     1       1.090  69.070  67.749  1.00  0.00    -0.024 C
HETATM   27  C18 UNL     1       2.235  69.434  68.615  1.00  0.00     0.036 C
BRANCH  25  28
HETATM   28  C19 UNL     1      -0.393  67.573  66.674  1.00  0.00     0.065 C
BRANCH  28  29
HETATM   29  C20 UNL     1      -0.164  68.181  65.336  1.00  0.00    -0.020 C
HETATM   30  C21 UNL     1       0.756  67.780  64.464  1.00  0.00    -0.087 C
HETATM   31  C22 UNL     1       0.804  68.553  63.150  1.00  0.00     0.043 C
BRANCH  30  32
HETATM   32  C23 UNL     1       1.746  66.718  64.594  1.00  0.00     0.037 C
BRANCH  32  33
HETATM   33  C24 UNL     1       3.149  67.169  64.208  1.00  0.00     0.031 C
BRANCH  33  34
HETATM   34  C25 UNL     1       3.736  67.834  65.389  1.00  0.00    -0.024 C
HETATM   35  C26 UNL     1       4.784  68.640  65.307  1.00  0.00    -0.091 C
HETATM   36  C27 UNL     1       5.433  68.920  63.983  1.00  0.00     0.042 C
HETATM   37  C28 UNL     1       5.334  69.271  66.540  1.00  0.00     0.042 C
ENDBRANCH  33  34
ENDBRANCH  32  33
ENDBRANCH  30  32
ENDBRANCH  28  29
ENDBRANCH  25  28
ENDBRANCH  22  25
ENDBRANCH   2  21
TORSDOF 11
ENDMDL