MODEL 4
REMARK VINA RESULT: -8.776471585      2.585      4.413
REMARK  15 active torsions:
REMARK  status: ('A' for Active; 'I' for Inactive)
REMARK    1  A    between atoms: C2_2  and  C3_3
REMARK    2  A    between atoms: C5_5  and  C6_6
REMARK    3  A    between atoms: C9_9  and  C10_10
REMARK    4  A    between atoms: C10_10  and  C11_12
REMARK    5  A    between atoms: C12_13  and  C14_15
REMARK    6  A    between atoms: C14_15  and  C15_16
REMARK    7  A    between atoms: C16_17  and  C17_18
REMARK    8  A    between atoms: C19_20  and  C20_21
REMARK    9  A    between atoms: C20_21  and  C21_22
REMARK   10  A    between atoms: C21_22  and  C22_23
REMARK   11  A    between atoms: C25_26  and  O2_27
REMARK   12  A    between atoms: C26_29  and  C27_30
REMARK   13  A    between atoms: C27_30  and  C28_32
REMARK   14  A    between atoms: C28_32  and  C29_33
REMARK   15  A    between atoms: C32_36  and  O4_37
ROOT
HETATM    1  C6  UNL     1       1.503  61.204  74.929  1.00  0.00     0.005 A
HETATM    2  C7  UNL     1       0.649  62.024  74.163  1.00  0.00    -0.032 A
HETATM    3  C8  UNL     1      -0.013  63.162  74.873  1.00  0.00     0.050 C
HETATM    4  C9  UNL     1       0.543  61.756  72.841  1.00  0.00     0.055 A
HETATM    5  C25 UNL     1       1.277  60.670  72.237  1.00  0.00     0.097 A
HETATM    6  C26 UNL     1       2.104  59.883  72.998  1.00  0.00     0.078 A
HETATM    7  C32 UNL     1       2.202  60.171  74.350  1.00  0.00     0.093 A
ENDROOT
BRANCH   4   8
HETATM    8  C10 UNL     1      -0.260  62.578  71.946  1.00  0.00     0.186 C
HETATM    9  O1  UNL     1      -1.525  62.309  72.029  1.00  0.00    -0.287 OA
BRANCH   8  10
HETATM   10  C11 UNL     1       0.054  63.595  71.032  1.00  0.00     0.071 C
HETATM   11  C12 UNL     1      -0.207  64.950  71.182  1.00  0.00    -0.013 C
HETATM   12  C13 UNL     1      -0.889  65.369  72.418  1.00  0.00     0.057 C
BRANCH  11  13
HETATM   13  C14 UNL     1       0.274  65.803  70.167  1.00  0.00    -0.121 C
BRANCH  13  14
HETATM   14  C15 UNL     1       0.693  66.545  69.287  1.00  0.00     0.056 C
HETATM   15  C16 UNL     1       1.679  67.594  69.297  1.00  0.00     0.015 C
BRANCH  15  16
HETATM   16  C17 UNL     1       2.040  68.322  68.252  1.00  0.00    -0.061 C
HETATM   17  C18 UNL     1       2.127  69.799  68.534  1.00  0.00     0.048 C
HETATM   18  C19 UNL     1       2.351  67.776  66.964  1.00  0.00     0.007 C
BRANCH  18  19
HETATM   19  C20 UNL     1       2.705  68.307  65.848  1.00  0.00     0.001 C
BRANCH  19  20
HETATM   20  C21 UNL     1       3.762  67.910  64.965  1.00  0.00     0.002 C
BRANCH  20  21
HETATM   21  C22 UNL     1       4.859  68.693  64.871  1.00  0.00    -0.088 C
HETATM   22  C23 UNL     1       5.461  69.248  66.085  1.00  0.00     0.043 C
HETATM   23  C24 UNL     1       5.413  68.949  63.533  1.00  0.00     0.043 C
ENDBRANCH  20  21
ENDBRANCH  19  20
ENDBRANCH  18  19
ENDBRANCH  15  16
ENDBRANCH  13  14
ENDBRANCH  11  13
ENDBRANCH   8  10
ENDBRANCH   4   8
BRANCH   5  24
HETATM   24  O2  UNL     1       1.099  60.493  70.921  1.00  0.00    -0.359 OA
ATOM     25  H2  UNL     1       1.837  60.708  70.363  1.00  0.00     0.217 HD
ENDBRANCH   5  24
BRANCH   1  26
HETATM   26  C5  UNL     1       1.643  61.521  76.322  1.00  0.00     0.021 C
HETATM   27  C3  UNL     1       1.009  60.939  77.286  1.00  0.00    -0.062 C
HETATM   28  C4  UNL     1      -0.001  59.879  77.001  1.00  0.00     0.048 C
BRANCH  27  29
HETATM   29  C2  UNL     1       1.228  61.336  78.676  1.00  0.00    -0.004 C
HETATM   30  C1  UNL     1       2.445  61.548  79.101  1.00  0.00     0.012 C
ENDBRANCH  27  29
ENDBRANCH   1  26
BRANCH   6  31
HETATM   31  C27 UNL     1       2.843  58.777  72.397  1.00  0.00     0.165 C
HETATM   32  O3  UNL     1       2.429  57.592  72.669  1.00  0.00    -0.292 OA
BRANCH  31  33
HETATM   33  C28 UNL     1       4.000  58.827  71.522  1.00  0.00     0.088 C
BRANCH  33  34
HETATM   34  C29 UNL     1       4.225  60.143  70.827  1.00  0.00    -0.015 C
HETATM   35  C30 UNL     1       5.602  60.689  71.151  1.00  0.00     0.010 C
HETATM   36  C31 UNL     1       4.200  59.965  69.303  1.00  0.00     0.010 C
ENDBRANCH  33  34
ENDBRANCH  31  33
ENDBRANCH   6  31
BRANCH   7  37
HETATM   37  O4  UNL     1       3.046  59.373  75.087  1.00  0.00    -0.359 OA
ATOM     38  H4  UNL     1       3.882  59.083  74.741  1.00  0.00     0.217 HD
ENDBRANCH   7  37
TORSDOF 15
ENDMDL