MODEL 5
REMARK VINA RESULT: -9.799870236      2.573      8.309
REMARK  15 active torsions:
REMARK  status: ('A' for Active; 'I' for Inactive)
REMARK    1  A    between atoms: O1_2  and  C2_3
REMARK    2  A    between atoms: C2_3  and  C3_4
REMARK    3  A    between atoms: C2_3  and  C20_26
REMARK    4  A    between atoms: C3_4  and  C4_5
REMARK    5  A    between atoms: C4_5  and  O2_6
REMARK    6  A    between atoms: C4_5  and  C5_8
REMARK    7  A    between atoms: C5_8  and  C6_9
REMARK    8  A    between atoms: C8_11  and  C9_12
REMARK    9  A    between atoms: C9_12  and  C10_13
REMARK   10  A    between atoms: C10_13  and  C11_14
REMARK   11  A    between atoms: C13_16  and  C14_17
REMARK   12  A    between atoms: C14_17  and  O3_18
REMARK   13  A    between atoms: C14_17  and  C16_22
REMARK   14  A    between atoms: C23_29  and  C24_30
REMARK   15  A    between atoms: C29_35  and  C30_36
ROOT
HETATM    1  C14 UNL     1       1.680  61.467  71.291  1.00  0.00     0.183 C
HETATM    2  C15 UNL     1       1.580  61.437  69.835  1.00  0.00     0.106 C
HETATM    3  N1  UNL     1       1.549  61.398  68.659  1.00  0.00    -0.193 NA
ENDROOT
BRANCH   1   4
HETATM    4  C13 UNL     1       0.976  62.498  72.007  1.00  0.00     0.033 C
HETATM    5  C11 UNL     1      -0.269  62.878  72.068  1.00  0.00    -0.083 C
HETATM    6  C12 UNL     1      -1.310  61.944  71.526  1.00  0.00     0.043 C
BRANCH   5   7
HETATM    7  C10 UNL     1      -0.650  64.011  72.897  1.00  0.00     0.037 C
BRANCH   7   8
HETATM    8  C9  UNL     1      -1.128  65.231  71.939  1.00  0.00     0.032 C
BRANCH   8   9
HETATM    9  C8  UNL     1       0.130  65.333  71.287  1.00  0.00    -0.012 C
HETATM   10  C6  UNL     1       0.309  65.631  69.992  1.00  0.00    -0.022 C
HETATM   11  C7  UNL     1       1.770  65.567  69.590  1.00  0.00     0.057 C
BRANCH  10  12
HETATM   12  C5  UNL     1      -0.715  65.947  69.056  1.00  0.00    -0.118 C
BRANCH  12  13
HETATM   13  C4  UNL     1      -1.627  66.228  68.286  1.00  0.00     0.192 C
BRANCH  13  14
HETATM   14  C3  UNL     1      -1.418  66.680  66.856  1.00  0.00     0.081 C
BRANCH  14  15
HETATM   15  C2  UNL     1      -0.632  68.014  67.003  1.00  0.00     0.157 C
BRANCH  15  16
HETATM   16  O1  UNL     1      -1.452  68.884  66.226  1.00  0.00    -0.386 OA
HETATM   17  C1  UNL     1      -2.630  68.366  65.825  1.00  0.00     0.202 C
ENDBRANCH  15  16
BRANCH  15  18
HETATM   18  C20 UNL     1       0.672  67.926  66.352  1.00  0.00    -0.023 A
HETATM   19  C21 UNL     1       0.821  67.505  65.061  1.00  0.00     0.011 A
HETATM   20  C22 UNL     1       2.047  67.514  64.361  1.00  0.00     0.008 A
HETATM   21  C23 UNL     1       3.159  67.985  65.023  1.00  0.00    -0.050 A
HETATM   22  C28 UNL     1       3.019  68.412  66.324  1.00  0.00     0.016 A
HETATM   23  C29 UNL     1       1.831  68.401  67.004  1.00  0.00    -0.045 A
BRANCH  21  24
HETATM   24  C24 UNL     1       4.500  68.031  64.363  1.00  0.00    -0.024 C
HETATM   25  C25 UNL     1       4.351  68.536  62.943  1.00  0.00     0.019 C
HETATM   26  C26 UNL     1       5.526  68.832  65.035  1.00  0.00     0.019 C
HETATM   27  C27 UNL     1       4.947  66.574  64.213  1.00  0.00     0.019 C
ENDBRANCH  21  24
BRANCH  23  28
HETATM   28  C30 UNL     1       1.809  68.881  68.411  1.00  0.00     0.011 C
HETATM   29  C31 UNL     1       3.222  69.453  68.729  1.00  0.00     0.015 C
HETATM   30  C32 UNL     1       0.876  70.116  68.487  1.00  0.00     0.015 C
ENDBRANCH  23  28
ENDBRANCH  15  18
ENDBRANCH  14  15
ENDBRANCH  13  14
BRANCH  13  31
HETATM   31  O2  UNL     1      -3.009  66.142  68.693  1.00  0.00    -0.384 OA
ATOM     32  H2  UNL     1      -3.212  65.397  69.246  1.00  0.00     0.211 HD
ENDBRANCH  13  31
ENDBRANCH  12  13
ENDBRANCH  10  12
ENDBRANCH   8   9
ENDBRANCH   7   8
ENDBRANCH   5   7
ENDBRANCH   1   4
BRANCH   1  33
HETATM   33  O3  UNL     1       1.267  60.187  71.776  1.00  0.00    -0.369 OA
ATOM     34  H3  UNL     1       0.863  59.697  71.068  1.00  0.00     0.212 HD
ENDBRANCH   1  33
BRANCH   1  35
HETATM   35  C16 UNL     1       3.174  61.539  71.577  1.00  0.00     0.032 C
HETATM   36  C17 UNL     1       4.140  60.758  71.316  1.00  0.00    -0.087 C
HETATM   37  C18 UNL     1       5.497  61.305  71.827  1.00  0.00     0.043 C
HETATM   38  C19 UNL     1       4.229  59.463  70.637  1.00  0.00     0.043 C
ENDBRANCH   1  35
TORSDOF 15
ENDMDL