MODEL 5
REMARK VINA RESULT: -10.549528464      1.622      3.108
REMARK  12 active torsions:
REMARK  status: ('A' for Active; 'I' for Inactive)
REMARK    1  A    between atoms: C4_4  and  C5_5
REMARK    2  A    between atoms: C5_5  and  C6_6
REMARK    3  A    between atoms: C7_7  and  C9_9
REMARK    4  A    between atoms: C9_9  and  C10_10
REMARK    5  A    between atoms: C10_10  and  C11_11
REMARK    6  A    between atoms: C12_12  and  C14_14
REMARK    7  A    between atoms: C14_14  and  C15_15
REMARK    8  A    between atoms: C15_15  and  O2_17
REMARK    9  A    between atoms: O2_17  and  C16_18
REMARK   10  A    between atoms: C19_21  and  C21_23
REMARK   11  A    between atoms: C21_23  and  O3_24
REMARK   12  A    between atoms: C31_35  and  O4_37
ROOT
HETATM    1  C16 UNL     1       0.517  62.817  70.673  1.00  0.00     0.132 C
HETATM    2  C17 UNL     1       1.675  62.159  70.028  1.00  0.00     0.033 C
HETATM    3  C18 UNL     1       3.001  62.244  70.655  1.00  0.00     0.014 C
HETATM    4  C19 UNL     1       3.479  61.003  71.381  1.00  0.00    -0.023 C
HETATM    5  C20 UNL     1       2.931  59.728  70.808  1.00  0.00     0.017 C
HETATM    6  C22 UNL     1       3.373  61.106  72.858  1.00  0.00     0.012 C
HETATM    7  C23 UNL     1       2.131  60.679  73.515  1.00  0.00     0.009 C
HETATM    8  C24 UNL     1       0.868  61.386  73.220  1.00  0.00     0.024 C
HETATM    9  C25 UNL     1       0.961  62.879  73.197  1.00  0.00     0.003 C
HETATM   10  C26 UNL     1       0.707  63.556  71.925  1.00  0.00     0.038 C
HETATM   11  C27 UNL     1       0.140  63.359  74.372  1.00  0.00    -0.041 C
HETATM   12  C28 UNL     1       0.994  63.514  75.639  1.00  0.00     0.015 C
HETATM   13  C29 UNL     1      -0.569  64.648  74.175  1.00  0.00     0.015 C
HETATM   14  C30 UNL     1      -0.864  62.284  74.669  1.00  0.00     0.046 C
HETATM   15  C31 UNL     1      -0.187  61.015  74.231  1.00  0.00     0.059 C
HETATM   16  C32 UNL     1       0.323  60.273  75.420  1.00  0.00     0.046 C
ENDROOT
BRANCH   1  17
HETATM   17  O2  UNL     1      -0.049  63.769  69.740  1.00  0.00    -0.316 OA
BRANCH  17  18
HETATM   18  C15 UNL     1      -0.149  65.107  69.997  1.00  0.00     0.263 C
HETATM   19  O1  UNL     1      -1.273  65.610  70.136  1.00  0.00    -0.265 OA
BRANCH  18  20
HETATM   20  C14 UNL     1       1.045  65.967  70.111  1.00  0.00     0.144 C
BRANCH  20  21
HETATM   21  C12 UNL     1       1.032  67.027  69.053  1.00  0.00    -0.078 C
HETATM   22  C11 UNL     1       1.876  68.048  69.102  1.00  0.00    -0.024 C
HETATM   23  C13 UNL     1       0.051  66.920  67.946  1.00  0.00     0.043 C
BRANCH  22  24
HETATM   24  C10 UNL     1       1.864  69.104  68.063  1.00  0.00     0.031 C
BRANCH  24  25
HETATM   25  C9  UNL     1       3.299  69.361  67.638  1.00  0.00     0.037 C
BRANCH  25  26
HETATM   26  C7  UNL     1       3.624  68.626  66.351  1.00  0.00    -0.087 C
HETATM   27  C6  UNL     1       2.692  67.927  65.785  1.00  0.00    -0.021 C
HETATM   28  C8  UNL     1       5.006  68.765  65.841  1.00  0.00     0.043 C
BRANCH  27  29
HETATM   29  C5  UNL     1       2.632  67.107  64.579  1.00  0.00     0.054 C
BRANCH  29  30
HETATM   30  C4  UNL     1       2.511  65.664  64.763  1.00  0.00    -0.021 C
HETATM   31  C2  UNL     1       3.520  64.859  64.455  1.00  0.00    -0.091 C
HETATM   32  C1  UNL     1       4.771  65.446  63.922  1.00  0.00     0.042 C
HETATM   33  C3  UNL     1       3.435  63.385  64.626  1.00  0.00     0.042 C
ENDBRANCH  29  30
ENDBRANCH  27  29
ENDBRANCH  25  26
ENDBRANCH  24  25
ENDBRANCH  22  24
ENDBRANCH  20  21
ENDBRANCH  18  20
ENDBRANCH  17  18
ENDBRANCH   1  17
BRANCH   4  34
HETATM   34  C21 UNL     1       4.997  60.920  71.083  1.00  0.00     0.173 C
BRANCH  34  35
HETATM   35  O3  UNL     1       5.699  61.367  72.213  1.00  0.00    -0.400 OA
ATOM     36  H3  UNL     1       6.039  62.235  72.035  1.00  0.00     0.209 HD
ENDBRANCH  34  35
ENDBRANCH   4  34
BRANCH  15  37
HETATM   37  O4  UNL     1      -1.207  60.209  73.671  1.00  0.00    -0.390 OA
ATOM     38  H4  UNL     1      -2.074  60.494  73.931  1.00  0.00     0.210 HD
ENDBRANCH  15  37
TORSDOF 12
ENDMDL