MODEL 2
REMARK VINA RESULT: -6.816140682      0.994      1.228
REMARK  9 active torsions:
REMARK  status: ('A' for Active; 'I' for Inactive)
REMARK    1  A    between atoms: C2_2  and  C3_3
REMARK    2  A    between atoms: C3_3  and  C4_4
REMARK    3  A    between atoms: C4_4  and  C5_5
REMARK    4  A    between atoms: C5_5  and  N1_6
REMARK    5  A    between atoms: C7_11  and  C8_12
REMARK    6  A    between atoms: C7_11  and  C9_15
REMARK    7  A    between atoms: C8_12  and  O1_13
REMARK    8  A    between atoms: C9_15  and  S1_17
REMARK    9  A    between atoms: C11_25  and  O4_26
ROOT
HETATM    1  C5  UNL     1      49.116  27.837  13.588  1.00  0.00     0.175 C
HETATM    2  C6  UNL     1      49.750  27.267  12.368  1.00  0.00     0.060 C
HETATM    3  C7  UNL     1      49.353  27.932  11.084  1.00  0.00     0.054 C
HETATM    4  C10 UNL     1      47.845  28.179  11.015  1.00  0.00     0.251 C
HETATM    5  N2  UNL     1      47.179  27.746  12.223  1.00  0.00    -0.046 N
ATOM      6  H21 UNL     1      47.202  26.733  12.335  1.00  0.00     0.280 HD
ATOM      7  H22 UNL     1      46.167  27.864  12.169  1.00  0.00     0.280 HD
HETATM    8  C11 UNL     1      47.752  28.435  13.359  1.00  0.00     0.354 C
ENDROOT
BRANCH   3   9
HETATM    9  C8  UNL     1      50.050  29.274  11.030  1.00  0.00     0.179 C
BRANCH   9  10
HETATM   10  O1  UNL     1      49.138  30.334  10.942  1.00  0.00    -0.400 OA
ATOM     11  H1  UNL     1      49.050  30.796  11.768  1.00  0.00     0.209 HD
ENDBRANCH   9  10
ENDBRANCH   3   9
BRANCH   3  12
HETATM   12  C9  UNL     1      49.690  27.044   9.938  1.00  0.00     0.335 C
HETATM   13  F1  UNL     1      50.921  26.435  10.122  1.00  0.00    -0.229 F
BRANCH  12  14
HETATM   14  S1  UNL     1      49.686  27.786   8.358  1.00  0.00     0.333 S
HETATM   15  O2  UNL     1      51.012  28.267   7.908  1.00  0.00    -0.191 OA
HETATM   16  O3  UNL     1      48.604  28.845   8.206  1.00  0.00    -0.191 OA
HETATM   17  F2  UNL     1      49.226  26.577   7.253  1.00  0.00    -0.102 F
ENDBRANCH  12  14
ENDBRANCH   3  12
BRANCH   1  18
HETATM   18  C4  UNL     1      48.896  26.683  14.569  1.00  0.00     0.043 C
BRANCH  18  19
HETATM   19  C3  UNL     1      49.967  25.630  14.426  1.00  0.00     0.002 C
BRANCH  19  20
HETATM   20  C2  UNL     1      49.483  24.403  15.170  1.00  0.00    -0.004 C
HETATM   21  C1  UNL     1      50.556  23.353  15.287  1.00  0.00     0.005 C
ENDBRANCH  19  20
ENDBRANCH  18  19
ENDBRANCH   1  18
BRANCH   1  22
HETATM   22  N1  UNL     1      49.976  28.785  14.278  1.00  0.00    -0.066 N
ATOM     23  H13 UNL     1      50.124  28.562  15.262  1.00  0.00     0.275 HD
ATOM     24  H12 UNL     1      50.954  28.731  13.992  1.00  0.00     0.275 HD
ATOM     25  H11 UNL     1      49.556  29.702  14.127  1.00  0.00     0.275 HD
ENDBRANCH   1  22
BRANCH   8  26
HETATM   26  O4  UNL     1      46.916  28.190  14.463  1.00  0.00    -0.368 OA
ATOM     27  H4  UNL     1      46.120  28.703  14.397  1.00  0.00     0.212 HD
ENDBRANCH   8  26
TORSDOF 9
ENDMDL