MODEL 1
REMARK VINA RESULT: -6.589931429      0.000      0.000
REMARK  7 active torsions:
REMARK  status: ('A' for Active; 'I' for Inactive)
REMARK    1  A    between atoms: C6_13  and  C7_14
REMARK    2  A    between atoms: C7_14  and  O1_15
REMARK    3  A    between atoms: C7_14  and  N4_17
REMARK    4  A    between atoms: N4_17  and  O2_18
REMARK    5  A    between atoms: N4_17  and  C10_23
REMARK    6  A    between atoms: O2_18  and  C8_19
REMARK    7  A    between atoms: C8_19  and  C9_20
ROOT
HETATM    1  C1  UNL     1      52.526  26.449  11.767  1.00  0.00     0.069 C
HETATM    2  C2  UNL     1      51.868  25.638  12.801  1.00  0.00     0.019 A
HETATM    3  N1  UNL     1      52.355  24.442  13.162  1.00  0.00    -0.345 N
ATOM      4  H1  UNL     1      53.201  24.106  12.702  1.00  0.00     0.167 HD
HETATM    5  C3  UNL     1      51.789  23.663  14.099  1.00  0.00     0.123 A
HETATM    6  N2  UNL     1      52.282  22.518  14.432  1.00  0.00    -0.384 N
ATOM      7  H21 UNL     1      51.852  21.927  15.142  1.00  0.00     0.157 HD
ATOM      8  H22 UNL     1      53.128  22.161  13.986  1.00  0.00     0.157 HD
HETATM    9  C4  UNL     1      50.643  24.148  14.702  1.00  0.00     0.102 A
HETATM   10 CL1  UNL     1      49.873  23.163  15.928  1.00  0.00    -0.078 Cl
HETATM   11  C5  UNL     1      50.113  25.388  14.346  1.00  0.00     0.084 A
HETATM   12  N3  UNL     1      48.946  25.816  15.003  1.00  0.00    -0.100 NA
HETATM   13  C6  UNL     1      50.713  26.169  13.382  1.00  0.00     0.035 A
ENDROOT
BRANCH  13  14
HETATM   14  C7  UNL     1      50.215  27.492  12.959  1.00  0.00     0.256 C
BRANCH  14  15
HETATM   15  O1  UNL     1      50.029  28.290  14.111  1.00  0.00    -0.375 OA
ATOM     16  H1  UNL     1      49.382  28.957  13.914  1.00  0.00     0.212 HD
ENDBRANCH  14  15
BRANCH  14  17
HETATM   17  N4  UNL     1      49.088  27.486  12.092  1.00  0.00    -0.159 NA
BRANCH  17  18
HETATM   18  O2  UNL     1      47.921  27.694  12.686  1.00  0.00    -0.295 OA
BRANCH  18  19
HETATM   19  C8  UNL     1      47.398  28.948  12.505  1.00  0.00     0.265 C
BRANCH  19  20
HETATM   20  C9  UNL     1      46.021  28.931  11.890  1.00  0.00     0.378 C
HETATM   21  F1  UNL     1      45.324  27.784  12.119  1.00  0.00    -0.212 F
HETATM   22  F2  UNL     1      46.109  29.145  10.521  1.00  0.00    -0.212 F
ENDBRANCH  19  20
ENDBRANCH  18  19
ENDBRANCH  17  18
BRANCH  17  23
HETATM   23  C10 UNL     1      49.364  28.315  10.956  1.00  0.00     0.089 A
HETATM   24  C11 UNL     1      50.473  27.937  10.048  1.00  0.00     0.024 A
HETATM   25  C12 UNL     1      49.078  27.871   9.552  1.00  0.00     0.024 A
ENDBRANCH  17  23
ENDBRANCH  14  17
ENDBRANCH  13  14
TORSDOF 7
ENDMDL