MODEL 3
REMARK VINA RESULT: -5.905348742      1.441      2.027
REMARK  10 active torsions:
REMARK  status: ('A' for Active; 'I' for Inactive)
REMARK    1  A    between atoms: N1_1  and  C1_5
REMARK    2  A    between atoms: C1_5  and  C2_6
REMARK    3  A    between atoms: C1_5  and  C9_21
REMARK    4  A    between atoms: C2_6  and  S1_7
REMARK    5  A    between atoms: S1_7  and  O1_8
REMARK    6  A    between atoms: O1_8  and  C3_9
REMARK    7  A    between atoms: C4_10  and  O2_11
REMARK    8  A    between atoms: C6_14  and  C7_15
REMARK    9  A    between atoms: C7_15  and  O3_16
REMARK   10  A    between atoms: C8_18  and  O4_19
ROOT
HETATM    1  C3  UNL     1      49.206  28.481  12.132  1.00  0.00     0.195 C
HETATM    2  C4  UNL     1      48.327  27.474  11.425  1.00  0.00     0.151 C
HETATM    3  C5  UNL     1      48.771  27.717   9.979  1.00  0.00     0.043 C
HETATM    4  C6  UNL     1      48.882  29.217   9.927  1.00  0.00     0.043 C
HETATM    5  C8  UNL     1      48.898  29.725  11.349  1.00  0.00     0.157 C
ENDROOT
BRANCH   1   6
HETATM    6  O1  UNL     1      48.967  28.565  13.483  1.00  0.00    -0.309 OA
BRANCH   6   7
HETATM    7  S1  UNL     1      49.272  27.136  14.337  1.00  0.00    -0.009 SA
BRANCH   7   8
HETATM    8  C2  UNL     1      51.031  26.754  14.272  1.00  0.00     0.142 C
BRANCH   8   9
HETATM    9  C1  UNL     1      51.333  25.556  13.390  1.00  0.00     0.248 C
BRANCH   9  10
HETATM   10  N1  UNL     1      52.454  25.946  12.535  1.00  0.00    -0.070 N
ATOM     11  H13 UNL     1      52.859  26.848  12.785  1.00  0.00     0.274 HD
ATOM     12  H12 UNL     1      53.293  25.386  12.685  1.00  0.00     0.274 HD
ATOM     13  H11 UNL     1      52.110  25.910  11.575  1.00  0.00     0.274 HD
ENDBRANCH   9  10
BRANCH   9  14
HETATM   14  C9  UNL     1      51.849  24.403  14.246  1.00  0.00     0.217 C
HETATM   15 CL1  UNL     1      50.505  23.722  15.172  1.00  0.00    -0.081 Cl
HETATM   16 CL2  UNL     1      52.454  23.116  13.162  1.00  0.00    -0.081 Cl
HETATM   17 CL3  UNL     1      53.179  24.881  15.303  1.00  0.00    -0.081 Cl
ENDBRANCH   9  14
ENDBRANCH   8   9
ENDBRANCH   7   8
ENDBRANCH   6   7
ENDBRANCH   1   6
BRANCH   2  18
HETATM   18  O2  UNL     1      46.974  27.810  11.458  1.00  0.00    -0.393 OA
ATOM     19  H2  UNL     1      46.540  27.525  12.253  1.00  0.00     0.210 HD
ENDBRANCH   2  18
BRANCH   5  20
HETATM   20  O4  UNL     1      49.853  30.723  11.527  1.00  0.00    -0.392 OA
ATOM     21  H4  UNL     1      49.470  31.590  11.597  1.00  0.00     0.210 HD
ENDBRANCH   5  20
BRANCH   4  22
HETATM   22  C7  UNL     1      47.736  29.862   9.179  1.00  0.00     0.171 C
BRANCH  22  23
HETATM   23  O3  UNL     1      46.940  30.557  10.091  1.00  0.00    -0.400 OA
ATOM     24  H3  UNL     1      46.539  31.294   9.646  1.00  0.00     0.209 HD
ENDBRANCH  22  23
ENDBRANCH   4  22
TORSDOF 10
ENDMDL