MODEL 2
REMARK VINA RESULT: -6.963460596      3.577      4.790
REMARK  7 active torsions:
REMARK  status: ('A' for Active; 'I' for Inactive)
REMARK    1  A    between atoms: C2_2  and  O1_3
REMARK    2  A    between atoms: C5_10  and  N1_11
REMARK    3  A    between atoms: C6_15  and  C7_16
REMARK    4  A    between atoms: C7_16  and  C8_17
REMARK    5  A    between atoms: C8_17  and  C9_18
REMARK    6  A    between atoms: C11_21  and  N4_22
REMARK    7  A    between atoms: N4_22  and  O3_23
ROOT
HETATM    1  N1  UNL     1      49.022  27.796  13.037  1.00  0.00    -0.231 N
HETATM    2  N2  UNL     1      47.733  28.033  13.238  1.00  0.00    -0.015 NA
HETATM    3  N3  UNL     1      47.847  27.405  14.410  1.00  0.00    -0.271 N
ATOM      4  H3  UNL     1      47.196  27.191  15.166  1.00  0.00     0.185 HD
HETATM    5  C6  UNL     1      49.139  27.167  14.210  1.00  0.00     0.112 A
ENDROOT
BRANCH   1   6
HETATM    6  C5  UNL     1      49.921  28.112  11.951  1.00  0.00     0.284 C
HETATM    7  C2  UNL     1      49.249  28.894  10.847  1.00  0.00     0.107 C
HETATM    8  C1  UNL     1      47.930  28.307  10.441  1.00  0.00     0.051 C
HETATM    9  C3  UNL     1      50.219  28.634   9.688  1.00  0.00     0.154 C
HETATM   10  C4  UNL     1      50.756  27.284  10.049  1.00  0.00     0.359 C
HETATM   11  F1  UNL     1      52.121  27.263   9.877  1.00  0.00    -0.176 F
HETATM   12  F2  UNL     1      50.232  26.343   9.156  1.00  0.00    -0.176 F
HETATM   13  O2  UNL     1      50.355  26.975  11.321  1.00  0.00    -0.296 OA
BRANCH   7  14
HETATM   14  O1  UNL     1      49.177  30.241  11.128  1.00  0.00    -0.385 OA
ATOM     15  H1  UNL     1      49.267  30.434  12.054  1.00  0.00     0.210 HD
ENDBRANCH   7  14
ENDBRANCH   1   6
BRANCH   5  16
HETATM   16  C7  UNL     1      50.292  26.512  14.897  1.00  0.00     0.079 C
BRANCH  16  17
HETATM   17  C8  UNL     1      50.496  25.127  14.380  1.00  0.00     0.015 C
BRANCH  17  18
HETATM   18  C9  UNL     1      51.790  25.029  13.653  1.00  0.00     0.029 A
HETATM   19  C10 UNL     1      52.364  23.618  13.520  1.00  0.00     0.110 A
HETATM   20 CL1  UNL     1      51.834  22.324  14.587  1.00  0.00    -0.123 Cl
HETATM   21  C11 UNL     1      53.089  24.716  14.241  1.00  0.00     0.130 A
BRANCH  21  22
HETATM   22  N4  UNL     1      53.286  24.640  15.675  1.00  0.00    -0.097 NA
BRANCH  22  23
HETATM   23  O3  UNL     1      53.804  25.803  16.136  1.00  0.00    -0.296 OA
ATOM     24  H3  UNL     1      54.700  25.670  16.423  1.00  0.00     0.238 HD
ENDBRANCH  22  23
ENDBRANCH  21  22
ENDBRANCH  17  18
ENDBRANCH  16  17
ENDBRANCH   5  16
TORSDOF 7
ENDMDL