MODEL 5
REMARK VINA RESULT: -7.028159023      4.158      7.054
REMARK  7 active torsions:
REMARK  status: ('A' for Active; 'I' for Inactive)
REMARK    1  A    between atoms: N3_9  and  C5_10
REMARK    2  A    between atoms: C5_10  and  C6_11
REMARK    3  A    between atoms: C6_11  and  C7_12
REMARK    4  A    between atoms: C7_12  and  N4_13
REMARK    5  A    between atoms: N4_13  and  C8_16
REMARK    6  A    between atoms: C8_16  and  C9_18
REMARK    7  A    between atoms: C11_24  and  N7_25
ROOT
HETATM    1  N4  UNL     1      48.580  26.441  14.392  1.00  0.00    -0.054 N
ATOM      2  H41 UNL     1      48.486  26.398  13.377  1.00  0.00     0.279 HD
ATOM      3  H42 UNL     1      47.672  26.062  14.660  1.00  0.00     0.279 HD
ENDROOT
BRANCH   1   4
HETATM    4  C7  UNL     1      48.719  27.812  14.839  1.00  0.00     0.236 C
BRANCH   4   5
HETATM    5  C6  UNL     1      48.033  28.785  13.932  1.00  0.00     0.049 C
BRANCH   5   6
HETATM    6  C5  UNL     1      48.938  29.491  12.972  1.00  0.00     0.150 C
BRANCH   6   7
HETATM    7  N3  UNL     1      48.326  29.429  11.661  1.00  0.00    -0.292 N
HETATM    8  C2  UNL     1      48.947  29.241  10.481  1.00  0.00     0.066 A
HETATM    9  C1  UNL     1      50.411  29.057  10.268  1.00  0.00     0.073 C
HETATM   10  C3  UNL     1      47.949  29.258   9.537  1.00  0.00     0.182 A
HETATM   11  F1  UNL     1      48.142  29.104   8.215  1.00  0.00    -0.200 F
HETATM   12  C4  UNL     1      46.715  29.458  10.163  1.00  0.00     0.172 A
HETATM   13  N1  UNL     1      45.448  29.535   9.534  1.00  0.00    -0.078 NA
HETATM   14  N2  UNL     1      47.017  29.556  11.480  1.00  0.00    -0.283 N
ATOM     15  H2  UNL     1      46.337  29.706  12.225  1.00  0.00     0.188 HD
ENDBRANCH   6   7
ENDBRANCH   5   6
ENDBRANCH   4   5
ENDBRANCH   1   4
BRANCH   1  16
HETATM   16  C8  UNL     1      49.637  25.595  14.842  1.00  0.00     0.319 C
HETATM   17 CL1  UNL     1      49.172  23.911  15.067  1.00  0.00    -0.089 Cl
BRANCH  16  18
HETATM   18  C9  UNL     1      50.809  25.683  13.933  1.00  0.00     0.050 A
HETATM   19  C10 UNL     1      50.919  26.265  12.700  1.00  0.00     0.145 A
HETATM   20  N5  UNL     1      52.163  26.104  12.245  1.00  0.00    -0.205 N
HETATM   21 CL2  UNL     1      52.816  26.669  10.708  1.00  0.00     0.035 Cl
HETATM   22  N6  UNL     1      52.843  25.433  13.162  1.00  0.00    -0.269 N
HETATM   23  C11 UNL     1      52.051  25.155  14.212  1.00  0.00     0.125 A
ATOM     24  H6  UNL     1      53.824  25.167  13.083  1.00  0.00     0.190 HD
BRANCH  23  25
HETATM   25  N7  UNL     1      52.364  24.519  15.285  1.00  0.00    -0.384 N
ATOM     26  H72 UNL     1      52.392  23.509  15.425  1.00  0.00     0.157 HD
ATOM     27  H71 UNL     1      52.632  24.952  16.169  1.00  0.00     0.157 HD
ENDBRANCH  23  25
ENDBRANCH  16  18
ENDBRANCH   1  16
TORSDOF 7
ENDMDL