MODEL 3
REMARK VINA RESULT: -5.739407926      3.051      6.425
REMARK  7 active torsions:
REMARK  status: ('A' for Active; 'I' for Inactive)
REMARK    1  A    between atoms: N1_1  and  C1_4
REMARK    2  A    between atoms: C1_4  and  C2_5
REMARK    3  A    between atoms: C2_5  and  N2_6
REMARK    4  A    between atoms: N2_6  and  C3_8
REMARK    5  A    between atoms: C3_8  and  C4_10
REMARK    6  A    between atoms: C3_8  and  C9_23
REMARK    7  A    between atoms: C4_10  and  N3_11
ROOT
HETATM    1  C4  UNL     1      51.339  26.103  14.070  1.00  0.00     0.182 C
ENDROOT
BRANCH   1   2
HETATM    2  C3  UNL     1      51.705  24.642  14.075  1.00  0.00     0.154 C
HETATM    3 CL1  UNL     1      52.910  24.486  15.428  1.00  0.00    -0.091 Cl
BRANCH   2   4
HETATM    4  N2  UNL     1      52.391  24.185  12.937  1.00  0.00    -0.372 N
ATOM      5  H2  UNL     1      52.758  24.858  12.263  1.00  0.00     0.161 HD
BRANCH   4   6
HETATM    6  C2  UNL     1      52.577  22.809  12.717  1.00  0.00     0.101 C
BRANCH   6   7
HETATM    7  C1  UNL     1      52.898  22.386  11.333  1.00  0.00     0.097 C
BRANCH   7   8
HETATM    8  N1  UNL     1      54.035  21.947  10.946  1.00  0.00    -0.407 N
ATOM      9  H12 UNL     1      54.556  22.541  10.300  1.00  0.00     0.155 HD
ATOM     10  H11 UNL     1      54.447  21.060  11.235  1.00  0.00     0.155 HD
ENDBRANCH   7   8
ENDBRANCH   6   7
ENDBRANCH   4   6
ENDBRANCH   2   4
BRANCH   2  11
HETATM   11  C9  UNL     1      50.567  23.765  14.555  1.00  0.00     0.223 C
HETATM   12 CL2  UNL     1      51.144  22.779  15.918  1.00  0.00    -0.104 Cl
HETATM   13 CL3  UNL     1      49.342  24.885  15.255  1.00  0.00    -0.104 Cl
ENDBRANCH   2  11
ENDBRANCH   1   2
BRANCH   1  14
HETATM   14  N3  UNL     1      50.953  26.607  12.779  1.00  0.00    -0.323 N
HETATM   15  C5  UNL     1      51.696  26.687  11.652  1.00  0.00     0.185 A
HETATM   16  N4  UNL     1      50.977  27.218  10.639  1.00  0.00    -0.346 N
HETATM   17  C6  UNL     1      49.747  27.495  11.096  1.00  0.00     0.122 A
ATOM     18  H4  UNL     1      51.311  27.380   9.689  1.00  0.00     0.167 HD
HETATM   19  C7  UNL     1      48.500  28.006  10.758  1.00  0.00     0.161 A
HETATM   20  C8  UNL     1      49.745  27.112  12.421  1.00  0.00     0.154 A
HETATM   21  N5  UNL     1      48.126  28.494   9.482  1.00  0.00    -0.079 NA
HETATM   22  N6  UNL     1      47.774  27.922  11.880  1.00  0.00    -0.284 N
HETATM   23  N7  UNL     1      48.490  27.398  12.869  1.00  0.00    -0.282 N
ATOM     24  H6  UNL     1      46.802  28.219  11.964  1.00  0.00     0.188 HD
ATOM     25  H7  UNL     1      48.152  27.235  13.817  1.00  0.00     0.188 HD
ENDBRANCH   1  14
TORSDOF 7
ENDMDL