MODEL 4
REMARK VINA RESULT: -6.952537466      4.287      7.021
REMARK  9 active torsions:
REMARK  status: ('A' for Active; 'I' for Inactive)
REMARK    1  A    between atoms: C2_3  and  N2_4
REMARK    2  A    between atoms: C6_10  and  C7_11
REMARK    3  A    between atoms: C7_11  and  C8_12
REMARK    4  A    between atoms: C8_12  and  C9_13
REMARK    5  A    between atoms: C9_13  and  C10_14
REMARK    6  A    between atoms: C10_14  and  C11_15
REMARK    7  A    between atoms: C11_15  and  N3_16
REMARK    8  A    between atoms: C11_15  and  O1_20
REMARK    9  A    between atoms: C13_26  and  N5_27
ROOT
HETATM    1  C1  UNL     1      50.073  27.574   8.961  1.00  0.00     0.177 C
HETATM    2  N1  UNL     1      50.747  26.980  10.097  1.00  0.00    -0.172 N
HETATM    3  C2  UNL     1      50.295  27.236  11.367  1.00  0.00     0.133 A
HETATM    4  C6  UNL     1      50.895  26.690  12.456  1.00  0.00     0.055 A
HETATM    5  C12 UNL     1      51.988  25.861  12.217  1.00  0.00     0.269 A
HETATM    6  O2  UNL     1      52.608  25.312  13.152  1.00  0.00    -0.267 OA
HETATM    7  N4  UNL     1      52.431  25.612  10.959  1.00  0.00    -0.156 N
ATOM      8  H4  UNL     1      53.234  25.002  10.808  1.00  0.00     0.187 HD
HETATM    9  C13 UNL     1      51.803  26.177   9.911  1.00  0.00     0.682 A
ENDROOT
BRANCH   4  10
HETATM   10  C7  UNL     1      50.473  26.897  13.821  1.00  0.00     0.048 C
BRANCH  10  11
HETATM   11  C8  UNL     1      49.253  26.142  14.283  1.00  0.00     0.005 C
BRANCH  11  12
HETATM   12  C9  UNL     1      49.779  25.164  15.347  1.00  0.00     0.004 C
BRANCH  12  13
HETATM   13  C10 UNL     1      49.774  23.741  14.859  1.00  0.00     0.061 C
BRANCH  13  14
HETATM   14  C11 UNL     1      51.172  23.189  15.148  1.00  0.00     0.316 C
BRANCH  14  15
HETATM   15  N3  UNL     1      51.736  22.482  14.038  1.00  0.00    -0.053 N
ATOM     16  H33 UNL     1      51.227  21.616  13.862  1.00  0.00     0.277 HD
ATOM     17  H32 UNL     1      51.546  22.969  13.163  1.00  0.00     0.277 HD
ATOM     18  H31 UNL     1      52.735  22.302  14.146  1.00  0.00     0.277 HD
ENDBRANCH  14  15
BRANCH  14  19
HETATM   19  O1  UNL     1      52.049  24.188  15.554  1.00  0.00    -0.370 OA
ATOM     20  H1  UNL     1      52.933  24.028  15.246  1.00  0.00     0.212 HD
ENDBRANCH  14  19
ENDBRANCH  13  14
ENDBRANCH  12  13
ENDBRANCH  11  12
ENDBRANCH  10  11
ENDBRANCH   4  10
BRANCH   3  21
HETATM   21  N2  UNL     1      49.175  28.075  11.484  1.00  0.00    -0.355 N
HETATM   22  C3  UNL     1      48.810  29.473  11.673  1.00  0.00     0.205 A
HETATM   23  C4  UNL     1      47.339  29.134  11.794  1.00  0.00     0.275 A
HETATM   24  F1  UNL     1      46.525  29.697  10.828  1.00  0.00    -0.203 F
HETATM   25  F2  UNL     1      46.831  29.353  13.077  1.00  0.00    -0.203 F
HETATM   26  C5  UNL     1      47.741  27.728  11.490  1.00  0.00     0.205 A
ENDBRANCH   3  21
BRANCH   9  27
HETATM   27  N5  UNL     1      52.194  25.968   8.689  1.00  0.00    -0.234 N
ATOM     28  H52 UNL     1      51.571  25.568   7.988  1.00  0.00     0.174 HD
ATOM     29  H51 UNL     1      53.154  26.218   8.451  1.00  0.00     0.174 HD
ENDBRANCH   9  27
TORSDOF 9
ENDMDL