MODEL 1
REMARK VINA RESULT: -6.596111399      0.000      0.000
REMARK  11 active torsions:
REMARK  status: ('A' for Active; 'I' for Inactive)
REMARK    1  A    between atoms: O1_1  and  C1_3
REMARK    2  A    between atoms: C1_3  and  C2_4
REMARK    3  A    between atoms: C2_4  and  O2_5
REMARK    4  A    between atoms: C2_4  and  C3_7
REMARK    5  A    between atoms: C3_7  and  O3_8
REMARK    6  A    between atoms: O3_8  and  C4_9
REMARK    7  A    between atoms: N1_16  and  C8_17
REMARK    8  A    between atoms: C8_17  and  C9_18
REMARK    9  A    between atoms: C8_17  and  C10_21
REMARK   10  A    between atoms: C9_18  and  O4_19
REMARK   11  A    between atoms: C10_21  and  O5_22
ROOT
HETATM    1  C4  UNL     1      48.698  27.932  10.637  1.00  0.00     0.170 A
HETATM    2  C5  UNL     1      49.479  27.587   9.569  1.00  0.00     0.110 A
HETATM    3 CL1  UNL     1      49.234  27.909   7.845  1.00  0.00    -0.078 Cl
HETATM    4  C6  UNL     1      50.584  26.949  10.079  1.00  0.00     0.098 A
HETATM    5 CL2  UNL     1      51.919  26.298   9.133  1.00  0.00    -0.079 Cl
HETATM    6  C7  UNL     1      50.429  26.931  11.465  1.00  0.00     0.132 A
HETATM    7 CL3  UNL     1      51.639  26.177  12.501  1.00  0.00    -0.062 Cl
HETATM    8  N1  UNL     1      49.288  27.526  11.817  1.00  0.00    -0.306 N
ENDROOT
BRANCH   1   9
HETATM    9  O3  UNL     1      47.516  28.564  10.589  1.00  0.00    -0.332 OA
BRANCH   9  10
HETATM   10  C3  UNL     1      47.016  29.795  10.369  1.00  0.00     0.211 C
BRANCH  10  11
HETATM   11  C2  UNL     1      46.145  30.004   9.151  1.00  0.00     0.166 C
BRANCH  11  12
HETATM   12  C1  UNL     1      46.481  31.363   8.531  1.00  0.00     0.198 C
BRANCH  12  13
HETATM   13  O1  UNL     1      45.833  32.370   9.262  1.00  0.00    -0.398 OA
ATOM     14  H1  UNL     1      44.898  32.315   9.100  1.00  0.00     0.209 HD
ENDBRANCH  12  13
ENDBRANCH  11  12
BRANCH  11  15
HETATM   15  O2  UNL     1      44.824  30.148   9.676  1.00  0.00    -0.391 OA
ATOM     16  H2  UNL     1      44.784  29.554  10.417  1.00  0.00     0.210 HD
ENDBRANCH  11  15
ENDBRANCH  10  11
ENDBRANCH   9  10
ENDBRANCH   1   9
BRANCH   8  17
HETATM   17  C8  UNL     1      48.752  27.725  13.129  1.00  0.00     0.140 C
BRANCH  17  18
HETATM   18  C9  UNL     1      49.139  26.659  14.131  1.00  0.00     0.192 C
BRANCH  18  19
HETATM   19  O4  UNL     1      48.212  26.589  15.173  1.00  0.00    -0.399 OA
ATOM     20  H4  UNL     1      48.430  25.889  15.777  1.00  0.00     0.209 HD
ENDBRANCH  18  19
ENDBRANCH  17  18
BRANCH  17  21
HETATM   21  C10 UNL     1      49.119  29.043  13.772  1.00  0.00     0.192 C
BRANCH  21  22
HETATM   22  O5  UNL     1      50.041  28.820  14.822  1.00  0.00    -0.399 OA
ATOM     23  H5  UNL     1      50.613  29.573  14.910  1.00  0.00     0.209 HD
ENDBRANCH  21  22
ENDBRANCH  17  21
ENDBRANCH   8  17
TORSDOF 11
ENDMDL