MODEL 4
REMARK VINA RESULT: -4.321925877      1.683      5.930
REMARK  7 active torsions:
REMARK  status: ('A' for Active; 'I' for Inactive)
REMARK    1  A    between atoms: N1_2  and  N2_4
REMARK       I    between atoms: N2_4  and  C3_6
REMARK    2  A    between atoms: C3_6  and  C4_8
REMARK    3  A    between atoms: C12_16  and  C13_17
REMARK    4  A    between atoms: C14_18  and  C15_19
REMARK    5  A    between atoms: C15_19  and  N3_20
REMARK    6  A    between atoms: C15_19  and  C16_24
REMARK    7  A    between atoms: N5_26  and  O2_28
ROOT
HETATM    1  C4  UNL     1      51.440  22.861  14.948  1.00  0.00     0.096 C
HETATM    2  C5  UNL     1      50.473  22.436  16.030  1.00  0.00     0.000 C
HETATM    3  C6  UNL     1      50.731  21.023  16.450  1.00  0.00     0.010 C
HETATM    4  C7  UNL     1      50.486  20.060  15.302  1.00  0.00    -0.013 C
HETATM    5  C8  UNL     1      49.093  20.144  14.804  1.00  0.00     0.009 C
HETATM    6  C9  UNL     1      48.862  21.584  14.398  1.00  0.00    -0.013 C
HETATM    7  C10 UNL     1      49.043  22.532  15.573  1.00  0.00     0.010 C
HETATM    8  C11 UNL     1      49.798  21.934  13.322  1.00  0.00     0.019 C
HETATM    9  C12 UNL     1      51.310  21.908  13.785  1.00  0.00    -0.010 C
HETATM   10  C17 UNL     1      51.536  20.505  14.261  1.00  0.00     0.019 C
ENDROOT
BRANCH   9  11
HETATM   11  C13 UNL     1      52.014  22.225  12.545  1.00  0.00    -0.018 C
HETATM   12  C14 UNL     1      53.149  21.620  11.908  1.00  0.00     0.010 C
BRANCH  12  13
HETATM   13  C15 UNL     1      53.185  20.248  11.339  1.00  0.00     0.272 C
BRANCH  13  14
HETATM   14  N3  UNL     1      54.112  19.883  10.362  1.00  0.00    -0.065 N
ATOM     15  H33 UNL     1      54.911  19.457  10.833  1.00  0.00     0.275 HD
ATOM     16  H32 UNL     1      53.725  19.094   9.844  1.00  0.00     0.275 HD
ATOM     17  H31 UNL     1      54.472  20.555   9.685  1.00  0.00     0.275 HD
ENDBRANCH  13  14
BRANCH  13  18
HETATM   18  C16 UNL     1      51.814  19.882  10.772  1.00  0.00     0.147 C
HETATM   19  N4  UNL     1      50.949  19.126  11.630  1.00  0.00    -0.083 NA
HETATM   20  N5  UNL     1      51.459  20.224   9.605  1.00  0.00    -0.257 N
ATOM     21  H5  UNL     1      52.113  20.758   9.033  1.00  0.00     0.195 HD
BRANCH  20  22
HETATM   22  O2  UNL     1      50.241  19.910   9.082  1.00  0.00    -0.289 OA
ATOM     23  H2  UNL     1      49.534  20.539   9.010  1.00  0.00     0.244 HD
ENDBRANCH  20  22
ENDBRANCH  13  18
ENDBRANCH  12  13
ENDBRANCH   9  11
BRANCH   1  24
HETATM   24  C3  UNL     1      51.196  24.282  14.599  1.00  0.00     0.241 C
HETATM   25  N2  UNL     1      50.115  25.061  15.091  1.00  0.00    -0.273 N
ATOM     26  H2  UNL     1      49.475  24.583  15.726  1.00  0.00     0.189 HD
HETATM   27  O1  UNL     1      51.975  24.871  13.823  1.00  0.00    -0.271 OA
BRANCH  25  28
HETATM   28  N1  UNL     1      49.825  26.354  14.827  1.00  0.00    -0.334 N
HETATM   29  C1  UNL     1      48.650  26.680  14.122  1.00  0.00     0.170 C
HETATM   30  C2  UNL     1      50.572  27.396  15.391  1.00  0.00     0.170 C
ENDBRANCH  25  28
ENDBRANCH   1  24
TORSDOF 7
ENDMDL