MODEL 3
REMARK VINA RESULT: -7.275822835      2.057      7.632
REMARK  9 active torsions:
REMARK  status: ('A' for Active; 'I' for Inactive)
REMARK    1  A    between atoms: C3_3  and  O1_4
REMARK    2  A    between atoms: C4_6  and  O2_7
REMARK    3  A    between atoms: C5_9  and  O3_10
REMARK    4  A    between atoms: N1_12  and  C6_13
REMARK    5  A    between atoms: C6_13  and  C7_14
REMARK    6  A    between atoms: C7_14  and  C8_15
REMARK    7  A    between atoms: C8_15  and  C9_16
REMARK    8  A    between atoms: C9_16  and  N2_17
REMARK    9  A    between atoms: C15_23  and  C16_24
ROOT
HETATM    1  C6  UNL     1      49.575  25.846  15.409  1.00  0.00     0.276 C
ENDROOT
BRANCH   1   2
HETATM    2  N1  UNL     1      49.007  26.825  14.554  1.00  0.00     0.126 N
HETATM    3  C2  UNL     1      48.059  27.709  15.207  1.00  0.00     0.253 C
HETATM    4  C1  UNL     1      46.987  26.959  15.917  1.00  0.00     0.046 C
HETATM    5  C3  UNL     1      47.596  28.538  14.041  1.00  0.00     0.184 C
HETATM    6  C4  UNL     1      48.924  28.732  13.295  1.00  0.00     0.208 C
HETATM    7  C5  UNL     1      49.899  27.743  13.933  1.00  0.00     0.388 C
BRANCH   5   8
HETATM    8  O1  UNL     1      46.760  27.784  13.244  1.00  0.00    -0.391 OA
ATOM      9  H1  UNL     1      45.915  27.691  13.670  1.00  0.00     0.210 HD
ENDBRANCH   5   8
BRANCH   6  10
HETATM   10  O2  UNL     1      49.315  30.037  13.465  1.00  0.00    -0.388 OA
ATOM     11  H2  UNL     1      50.113  30.036  13.980  1.00  0.00     0.210 HD
ENDBRANCH   6  10
BRANCH   7  12
HETATM   12  O3  UNL     1      50.664  28.470  14.838  1.00  0.00    -0.366 OA
ATOM     13  H3  UNL     1      51.011  27.844  15.463  1.00  0.00     0.212 HD
ENDBRANCH   7  12
ENDBRANCH   1   2
BRANCH   1  14
HETATM   14  C7  UNL     1      50.726  25.177  14.682  1.00  0.00     0.032 C
BRANCH  14  15
HETATM   15  C8  UNL     1      50.951  23.785  15.232  1.00  0.00     0.021 C
BRANCH  15  16
HETATM   16  C9  UNL     1      51.882  23.020  14.321  1.00  0.00     0.118 C
BRANCH  16  17
HETATM   17  N2  UNL     1      51.285  21.794  13.841  1.00  0.00    -0.399 N
HETATM   18  C10 UNL     1      52.135  21.052  12.985  1.00  0.00     0.118 C
HETATM   19  C11 UNL     1      51.424  20.198  11.953  1.00  0.00     0.019 C
HETATM   20  C12 UNL     1      51.271  18.812  12.595  1.00  0.00     0.002 C
HETATM   21  C13 UNL     1      50.161  18.951  13.613  1.00  0.00     0.002 C
HETATM   22  C14 UNL     1      50.762  19.607  14.832  1.00  0.00     0.036 C
HETATM   23  C15 UNL     1      50.561  21.101  14.832  1.00  0.00     0.181 C
BRANCH  23  24
HETATM   24  C16 UNL     1      49.087  21.358  14.661  1.00  0.00     0.196 C
HETATM   25  O4  UNL     1      48.552  21.303  13.520  1.00  0.00    -0.646 OA
HETATM   26  O5  UNL     1      48.268  21.663  15.736  1.00  0.00    -0.646 OA
ENDBRANCH  23  24
ENDBRANCH  16  17
ENDBRANCH  15  16
ENDBRANCH  14  15
ENDBRANCH   1  14
TORSDOF 9
ENDMDL