MODEL 5
REMARK VINA RESULT: -5.816079050      0.917      1.071
REMARK  10 active torsions:
REMARK  status: ('A' for Active; 'I' for Inactive)
REMARK    1  A    between atoms: C2_2  and  C3_3
REMARK    2  A    between atoms: C3_3  and  C4_4
REMARK    3  A    between atoms: C4_4  and  C5_5
REMARK    4  A    between atoms: C5_5  and  S1_6
REMARK    5  A    between atoms: S1_6  and  C6_7
REMARK    6  A    between atoms: C8_11  and  C9_12
REMARK    7  A    between atoms: C12_15  and  O3_16
REMARK    8  A    between atoms: C13_18  and  N1_19
REMARK    9  A    between atoms: C14_23  and  O4_24
REMARK   10  A    between atoms: C15_26  and  O5_27
ROOT
HETATM    1  C6  UNL     1      50.735  25.315  15.132  1.00  0.00     0.217 C
HETATM    2  O1  UNL     1      51.550  24.469  14.450  1.00  0.00    -0.340 OA
HETATM    3  C7  UNL     1      50.872  23.319  14.078  1.00  0.00     0.303 C
HETATM    4  O2  UNL     1      51.637  22.173  13.915  1.00  0.00    -0.350 OA
HETATM    5  C8  UNL     1      50.674  21.178  13.752  1.00  0.00     0.159 C
HETATM    6  C12 UNL     1      49.511  21.514  14.622  1.00  0.00     0.191 C
HETATM    7  C13 UNL     1      49.953  22.864  15.184  1.00  0.00     0.228 C
HETATM    8  C14 UNL     1      48.806  23.813  15.278  1.00  0.00     0.194 C
HETATM    9  C15 UNL     1      49.260  25.125  14.703  1.00  0.00     0.188 C
ENDROOT
BRANCH   1  10
HETATM   10  S1  UNL     1      51.159  26.985  15.281  1.00  0.00    -0.135 SA
BRANCH  10  11
HETATM   11  C5  UNL     1      50.126  28.344  15.062  1.00  0.00     0.076 C
BRANCH  11  12
HETATM   12  C4  UNL     1      50.402  29.221  13.892  1.00  0.00     0.010 C
BRANCH  12  13
HETATM   13  C3  UNL     1      49.330  29.703  13.022  1.00  0.00     0.000 C
BRANCH  13  14
HETATM   14  C2  UNL     1      48.055  28.871  13.161  1.00  0.00    -0.005 C
HETATM   15  C1  UNL     1      47.866  27.883  12.078  1.00  0.00     0.005 C
ENDBRANCH  13  14
ENDBRANCH  12  13
ENDBRANCH  11  12
ENDBRANCH  10  11
ENDBRANCH   1  10
BRANCH   9  16
HETATM   16  O5  UNL     1      48.566  26.135  15.356  1.00  0.00    -0.389 OA
ATOM     17  H5  UNL     1      49.159  26.878  15.354  1.00  0.00     0.210 HD
ENDBRANCH   9  16
BRANCH   8  18
HETATM   18  O4  UNL     1      48.395  23.895  16.591  1.00  0.00    -0.390 OA
ATOM     19  H4  UNL     1      48.477  23.039  16.995  1.00  0.00     0.210 HD
ENDBRANCH   8  18
BRANCH   7  20
HETATM   20  N1  UNL     1      50.629  22.569  16.409  1.00  0.00    -0.060 N
ATOM     21  H13 UNL     1      50.820  23.425  16.930  1.00  0.00     0.275 HD
ATOM     22  H12 UNL     1      49.999  22.106  17.065  1.00  0.00     0.275 HD
ATOM     23  H11 UNL     1      51.483  22.024  16.286  1.00  0.00     0.275 HD
ENDBRANCH   7  20
BRANCH   5  24
HETATM   24  C9  UNL     1      51.269  19.845  14.059  1.00  0.00     0.009 C
HETATM   25  C10 UNL     1      50.882  18.861  12.984  1.00  0.00     0.012 C
HETATM   26  C11 UNL     1      50.888  19.340  15.438  1.00  0.00     0.012 C
ENDBRANCH   5  24
BRANCH   6  27
HETATM   27  O3  UNL     1      48.304  21.656  13.997  1.00  0.00    -0.390 OA
ATOM     28  H3  UNL     1      47.795  22.424  14.228  1.00  0.00     0.210 HD
ENDBRANCH   6  27
TORSDOF 10
ENDMDL