MODEL 1
REMARK VINA RESULT: -6.601291674      0.000      0.000
REMARK  7 active torsions:
REMARK  status: ('A' for Active; 'I' for Inactive)
REMARK    1  A    between atoms: N1_2  and  C3_4
REMARK    2  A    between atoms: C3_4  and  C4_5
REMARK    3  A    between atoms: C6_9  and  N3_10
REMARK    4  A    between atoms: C11_18  and  N4_19
REMARK    5  A    between atoms: N4_19  and  C12_22
REMARK    6  A    between atoms: C12_22  and  C13_23
REMARK       I    between atoms: C13_23  and  N5_25
REMARK    7  A    between atoms: N5_25  and  C14_27
ROOT
HETATM    1  C3  UNL     1      48.768  27.258  14.292  1.00  0.00     0.221 C
HETATM    2  C7  UNL     1      49.908  28.289  14.195  1.00  0.00     0.050 C
HETATM    3  C8  UNL     1      50.805  28.288  15.375  1.00  0.00     0.003 C
HETATM    4  C9  UNL     1      51.028  26.861  15.820  1.00  0.00     0.002 C
HETATM    5  C10 UNL     1      50.887  25.985  14.585  1.00  0.00     0.036 C
HETATM    6  C11 UNL     1      49.399  25.931  14.186  1.00  0.00     0.230 C
ENDROOT
BRANCH   1   7
HETATM    7  N1  UNL     1      48.086  27.538  15.530  1.00  0.00     0.097 N
HETATM    8  C1  UNL     1      46.951  28.409  15.345  1.00  0.00     0.310 C
HETATM    9  C2  UNL     1      47.566  26.379  16.217  1.00  0.00     0.310 C
ENDBRANCH   1   7
BRANCH   1  10
HETATM   10  C4  UNL     1      47.828  27.637  13.192  1.00  0.00     0.042 A
HETATM   11  C5  UNL     1      46.549  27.286  12.911  1.00  0.00     0.107 A
HETATM   12  N2  UNL     1      45.963  27.810  11.857  1.00  0.00    -0.346 N
HETATM   13  C6  UNL     1      46.654  28.663  11.106  1.00  0.00     0.142 A
ATOM     14  H2  UNL     1      45.001  27.568  11.621  1.00  0.00     0.167 HD
HETATM   15  S1  UNL     1      48.168  28.739  11.895  1.00  0.00    -0.055 SA
BRANCH  13  16
HETATM   16  N3  UNL     1      46.277  29.310  10.017  1.00  0.00    -0.380 N
ATOM     17  H32 UNL     1      45.326  29.511   9.709  1.00  0.00     0.158 HD
ATOM     18  H31 UNL     1      46.851  29.721   9.281  1.00  0.00     0.158 HD
ENDBRANCH  13  16
ENDBRANCH   1  10
BRANCH   6  19
HETATM   19  N4  UNL     1      48.847  24.905  15.009  1.00  0.00    -0.060 N
ATOM     20  H42 UNL     1      48.432  25.282  15.861  1.00  0.00     0.278 HD
ATOM     21  H41 UNL     1      48.006  24.499  14.599  1.00  0.00     0.278 HD
BRANCH  19  22
HETATM   22  C12 UNL     1      49.841  23.905  15.294  1.00  0.00     0.335 C
BRANCH  22  23
HETATM   23  C13 UNL     1      49.361  22.543  14.838  1.00  0.00     0.243 C
HETATM   24  O1  UNL     1      48.169  22.207  14.980  1.00  0.00    -0.272 OA
HETATM   25  N5  UNL     1      50.303  21.677  14.259  1.00  0.00    -0.355 N
ATOM     26  H5  UNL     1      51.277  21.962  14.150  1.00  0.00     0.162 HD
BRANCH  25  27
HETATM   27  C14 UNL     1      49.857  20.360  13.820  1.00  0.00     0.084 A
HETATM   28  C15 UNL     1      50.630  19.582  12.813  1.00  0.00     0.027 A
HETATM   29  C16 UNL     1      50.848  19.267  14.239  1.00  0.00     0.027 A
ENDBRANCH  25  27
ENDBRANCH  22  23
ENDBRANCH  19  22
ENDBRANCH   6  19
TORSDOF 7
ENDMDL