MODEL 3
REMARK VINA RESULT: -6.653583041      2.045      3.021
REMARK  7 active torsions:
REMARK  status: ('A' for Active; 'I' for Inactive)
REMARK    1  A    between atoms: C2_2  and  O1_4
REMARK    2  A    between atoms: O1_4  and  N1_5
REMARK       I    between atoms: C4_7  and  N2_8
REMARK       I    between atoms: C4_7  and  N4_12
REMARK    3  A    between atoms: N4_12  and  C6_14
REMARK    4  A    between atoms: C6_14  and  C7_15
REMARK    5  A    between atoms: C6_14  and  C8_18
REMARK    6  A    between atoms: C7_15  and  O2_16
REMARK       I    between atoms: C8_18  and  N5_20
REMARK    7  A    between atoms: N5_20  and  C9_22
ROOT
HETATM    1  N1  UNL     1      49.061  25.337  14.976  1.00  0.00    -0.096 N
ATOM      2  H1  UNL     1      48.207  25.118  15.489  1.00  0.00     0.213 HD
HETATM    3  C4  UNL     1      50.071  24.542  15.111  1.00  0.00     0.707 C
HETATM    4  N2  UNL     1      51.255  24.897  14.363  1.00  0.00    -0.124 N
ATOM      5  H2  UNL     1      51.243  25.015  13.351  1.00  0.00     0.197 HD
HETATM    6  C5  UNL     1      52.420  25.066  15.118  1.00  0.00     0.196 C
HETATM    7  N3  UNL     1      53.376  25.198  15.754  1.00  0.00    -0.171 NA
HETATM    8  N4  UNL     1      49.987  23.419  15.951  1.00  0.00    -0.208 N
ATOM      9  H4  UNL     1      50.504  23.470  16.828  1.00  0.00     0.178 HD
ENDROOT
BRANCH   1  10
HETATM   10  O1  UNL     1      49.067  26.446  14.195  1.00  0.00    -0.262 OA
BRANCH  10  11
HETATM   11  C2  UNL     1      48.891  27.709  14.807  1.00  0.00     0.144 C
HETATM   12  C1  UNL     1      50.270  28.321  14.937  1.00  0.00     0.042 C
HETATM   13  C3  UNL     1      47.986  28.602  13.952  1.00  0.00     0.042 C
ENDBRANCH  10  11
ENDBRANCH   1  10
BRANCH   8  14
HETATM   14  C6  UNL     1      49.253  22.203  15.712  1.00  0.00     0.215 C
BRANCH  14  15
HETATM   15  C7  UNL     1      48.141  22.508  14.717  1.00  0.00     0.199 C
BRANCH  15  16
HETATM   16  O2  UNL     1      47.777  21.404  13.954  1.00  0.00    -0.398 OA
ATOM     17  H2  UNL     1      48.238  20.612  14.202  1.00  0.00     0.209 HD
ENDBRANCH  15  16
ENDBRANCH  14  15
BRANCH  14  18
HETATM   18  C8  UNL     1      50.139  21.122  15.245  1.00  0.00     0.244 C
HETATM   19  O3  UNL     1      50.966  20.659  16.088  1.00  0.00    -0.271 OA
HETATM   20  N5  UNL     1      50.141  20.565  13.950  1.00  0.00    -0.337 N
ATOM     21  H5  UNL     1      49.485  20.920  13.253  1.00  0.00     0.164 HD
BRANCH  20  22
HETATM   22  C9  UNL     1      51.038  19.518  13.592  1.00  0.00     0.122 C
HETATM   23  C10 UNL     1      50.953  18.470  14.632  1.00  0.00     0.091 C
HETATM   24  N6  UNL     1      50.884  17.632  15.436  1.00  0.00    -0.195 NA
HETATM   25  C11 UNL     1      50.846  18.888  12.269  1.00  0.00     0.046 C
HETATM   26  C12 UNL     1      51.089  19.779  11.095  1.00  0.00     0.004 C
HETATM   27  C13 UNL     1      52.260  20.692  11.226  1.00  0.00     0.000 C
HETATM   28  C14 UNL     1      52.642  21.058  12.611  1.00  0.00     0.004 C
HETATM   29  C15 UNL     1      52.489  19.997  13.642  1.00  0.00     0.046 C
ENDBRANCH  20  22
ENDBRANCH  14  18
ENDBRANCH   8  14
TORSDOF 7
ENDMDL