MODEL 2
REMARK VINA RESULT: -9.006978321      0.616      1.398
REMARK  10 active torsions:
REMARK  status: ('A' for Active; 'I' for Inactive)
REMARK    1  A    between atoms: C6_6  and  C7_7
REMARK    2  A    between atoms: C7_7  and  C8_8
REMARK    3  A    between atoms: C8_8  and  C9_9
REMARK    4  A    between atoms: C9_9  and  C10_10
REMARK    5  A    between atoms: C10_10  and  N1_11
REMARK    6  A    between atoms: C11_13  and  O2_14
REMARK    7  A    between atoms: C12_16  and  O3_17
REMARK    8  A    between atoms: C13_19  and  O4_20
REMARK    9  A    between atoms: C14_22  and  C15_23
REMARK   10  A    between atoms: C15_23  and  O5_24
ROOT
HETATM    1  N1  UNL     1      48.276  27.706  12.983  1.00  0.00    -0.282 N
HETATM    2  O1  UNL     1      47.044  27.268  12.775  1.00  0.00    -0.247 OA
HETATM    3  C11 UNL     1      46.133  28.178  12.308  1.00  0.00     0.317 C
HETATM    4  C12 UNL     1      46.551  28.541  10.904  1.00  0.00     0.206 C
HETATM    5  C13 UNL     1      48.000  28.868  10.817  1.00  0.00     0.178 C
HETATM    6  C14 UNL     1      48.815  28.603  12.034  1.00  0.00     0.163 C
ENDROOT
BRANCH   1   7
HETATM    7  C10 UNL     1      48.656  27.863  14.336  1.00  0.00     0.150 C
BRANCH   7   8
HETATM    8  C9  UNL     1      47.698  27.065  15.208  1.00  0.00     0.022 C
BRANCH   8   9
HETATM    9  C8  UNL     1      48.523  26.081  16.003  1.00  0.00     0.002 C
BRANCH   9  10
HETATM   10  C7  UNL     1      49.348  25.226  15.074  1.00  0.00     0.005 C
BRANCH  10  11
HETATM   11  C6  UNL     1      49.401  23.802  15.524  1.00  0.00    -0.014 C
HETATM   12  C5  UNL     1      50.765  23.196  15.508  1.00  0.00     0.005 C
HETATM   13  C4  UNL     1      50.945  22.212  14.347  1.00  0.00     0.009 C
HETATM   14  C2  UNL     1      50.101  21.012  14.635  1.00  0.00    -0.048 C
HETATM   15  C1  UNL     1      50.746  20.183  15.703  1.00  0.00     0.015 C
HETATM   16  C3  UNL     1      49.998  20.131  13.385  1.00  0.00     0.015 C
HETATM   17  C17 UNL     1      48.721  21.487  15.010  1.00  0.00     0.009 C
HETATM   18  C16 UNL     1      48.511  22.946  14.647  1.00  0.00     0.005 C
ENDBRANCH  10  11
ENDBRANCH   9  10
ENDBRANCH   8   9
ENDBRANCH   7   8
ENDBRANCH   1   7
BRANCH   6  19
HETATM   19  C15 UNL     1      49.266  29.930  12.598  1.00  0.00     0.194 C
BRANCH  19  20
HETATM   20  O5  UNL     1      50.069  30.672  11.776  1.00  0.00    -0.399 OA
ATOM     21  H5  UNL     1      50.949  30.828  12.100  1.00  0.00     0.209 HD
ENDBRANCH  19  20
ENDBRANCH   6  19
BRANCH   3  22
HETATM   22  O2  UNL     1      45.871  29.242  13.123  1.00  0.00    -0.367 OA
ATOM     23  H2  UNL     1      46.116  30.097  12.790  1.00  0.00     0.212 HD
ENDBRANCH   3  22
BRANCH   5  24
HETATM   24  O4  UNL     1      48.523  28.207   9.679  1.00  0.00    -0.391 OA
ATOM     25  H4  UNL     1      48.648  28.858   8.999  1.00  0.00     0.210 HD
ENDBRANCH   5  24
BRANCH   4  26
HETATM   26  O3  UNL     1      45.742  29.544  10.357  1.00  0.00    -0.388 OA
ATOM     27  H3  UNL     1      46.208  30.366  10.260  1.00  0.00     0.210 HD
ENDBRANCH   4  26
TORSDOF 10
ENDMDL