MODEL 2
REMARK VINA RESULT: -7.106912659      1.890      6.608
REMARK  9 active torsions:
REMARK  status: ('A' for Active; 'I' for Inactive)
REMARK    1  A    between atoms: C2_2  and  C4_4
REMARK    2  A    between atoms: C4_4  and  C5_5
REMARK    3  A    between atoms: C5_5  and  N1_6
REMARK    4  A    between atoms: C5_5  and  C12_20
REMARK    5  A    between atoms: N1_6  and  O1_8
REMARK    6  A    between atoms: O1_8  and  C6_9
REMARK    7  A    between atoms: C8_11  and  O2_12
REMARK    8  A    between atoms: C9_14  and  O3_15
REMARK       I    between atoms: C12_20  and  N2_22
REMARK    9  A    between atoms: N2_22  and  C13_24
ROOT
HETATM    1  N1  UNL     1      47.695  26.687  13.507  1.00  0.00    -0.263 N
ATOM      2  H1  UNL     1      47.320  25.879  13.011  1.00  0.00     0.194 HD
ENDROOT
BRANCH   1   3
HETATM    3  C5  UNL     1      48.751  26.578  14.436  1.00  0.00     0.100 C
BRANCH   3   4
HETATM    4  C4  UNL     1      48.889  27.708  15.349  1.00  0.00     0.069 C
BRANCH   4   5
HETATM    5  C2  UNL     1      50.223  28.374  15.335  1.00  0.00    -0.017 C
HETATM    6  C1  UNL     1      50.416  29.158  14.018  1.00  0.00     0.010 C
HETATM    7  C3  UNL     1      51.438  27.537  15.474  1.00  0.00     0.010 C
ENDBRANCH   4   5
ENDBRANCH   3   4
BRANCH   3   8
HETATM    8  C12 UNL     1      48.946  25.220  14.906  1.00  0.00     0.266 C
HETATM    9  O5  UNL     1      48.169  24.810  15.828  1.00  0.00    -0.266 OA
HETATM   10  N2  UNL     1      49.913  24.293  14.454  1.00  0.00    -0.348 N
ATOM     11  H2  UNL     1      50.555  24.590  13.720  1.00  0.00     0.163 HD
BRANCH  10  12
HETATM   12  C13 UNL     1      50.044  22.974  14.957  1.00  0.00     0.022 C
HETATM   13  C14 UNL     1      51.075  22.187  14.125  1.00  0.00     0.037 C
HETATM   14  C15 UNL     1      50.544  22.975  16.385  1.00  0.00     0.037 C
HETATM   15  C16 UNL     1      48.793  22.134  14.927  1.00  0.00     0.037 C
ENDBRANCH  10  12
ENDBRANCH   3   8
ENDBRANCH   1   3
BRANCH   1  16
HETATM   16  O1  UNL     1      47.234  27.880  13.329  1.00  0.00    -0.247 OA
BRANCH  16  17
HETATM   17  C6  UNL     1      47.229  28.553  12.177  1.00  0.00     0.291 C
HETATM   18  C7  UNL     1      48.272  28.008  11.190  1.00  0.00     0.097 C
HETATM   19  C8  UNL     1      48.557  29.117  10.208  1.00  0.00     0.154 C
HETATM   20  C9  UNL     1      47.219  29.802   9.959  1.00  0.00     0.175 C
HETATM   21  C10 UNL     1      46.098  28.829  10.190  1.00  0.00     0.152 C
HETATM   22  C11 UNL     1      44.805  29.440   9.701  1.00  0.00     0.042 C
HETATM   23  O4  UNL     1      45.979  28.465  11.507  1.00  0.00    -0.351 OA
BRANCH  19  24
HETATM   24  O2  UNL     1      49.488  29.991  10.737  1.00  0.00    -0.393 OA
ATOM     25  H2  UNL     1      49.715  30.654  10.096  1.00  0.00     0.210 HD
ENDBRANCH  19  24
BRANCH  20  26
HETATM   26  O3  UNL     1      47.237  30.171   8.607  1.00  0.00    -0.390 OA
ATOM     27  H3  UNL     1      47.189  31.120   8.605  1.00  0.00     0.210 HD
ENDBRANCH  20  26
ENDBRANCH  16  17
ENDBRANCH   1  16
TORSDOF 9
ENDMDL