MODEL 1
REMARK VINA RESULT: -9.715475044      0.000      0.000
REMARK  9 active torsions:
REMARK  status: ('A' for Active; 'I' for Inactive)
REMARK    1  A    between atoms: C2_2  and  C3_3
REMARK    2  A    between atoms: C2_2  and  C15_23
REMARK    3  A    between atoms: C3_3  and  C4_4
REMARK    4  A    between atoms: C5_5  and  C6_6
REMARK    5  A    between atoms: C7_9  and  C8_10
REMARK    6  A    between atoms: C11_13  and  O3_14
REMARK    7  A    between atoms: C12_16  and  O4_17
REMARK    8  A    between atoms: C13_19  and  O5_21
REMARK    9  A    between atoms: C15_23  and  C16_24
ROOT
HETATM    1  C6  UNL     1      50.369  25.450  14.718  1.00  0.00     0.219 C
HETATM    2  O1  UNL     1      49.517  24.892  15.701  1.00  0.00    -0.228 OA
HETATM    3  O2  UNL     1      49.477  23.608  15.414  1.00  0.00    -0.231 OA
HETATM    4  C7  UNL     1      50.795  23.205  15.241  1.00  0.00     0.204 C
HETATM    5  C13 UNL     1      51.460  24.393  14.670  1.00  0.00     0.116 C
HETATM    6  C14 UNL     1      52.567  24.902  15.605  1.00  0.00     0.052 C
ENDROOT
BRANCH   1   7
HETATM    7  C5  UNL     1      50.867  26.733  15.255  1.00  0.00     0.007 C
HETATM    8  C4  UNL     1      50.128  27.817  15.330  1.00  0.00    -0.028 C
BRANCH   8   9
HETATM    9  C3  UNL     1      48.728  27.890  14.892  1.00  0.00     0.031 C
BRANCH   9  10
HETATM   10  C2  UNL     1      48.561  28.441  13.479  1.00  0.00    -0.005 C
HETATM   11  C1  UNL     1      49.547  29.582  13.353  1.00  0.00     0.011 C
BRANCH  10  12
HETATM   12  C15 UNL     1      47.137  28.901  13.320  1.00  0.00     0.117 C
BRANCH  12  13
HETATM   13  C16 UNL     1      46.501  28.405  12.097  1.00  0.00     0.172 C
HETATM   14  O6  UNL     1      45.800  27.367  12.073  1.00  0.00    -0.648 OA
HETATM   15  O7  UNL     1      46.667  29.101  10.910  1.00  0.00    -0.648 OA
ENDBRANCH  12  13
ENDBRANCH  10  12
ENDBRANCH   9  10
ENDBRANCH   8   9
ENDBRANCH   1   7
BRANCH   5  16
HETATM   16  O5  UNL     1      52.028  24.241  13.439  1.00  0.00    -0.384 OA
ATOM     17  H5  UNL     1      52.928  23.937  13.465  1.00  0.00     0.210 HD
ENDBRANCH   5  16
BRANCH   4  18
HETATM   18  C8  UNL     1      50.837  21.947  14.465  1.00  0.00     0.052 C
HETATM   19  C9  UNL     1      49.505  21.479  13.976  1.00  0.00     0.012 C
HETATM   20  C10 UNL     1      49.581  19.968  13.974  1.00  0.00     0.035 C
HETATM   21  C11 UNL     1      50.590  19.615  15.038  1.00  0.00     0.147 C
HETATM   22  C12 UNL     1      51.522  20.801  15.146  1.00  0.00     0.153 C
BRANCH  21  23
HETATM   23  O3  UNL     1      51.266  18.453  14.632  1.00  0.00    -0.393 OA
ATOM     24  H3  UNL     1      52.189  18.564  14.828  1.00  0.00     0.210 HD
ENDBRANCH  21  23
BRANCH  22  25
HETATM   25  O4  UNL     1      52.710  20.417  14.478  1.00  0.00    -0.393 OA
ATOM     26  H4  UNL     1      52.719  19.491  14.267  1.00  0.00     0.210 HD
ENDBRANCH  22  25
ENDBRANCH   4  18
TORSDOF 9
ENDMDL