MODEL 4
REMARK VINA RESULT: -8.929001175      1.257      2.556
REMARK  10 active torsions:
REMARK  status: ('A' for Active; 'I' for Inactive)
REMARK    1  A    between atoms: C2_2  and  C3_3
REMARK    2  A    between atoms: C2_2  and  C11_21
REMARK    3  A    between atoms: C3_3  and  C4_4
REMARK    4  A    between atoms: C4_4  and  O1_5
REMARK    5  A    between atoms: C4_4  and  C5_7
REMARK    6  A    between atoms: C5_7  and  C6_9
REMARK    7  A    between atoms: C7_11  and  C8_12
REMARK    8  A    between atoms: C8_12  and  O4_13
REMARK    9  A    between atoms: C9_15  and  O5_16
REMARK   10  A    between atoms: C10_18  and  O6_19
ROOT
HETATM    1  C5  UNL     1      47.917  28.026  13.995  1.00  0.00     0.186 C
HETATM    2  O2  UNL     1      47.065  27.656  14.766  1.00  0.00    -0.292 OA
ENDROOT
BRANCH   1   3
HETATM    3  C4  UNL     1      49.324  27.598  14.198  1.00  0.00     0.190 C
BRANCH   3   4
HETATM    4  C3  UNL     1      49.447  26.333  14.951  1.00  0.00     0.044 C
BRANCH   4   5
HETATM    5  C2  UNL     1      50.575  25.416  14.697  1.00  0.00    -0.012 C
HETATM    6  C1  UNL     1      51.886  25.792  15.317  1.00  0.00     0.010 C
BRANCH   5   7
HETATM    7  C11 UNL     1      50.314  23.953  14.578  1.00  0.00    -0.011 C
HETATM    8  C12 UNL     1      51.651  23.246  14.910  1.00  0.00     0.005 C
HETATM    9  C13 UNL     1      51.602  21.791  14.640  1.00  0.00     0.000 C
HETATM   10  C14 UNL     1      50.372  21.244  14.012  1.00  0.00     0.000 C
HETATM   11  C15 UNL     1      49.199  21.062  14.920  1.00  0.00     0.000 C
HETATM   12  C16 UNL     1      48.441  22.370  14.969  1.00  0.00     0.000 C
HETATM   13  C17 UNL     1      49.371  23.377  15.612  1.00  0.00     0.005 C
ENDBRANCH   5   7
ENDBRANCH   4   5
ENDBRANCH   3   4
BRANCH   3  14
HETATM   14  O1  UNL     1      49.993  28.663  14.778  1.00  0.00    -0.388 OA
ATOM     15  H1  UNL     1      50.872  28.452  15.069  1.00  0.00     0.210 HD
ENDBRANCH   3  14
ENDBRANCH   1   3
BRANCH   1  16
HETATM   16  C6  UNL     1      47.478  28.900  12.880  1.00  0.00     0.225 C
HETATM   17  O3  UNL     1      48.453  29.076  11.920  1.00  0.00    -0.365 OA
HETATM   18  C7  UNL     1      48.050  28.570  10.719  1.00  0.00     0.177 C
HETATM   19  C9  UNL     1      46.537  28.512  10.718  1.00  0.00     0.180 C
HETATM   20  C10 UNL     1      46.303  28.200  12.204  1.00  0.00     0.185 C
BRANCH  18  21
HETATM   21  C8  UNL     1      48.561  29.467   9.610  1.00  0.00     0.198 C
BRANCH  21  22
HETATM   22  O4  UNL     1      48.034  29.051   8.388  1.00  0.00    -0.398 OA
ATOM     23  H4  UNL     1      48.619  29.304   7.684  1.00  0.00     0.209 HD
ENDBRANCH  21  22
ENDBRANCH  18  21
BRANCH  19  24
HETATM   24  O5  UNL     1      45.949  29.709  10.378  1.00  0.00    -0.390 OA
ATOM     25  H5  UNL     1      45.002  29.659  10.325  1.00  0.00     0.210 HD
ENDBRANCH  19  24
BRANCH  20  26
HETATM   26  O6  UNL     1      46.407  26.805  12.289  1.00  0.00    -0.390 OA
ATOM     27  H6  UNL     1      45.572  26.379  12.139  1.00  0.00     0.210 HD
ENDBRANCH  20  26
ENDBRANCH   1  16
TORSDOF 10
ENDMDL