MODEL 2
REMARK VINA RESULT: -6.925265581      1.645      3.011
REMARK  9 active torsions:
REMARK  status: ('A' for Active; 'I' for Inactive)
REMARK    1  A    between atoms: O1_2  and  C2_3
REMARK    2  A    between atoms: C2_3  and  C3_5
REMARK    3  A    between atoms: C3_5  and  N1_6
REMARK    4  A    between atoms: C3_5  and  C6_11
REMARK       I    between atoms: N1_6  and  C4_8
REMARK    5  A    between atoms: C6_11  and  N2_12
REMARK    6  A    between atoms: C6_11  and  C15_22
REMARK    7  A    between atoms: N2_12  and  C7_14
REMARK    8  A    between atoms: C15_22  and  O4_23
REMARK    9  A    between atoms: N3_25  and  O5_27
ROOT
HETATM    1  C6  UNL     1      49.757  26.877  15.500  1.00  0.00     0.186 C
ENDROOT
BRANCH   1   2
HETATM    2  C3  UNL     1      48.614  27.580  14.882  1.00  0.00     0.214 C
BRANCH   2   3
HETATM    3  C2  UNL     1      47.305  27.198  15.570  1.00  0.00     0.283 C
HETATM    4  O2  UNL     1      46.372  28.034  15.598  1.00  0.00    -0.263 OA
BRANCH   3   5
HETATM    5  O1  UNL     1      47.091  25.993  16.162  1.00  0.00    -0.325 OA
HETATM    6  C1  UNL     1      47.388  25.697  17.515  1.00  0.00     0.213 C
ENDBRANCH   3   5
ENDBRANCH   2   3
BRANCH   2   7
HETATM    7  N1  UNL     1      48.330  27.139  13.496  1.00  0.00    -0.345 N
HETATM    8  C4  UNL     1      48.200  28.062  12.446  1.00  0.00     0.214 C
HETATM    9  C5  UNL     1      47.916  27.620  11.066  1.00  0.00     0.117 C
HETATM   10  O3  UNL     1      48.327  29.282  12.679  1.00  0.00    -0.274 OA
ATOM     11  H1  UNL     1      48.227  26.143  13.300  1.00  0.00     0.163 HD
ENDBRANCH   2   7
ENDBRANCH   1   2
BRANCH   1  12
HETATM   12  N2  UNL     1      50.201  25.623  15.175  1.00  0.00    -0.404 N
ATOM     13  H2  UNL     1      50.179  25.465  14.167  1.00  0.00     0.154 HD
BRANCH  12  14
HETATM   14  C7  UNL     1      50.663  24.538  15.842  1.00  0.00     0.081 C
HETATM   15  C8  UNL     1      49.722  23.429  16.214  1.00  0.00     0.025 C
HETATM   16  C9  UNL     1      48.695  23.109  15.155  1.00  0.00     0.002 C
HETATM   17  C10 UNL     1      49.313  21.993  14.298  1.00  0.00     0.000 C
HETATM   18  C11 UNL     1      50.533  22.622  13.658  1.00  0.00     0.000 C
HETATM   19  C12 UNL     1      51.736  22.662  14.526  1.00  0.00     0.006 C
HETATM   20  C13 UNL     1      51.963  23.946  15.273  1.00  0.00     0.004 C
HETATM   21  C14 UNL     1      52.704  24.903  14.405  1.00  0.00     0.012 C
ENDBRANCH  12  14
ENDBRANCH   1  12
BRANCH   1  22
HETATM   22  C15 UNL     1      50.931  27.883  15.390  1.00  0.00     0.161 C
HETATM   23  N3  UNL     1      51.902  27.860  16.197  1.00  0.00    -0.249 N
ATOM     24  H3  UNL     1      51.937  27.170  16.948  1.00  0.00     0.196 HD
BRANCH  22  25
HETATM   25  O4  UNL     1      50.868  28.805  14.364  1.00  0.00    -0.346 OA
ATOM     26  H4  UNL     1      51.522  29.494  14.366  1.00  0.00     0.219 HD
ENDBRANCH  22  25
BRANCH  23  27
HETATM   27  O5  UNL     1      52.908  28.779  16.043  1.00  0.00    -0.288 OA
ATOM     28  H5  UNL     1      53.794  28.466  15.899  1.00  0.00     0.244 HD
ENDBRANCH  23  27
ENDBRANCH   1  22
TORSDOF 9
ENDMDL