MODEL 2
REMARK VINA RESULT: -7.116149703      1.935      2.318
REMARK  10 active torsions:
REMARK  status: ('A' for Active; 'I' for Inactive)
REMARK    1  A    between atoms: C2_2  and  N1_3
REMARK    2  A    between atoms: C3_4  and  N2_5
REMARK    3  A    between atoms: N2_5  and  C4_7
REMARK    4  A    between atoms: N4_15  and  C8_16
REMARK    5  A    between atoms: C10_21  and  C11_22
REMARK    6  A    between atoms: C11_22  and  N6_23
REMARK    7  A    between atoms: C11_22  and  C12_27
REMARK    8  A    between atoms: C12_27  and  C13_28
REMARK    9  A    between atoms: C13_28  and  C14_29
REMARK   10  A    between atoms: C14_29  and  N7_30
ROOT
HETATM    1  N1  UNL     1      51.040  24.099  14.842  1.00  0.00    -0.320 N
HETATM    2  C3  UNL     1      50.953  22.742  14.794  1.00  0.00     0.126 A
HETATM    3  C9  UNL     1      49.651  22.388  15.159  1.00  0.00     0.138 A
HETATM    4  N5  UNL     1      49.038  23.525  15.403  1.00  0.00    -0.350 N
ATOM      5  H5  UNL     1      48.063  23.599  15.695  1.00  0.00     0.166 HD
HETATM    6  C10 UNL     1      49.865  24.594  15.217  1.00  0.00     0.116 A
ENDROOT
BRANCH   2   7
HETATM    7  N2  UNL     1      52.010  21.875  14.440  1.00  0.00    -0.326 N
ATOM      8  H2  UNL     1      52.913  21.992  14.900  1.00  0.00     0.169 HD
BRANCH   7   9
HETATM    9  C4  UNL     1      51.870  20.845  13.469  1.00  0.00     0.134 A
HETATM   10  C5  UNL     1      52.177  21.096  12.212  1.00  0.00     0.074 A
HETATM   11 CL1  UNL     1      52.753  22.739  11.827  1.00  0.00    -0.083 Cl
HETATM   12  C6  UNL     1      52.092  20.155  11.089  1.00  0.00     0.179 A
HETATM   13  N3  UNL     1      51.620  18.851  11.477  1.00  0.00    -0.337 N
HETATM   14  C7  UNL     1      51.293  18.593  12.831  1.00  0.00     0.326 A
ATOM     15  H3  UNL     1      51.521  18.115  10.778  1.00  0.00     0.164 HD
HETATM   16  O1  UNL     1      50.882  17.433  13.122  1.00  0.00    -0.247 OA
HETATM   17  N4  UNL     1      51.405  19.559  13.845  1.00  0.00    -0.257 N
BRANCH  17  18
HETATM   18  C8  UNL     1      51.052  19.221  15.209  1.00  0.00     0.359 C
HETATM   19  F1  UNL     1      51.666  18.038  15.513  1.00  0.00    -0.233 F
ENDBRANCH  17  18
ENDBRANCH   7   9
ENDBRANCH   2   7
BRANCH   1  20
HETATM   20  C2  UNL     1      52.225  24.844  14.517  1.00  0.00     0.127 C
HETATM   21  C1  UNL     1      53.141  25.090  15.691  1.00  0.00     0.027 C
ENDBRANCH   1  20
BRANCH   6  22
HETATM   22  C11 UNL     1      49.414  25.957  15.432  1.00  0.00     0.250 C
BRANCH  22  23
HETATM   23  N6  UNL     1      48.311  26.134  16.336  1.00  0.00    -0.068 N
ATOM     24  H63 UNL     1      48.412  27.019  16.831  1.00  0.00     0.275 HD
ATOM     25  H62 UNL     1      47.459  26.313  15.805  1.00  0.00     0.275 HD
ATOM     26  H61 UNL     1      48.146  25.383  17.007  1.00  0.00     0.275 HD
ENDBRANCH  22  23
BRANCH  22  27
HETATM   27  C12 UNL     1      49.120  26.745  14.174  1.00  0.00     0.042 C
BRANCH  27  28
HETATM   28  C13 UNL     1      48.654  28.140  14.576  1.00  0.00     0.030 C
BRANCH  28  29
HETATM   29  C14 UNL     1      49.500  29.137  13.778  1.00  0.00     0.230 C
BRANCH  29  30
HETATM   30  N7  UNL     1      50.847  29.141  14.288  1.00  0.00    -0.079 N
ATOM     31  H73 UNL     1      51.540  29.038  13.546  1.00  0.00     0.274 HD
ATOM     32  H72 UNL     1      51.129  30.062  14.624  1.00  0.00     0.274 HD
ATOM     33  H71 UNL     1      50.942  28.423  15.006  1.00  0.00     0.274 HD
ENDBRANCH  29  30
ENDBRANCH  28  29
ENDBRANCH  27  28
ENDBRANCH  22  27
ENDBRANCH   6  22
TORSDOF 10
ENDMDL