MODEL 2
REMARK VINA RESULT: -8.427497849      1.138      1.187
REMARK  9 active torsions:
REMARK  status: ('A' for Active; 'I' for Inactive)
REMARK    1  A    between atoms: C2_7  and  C3_8
REMARK    2  A    between atoms: C3_8  and  C4_9
REMARK    3  A    between atoms: C4_9  and  C5_10
REMARK    4  A    between atoms: C5_10  and  C6_11
REMARK    5  A    between atoms: C6_11  and  N3_12
REMARK    6  A    between atoms: N6_23  and  C10_24
REMARK    7  A    between atoms: C11_26  and  C12_27
REMARK    8  A    between atoms: C12_27  and  O2_28
REMARK    9  A    between atoms: C13_30  and  O3_31
ROOT
HETATM    1  N1  UNL     1      53.622  25.079  16.016  1.00  0.00    -0.383 N
ATOM      2  H11 UNL     1      53.955  26.023  16.212  1.00  0.00     0.157 HD
ATOM      3  H12 UNL     1      54.258  24.313  16.236  1.00  0.00     0.157 HD
HETATM    4  C1  UNL     1      52.457  24.841  15.512  1.00  0.00     0.131 A
HETATM    5  N2  UNL     1      52.016  23.591  15.252  1.00  0.00    -0.330 N
ATOM      6  H2  UNL     1      52.633  22.808  15.464  1.00  0.00     0.168 HD
HETATM    7  C2  UNL     1      50.815  23.329  14.732  1.00  0.00     0.084 A
HETATM    8  N4  UNL     1      50.000  24.373  14.453  1.00  0.00    -0.330 N
ATOM      9  H4  UNL     1      49.081  24.180  14.055  1.00  0.00     0.168 HD
HETATM   10  C7  UNL     1      50.347  25.653  14.675  1.00  0.00     0.143 A
HETATM   11  C8  UNL     1      51.595  25.879  15.213  1.00  0.00     0.122 A
HETATM   12  N5  UNL     1      51.720  27.207  15.345  1.00  0.00    -0.346 N
ATOM     13  H5  UNL     1      52.539  27.688  15.716  1.00  0.00     0.167 HD
HETATM   14  C9  UNL     1      50.586  27.812  14.906  1.00  0.00     0.188 A
HETATM   15  N6  UNL     1      49.729  26.850  14.487  1.00  0.00    -0.294 N
ENDROOT
BRANCH  15  16
HETATM   16  C10 UNL     1      48.408  26.992  13.941  1.00  0.00     0.306 C
HETATM   17  O1  UNL     1      48.499  27.153  12.583  1.00  0.00    -0.350 OA
HETATM   18  C11 UNL     1      48.244  28.466  12.268  1.00  0.00     0.182 C
HETATM   19  C13 UNL     1      47.140  28.830  13.233  1.00  0.00     0.226 C
HETATM   20  C14 UNL     1      47.649  28.165  14.502  1.00  0.00     0.314 C
HETATM   21  F1  UNL     1      48.561  29.019  15.075  1.00  0.00    -0.198 F
HETATM   22  F2  UNL     1      46.639  27.798  15.346  1.00  0.00    -0.198 F
BRANCH  18  23
HETATM   23  C12 UNL     1      47.818  28.570  10.828  1.00  0.00     0.199 C
BRANCH  23  24
HETATM   24  O2  UNL     1      47.533  29.914  10.577  1.00  0.00    -0.398 OA
ATOM     25  H2  UNL     1      46.880  29.939   9.887  1.00  0.00     0.209 HD
ENDBRANCH  23  24
ENDBRANCH  18  23
BRANCH  19  26
HETATM   26  O3  UNL     1      45.923  28.268  12.833  1.00  0.00    -0.387 OA
ATOM     27  H3  UNL     1      45.767  28.423  11.909  1.00  0.00     0.210 HD
ENDBRANCH  19  26
ENDBRANCH  15  16
BRANCH   7  28
HETATM   28  C3  UNL     1      50.397  21.924  14.472  1.00  0.00     0.076 C
BRANCH  28  29
HETATM   29  C4  UNL     1      51.532  21.145  13.846  1.00  0.00     0.009 C
BRANCH  29  30
HETATM   30  C5  UNL     1      51.071  20.533  12.550  1.00  0.00     0.027 C
BRANCH  30  31
HETATM   31  C6  UNL     1      52.245  20.254  11.640  1.00  0.00     0.229 C
BRANCH  31  32
HETATM   32  N3  UNL     1      51.735  20.214  10.267  1.00  0.00    -0.079 N
ATOM     33  H33 UNL     1      50.717  20.246  10.219  1.00  0.00     0.274 HD
ATOM     34  H32 UNL     1      51.920  21.072   9.748  1.00  0.00     0.274 HD
ATOM     35  H31 UNL     1      52.129  19.386   9.819  1.00  0.00     0.274 HD
ENDBRANCH  31  32
ENDBRANCH  30  31
ENDBRANCH  29  30
ENDBRANCH  28  29
ENDBRANCH   7  28
TORSDOF 9
ENDMDL