MODEL 2
REMARK VINA RESULT: -6.570220099      1.178      1.222
REMARK  10 active torsions:
REMARK  status: ('A' for Active; 'I' for Inactive)
REMARK    1  A    between atoms: C2_2  and  S1_3
REMARK    2  A    between atoms: C2_2  and  C10_26
REMARK    3  A    between atoms: S1_3  and  S2_4
REMARK    4  A    between atoms: S2_4  and  C3_5
REMARK    5  A    between atoms: C3_5  and  C4_6
REMARK    6  A    between atoms: C4_6  and  O1_7
REMARK    7  A    between atoms: C4_6  and  C5_9
REMARK    8  A    between atoms: C8_16  and  N2_17
REMARK    9  A    between atoms: C8_16  and  C9_21
REMARK   10  A    between atoms: C9_21  and  N3_22
ROOT
HETATM    1  C5  UNL     1      50.495  21.063  13.260  1.00  0.00     0.155 C
HETATM    2  N1  UNL     1      50.194  19.631  13.456  1.00  0.00    -0.349 N
ATOM      3  H1  UNL     1      49.367  19.099  13.185  1.00  0.00     0.163 HD
HETATM    4  C6  UNL     1      51.393  19.189  14.136  1.00  0.00     0.255 C
HETATM    5  O2  UNL     1      51.395  18.342  15.044  1.00  0.00    -0.270 OA
HETATM    6  C7  UNL     1      52.530  19.904  13.562  1.00  0.00     0.301 C
HETATM    7  F1  UNL     1      53.401  20.468  14.426  1.00  0.00    -0.236 F
HETATM    8  C8  UNL     1      51.829  20.905  12.636  1.00  0.00     0.208 C
ENDROOT
BRANCH   1   9
HETATM    9  C4  UNL     1      50.306  21.824  14.441  1.00  0.00     0.153 C
BRANCH   9  10
HETATM   10  C3  UNL     1      49.048  22.571  14.649  1.00  0.00     0.120 C
BRANCH  10  11
HETATM   11  S2  UNL     1      49.082  24.051  15.603  1.00  0.00    -0.095 SA
BRANCH  11  12
HETATM   12  S1  UNL     1      50.329  25.527  14.867  1.00  0.00    -0.090 SA
BRANCH  12  13
HETATM   13  C2  UNL     1      49.800  27.138  15.549  1.00  0.00     0.087 C
HETATM   14  C1  UNL     1      50.931  28.108  15.297  1.00  0.00     0.025 C
BRANCH  13  15
HETATM   15  C10 UNL     1      48.630  27.598  14.683  1.00  0.00     0.192 C
HETATM   16 CL1  UNL     1      49.047  29.091  13.825  1.00  0.00    -0.107 Cl
HETATM   17 CL2  UNL     1      47.155  27.810  15.634  1.00  0.00    -0.107 Cl
ENDBRANCH  13  15
ENDBRANCH  12  13
ENDBRANCH  11  12
ENDBRANCH  10  11
ENDBRANCH   9  10
BRANCH   9  18
HETATM   18  O1  UNL     1      50.789  21.381  15.670  1.00  0.00    -0.393 OA
ATOM     19  H1  UNL     1      51.651  21.001  15.552  1.00  0.00     0.210 HD
ENDBRANCH   9  18
ENDBRANCH   1   9
BRANCH   8  20
HETATM   20  N2  UNL     1      51.568  20.099  11.416  1.00  0.00    -0.063 N
ATOM     21  H23 UNL     1      51.708  19.096  11.540  1.00  0.00     0.275 HD
ATOM     22  H22 UNL     1      50.583  20.041  11.155  1.00  0.00     0.275 HD
ATOM     23  H21 UNL     1      52.166  20.520  10.705  1.00  0.00     0.275 HD
ENDBRANCH   8  20
BRANCH   8  24
HETATM   24  C9  UNL     1      52.656  22.016  12.225  1.00  0.00     0.274 C
BRANCH  24  25
HETATM   25  N3  UNL     1      53.411  21.993  11.033  1.00  0.00    -0.077 N
ATOM     26  H33 UNL     1      54.303  22.448  11.225  1.00  0.00     0.274 HD
ATOM     27  H32 UNL     1      53.692  21.027  10.865  1.00  0.00     0.274 HD
ATOM     28  H31 UNL     1      53.053  22.369  10.155  1.00  0.00     0.274 HD
ENDBRANCH  24  25
ENDBRANCH   8  24
TORSDOF 10
ENDMDL