MODEL 4
REMARK VINA RESULT: -7.398933077      4.405      7.391
REMARK  9 active torsions:
REMARK  status: ('A' for Active; 'I' for Inactive)
REMARK    1  A    between atoms: C2_2  and  O1_3
REMARK    2  A    between atoms: C2_2  and  C13_25
REMARK    3  A    between atoms: O1_3  and  C3_4
REMARK    4  A    between atoms: C4_6  and  C5_7
REMARK    5  A    between atoms: C5_7  and  C6_9
REMARK    6  A    between atoms: C6_9  and  C7_10
REMARK    7  A    between atoms: C8_11  and  O4_12
REMARK    8  A    between atoms: C8_11  and  C9_14
REMARK    9  A    between atoms: C10_17  and  N1_18
ROOT
HETATM    1  C3  UNL     1      52.224  21.470  14.149  1.00  0.00     0.276 C
HETATM    2  O2  UNL     1      51.860  22.718  13.640  1.00  0.00    -0.345 OA
HETATM    3  C4  UNL     1      51.098  23.473  14.462  1.00  0.00     0.224 C
HETATM    4  C10 UNL     1      50.512  22.741  15.643  1.00  0.00     0.221 C
HETATM    5  C11 UNL     1      49.977  21.420  15.135  1.00  0.00     0.056 C
HETATM    6  C12 UNL     1      50.953  20.662  14.307  1.00  0.00     0.116 C
HETATM    7  S1  UNL     1      51.236  19.067  15.091  1.00  0.00    -0.087 SA
ENDROOT
BRANCH   3   8
HETATM    8  C5  UNL     1      51.834  24.700  14.878  1.00  0.00     0.161 C
HETATM    9  O3  UNL     1      52.819  24.561  15.576  1.00  0.00    -0.295 OA
BRANCH   8  10
HETATM   10  C6  UNL     1      51.418  26.061  14.481  1.00  0.00     0.111 C
BRANCH  10  11
HETATM   11  C7  UNL     1      50.180  26.408  15.235  1.00  0.00     0.018 C
HETATM   12  C8  UNL     1      49.468  27.491  15.074  1.00  0.00     0.104 C
BRANCH  12  13
HETATM   13  O4  UNL     1      48.327  27.670  15.862  1.00  0.00    -0.360 OA
ATOM     14  H4  UNL     1      47.805  26.910  16.090  1.00  0.00     0.217 HD
ENDBRANCH  12  13
BRANCH  12  15
HETATM   15  C9  UNL     1      49.762  28.563  14.117  1.00  0.00     0.409 C
HETATM   16  F1  UNL     1      48.640  29.395  14.059  1.00  0.00    -0.207 F
HETATM   17  F2  UNL     1      50.809  29.366  14.571  1.00  0.00    -0.207 F
ENDBRANCH  12  15
ENDBRANCH  10  11
ENDBRANCH   8  10
ENDBRANCH   3   8
BRANCH   4  18
HETATM   18  N1  UNL     1      49.361  23.507  16.103  1.00  0.00    -0.072 N
ATOM     19  H13 UNL     1      49.589  24.477  16.321  1.00  0.00     0.274 HD
ATOM     20  H12 UNL     1      48.685  23.694  15.362  1.00  0.00     0.274 HD
ATOM     21  H11 UNL     1      48.957  23.006  16.894  1.00  0.00     0.274 HD
ENDBRANCH   4  18
BRANCH   1  22
HETATM   22  O1  UNL     1      53.071  20.924  13.183  1.00  0.00    -0.344 OA
BRANCH  22  23
HETATM   23  C2  UNL     1      52.676  21.196  11.889  1.00  0.00     0.221 C
HETATM   24  C1  UNL     1      53.931  21.372  11.059  1.00  0.00     0.051 C
BRANCH  23  25
HETATM   25  C13 UNL     1      51.933  20.058  11.277  1.00  0.00     0.203 C
HETATM   26  O5  UNL     1      51.928  18.902  11.779  1.00  0.00    -0.646 OA
HETATM   27  O6  UNL     1      51.231  20.336  10.102  1.00  0.00    -0.646 OA
ENDBRANCH  23  25
ENDBRANCH  22  23
ENDBRANCH   1  22
TORSDOF 9
ENDMDL