MODEL 1
REMARK VINA RESULT: -9.358152955      0.000      0.000
REMARK  9 active torsions:
REMARK  status: ('A' for Active; 'I' for Inactive)
REMARK    1  A    between atoms: C2_2  and  N1_3
REMARK    2  A    between atoms: C4_7  and  N3_8
REMARK    3  A    between atoms: C5_13  and  S1_14
REMARK    4  A    between atoms: S1_14  and  C6_15
REMARK    5  A    between atoms: C6_15  and  C7_16
REMARK       I    between atoms: C7_16  and  N5_18
REMARK    6  A    between atoms: N5_18  and  C8_20
REMARK    7  A    between atoms: C8_20  and  C9_21
REMARK    8  A    between atoms: C9_21  and  O2_22
REMARK    9  A    between atoms: C9_21  and  C10_24
ROOT
HETATM    1  N1  UNL     1      51.192  21.906  14.701  1.00  0.00    -0.279 N
HETATM    2  N2  UNL     1      52.166  22.785  14.799  1.00  0.00    -0.292 N
ATOM      3  H2  UNL     1      53.157  22.546  14.765  1.00  0.00     0.187 HD
HETATM    4  C3  UNL     1      51.702  24.028  14.949  1.00  0.00     0.122 A
HETATM    5  C4  UNL     1      52.246  25.286  15.082  1.00  0.00     0.132 A
HETATM    6  N4  UNL     1      51.453  26.368  15.206  1.00  0.00    -0.321 N
ATOM      7  H4  UNL     1      51.882  27.289  15.304  1.00  0.00     0.169 HD
HETATM    8  C5  UNL     1      50.121  26.272  15.204  1.00  0.00     0.146 A
HETATM    9  N6  UNL     1      49.559  25.061  15.076  1.00  0.00    -0.332 N
ATOM     10  H6  UNL     1      48.542  24.976  15.075  1.00  0.00     0.168 HD
HETATM   11  C11 UNL     1      50.328  23.941  14.949  1.00  0.00     0.106 A
HETATM   12  C12 UNL     1      50.040  22.609  14.793  1.00  0.00     0.149 A
HETATM   13 CL1  UNL     1      48.442  21.904  14.724  1.00  0.00    -0.060 Cl
ENDROOT
BRANCH   8  14
HETATM   14  S1  UNL     1      49.075  27.731  15.320  1.00  0.00    -0.085 SA
BRANCH  14  15
HETATM   15  C6  UNL     1      49.346  28.836  13.928  1.00  0.00     0.185 C
BRANCH  15  16
HETATM   16  C7  UNL     1      48.321  28.561  12.893  1.00  0.00     0.227 C
HETATM   17  O1  UNL     1      47.412  27.732  13.105  1.00  0.00    -0.273 OA
HETATM   18  N5  UNL     1      48.386  29.245  11.668  1.00  0.00    -0.358 N
ATOM     19  H5  UNL     1      49.148  29.909  11.532  1.00  0.00     0.162 HD
BRANCH  18  20
HETATM   20  C8  UNL     1      47.449  29.069  10.592  1.00  0.00     0.159 C
BRANCH  20  21
HETATM   21  C9  UNL     1      47.782  29.880   9.353  1.00  0.00     0.200 C
BRANCH  21  22
HETATM   22  O2  UNL     1      48.343  29.023   8.432  1.00  0.00    -0.388 OA
ATOM     23  H2  UNL     1      49.065  28.577   8.857  1.00  0.00     0.210 HD
ENDBRANCH  21  22
BRANCH  21  24
HETATM   24  C10 UNL     1      46.496  30.457   8.817  1.00  0.00     0.383 C
HETATM   25  F1  UNL     1      45.408  29.991   9.537  1.00  0.00    -0.212 F
HETATM   26  F2  UNL     1      46.466  31.826   8.843  1.00  0.00    -0.212 F
ENDBRANCH  21  24
ENDBRANCH  20  21
ENDBRANCH  18  20
ENDBRANCH  15  16
ENDBRANCH  14  15
ENDBRANCH   8  14
BRANCH   5  27
HETATM   27  N3  UNL     1      53.524  25.464  15.097  1.00  0.00    -0.383 N
ATOM     28  H32 UNL     1      54.049  25.253  14.248  1.00  0.00     0.157 HD
ATOM     29  H31 UNL     1      54.001  25.809  15.930  1.00  0.00     0.157 HD
ENDBRANCH   5  27
BRANCH   1  30
HETATM   30  C2  UNL     1      51.308  20.458  14.511  1.00  0.00     0.146 C
HETATM   31  C1  UNL     1      51.067  20.100  13.066  1.00  0.00     0.028 C
ENDBRANCH   1  30
TORSDOF 9
ENDMDL