MODEL 3
REMARK VINA RESULT: -6.179497466      4.960      7.592
REMARK  12 active torsions:
REMARK  status: ('A' for Active; 'I' for Inactive)
REMARK    1  A    between atoms: C4_8  and  O2_9
REMARK    2  A    between atoms: C4_8  and  C5_11
REMARK    3  A    between atoms: C5_11  and  N1_12
REMARK    4  A    between atoms: C5_11  and  C6_16
REMARK    5  A    between atoms: C6_16  and  O3_17
REMARK    6  A    between atoms: O3_17  and  C7_18
REMARK    7  A    between atoms: C7_18  and  C8_20
REMARK    8  A    between atoms: C8_20  and  N2_21
REMARK    9  A    between atoms: C8_20  and  C9_25
REMARK   10  A    between atoms: C9_25  and  C10_26
REMARK   11  A    between atoms: C10_26  and  C11_27
REMARK   12  A    between atoms: C11_27  and  N3_28
ROOT
HETATM    1  C6  UNL     1      51.107  24.195  13.815  1.00  0.00     0.217 C
ENDROOT
BRANCH   1   2
HETATM    2  C5  UNL     1      51.137  25.597  14.429  1.00  0.00     0.271 C
BRANCH   2   3
HETATM    3  C4  UNL     1      49.801  25.837  15.053  1.00  0.00     0.222 C
HETATM    4  C2  UNL     1      49.594  27.200  15.672  1.00  0.00     0.151 C
HETATM    5  C1  UNL     1      48.596  27.197  16.805  1.00  0.00     0.044 C
HETATM    6 CL1  UNL     1      51.064  28.100  16.010  1.00  0.00    -0.108 Cl
HETATM    7  C3  UNL     1      48.896  27.539  14.377  1.00  0.00     0.245 C
HETATM    8 CL2  UNL     1      47.211  28.122  14.598  1.00  0.00    -0.068 Cl
HETATM    9 CL3  UNL     1      49.842  28.552  13.287  1.00  0.00    -0.068 Cl
HETATM   10  O1  UNL     1      48.867  26.182  14.064  1.00  0.00    -0.308 OA
BRANCH   3  11
HETATM   11  O2  UNL     1      49.407  24.790  15.880  1.00  0.00    -0.362 OA
ATOM     12  H2  UNL     1      49.717  24.878  16.773  1.00  0.00     0.213 HD
ENDBRANCH   3  11
ENDBRANCH   2   3
BRANCH   2  13
HETATM   13  N1  UNL     1      52.241  25.753  15.326  1.00  0.00    -0.068 N
ATOM     14  H13 UNL     1      52.042  26.479  16.014  1.00  0.00     0.275 HD
ATOM     15  H12 UNL     1      52.315  24.944  15.945  1.00  0.00     0.275 HD
ATOM     16  H11 UNL     1      53.133  25.932  14.865  1.00  0.00     0.275 HD
ENDBRANCH   2  13
ENDBRANCH   1   2
BRANCH   1  17
HETATM   17  O3  UNL     1      51.649  23.301  14.796  1.00  0.00    -0.318 OA
BRANCH  17  18
HETATM   18  C7  UNL     1      51.141  22.026  14.973  1.00  0.00     0.289 C
HETATM   19  O4  UNL     1      50.169  21.876  15.729  1.00  0.00    -0.263 OA
BRANCH  18  20
HETATM   20  C8  UNL     1      51.727  20.852  14.284  1.00  0.00     0.282 C
BRANCH  20  21
HETATM   21  N2  UNL     1      51.737  19.737  15.176  1.00  0.00    -0.066 N
ATOM     22  H23 UNL     1      51.767  20.025  16.155  1.00  0.00     0.275 HD
ATOM     23  H22 UNL     1      50.842  19.249  15.197  1.00  0.00     0.275 HD
ATOM     24  H21 UNL     1      52.509  19.116  14.933  1.00  0.00     0.275 HD
ENDBRANCH  20  21
BRANCH  20  25
HETATM   25  C9  UNL     1      50.871  20.588  13.053  1.00  0.00     0.045 C
BRANCH  25  26
HETATM   26  C10 UNL     1      51.702  20.449  11.814  1.00  0.00     0.030 C
BRANCH  26  27
HETATM   27  C11 UNL     1      53.082  21.011  12.034  1.00  0.00     0.230 C
BRANCH  27  28
HETATM   28  N3  UNL     1      53.387  21.891  10.915  1.00  0.00    -0.079 N
ATOM     29  H33 UNL     1      53.935  21.432  10.188  1.00  0.00     0.274 HD
ATOM     30  H32 UNL     1      52.567  22.111  10.349  1.00  0.00     0.274 HD
ATOM     31  H31 UNL     1      53.844  22.723  11.288  1.00  0.00     0.274 HD
ENDBRANCH  27  28
ENDBRANCH  26  27
ENDBRANCH  25  26
ENDBRANCH  20  25
ENDBRANCH  18  20
ENDBRANCH  17  18
ENDBRANCH   1  17
TORSDOF 12
ENDMDL