MODEL 3
REMARK VINA RESULT: -8.148103247      1.418      1.830
REMARK  11 active torsions:
REMARK  status: ('A' for Active; 'I' for Inactive)
REMARK    1  A    between atoms: C2_2  and  C3_3
REMARK    2  A    between atoms: C3_3  and  C4_4
REMARK    3  A    between atoms: C4_4  and  C5_5
REMARK    4  A    between atoms: C5_5  and  C6_6
REMARK    5  A    between atoms: C6_6  and  O1_7
REMARK    6  A    between atoms: O1_7  and  C7_8
REMARK    7  A    between atoms: C8_10  and  C9_11
REMARK    8  A    between atoms: C9_11  and  O3_12
REMARK    9  A    between atoms: C10_14  and  O4_15
REMARK   10  A    between atoms: C11_17  and  O5_18
REMARK   11  A    between atoms: C12_20  and  O6_21
ROOT
HETATM    1  C7  UNL     1      49.296  26.228  14.433  1.00  0.00     0.291 C
HETATM    2  O2  UNL     1      48.127  27.015  14.353  1.00  0.00    -0.348 OA
HETATM    3  C8  UNL     1      48.268  28.100  13.511  1.00  0.00     0.179 C
HETATM    4  C10 UNL     1      49.634  28.740  13.621  1.00  0.00     0.180 C
HETATM    5  C11 UNL     1      50.229  28.430  14.980  1.00  0.00     0.183 C
HETATM    6  C12 UNL     1      50.338  26.946  15.232  1.00  0.00     0.204 C
ENDROOT
BRANCH   1   7
HETATM    7  O1  UNL     1      48.926  25.021  14.937  1.00  0.00    -0.359 OA
BRANCH   7   8
HETATM    8  C6  UNL     1      49.857  24.227  15.532  1.00  0.00     0.171 C
BRANCH   8   9
HETATM    9  C5  UNL     1      50.729  23.520  14.553  1.00  0.00     0.029 C
BRANCH   9  10
HETATM   10  C4  UNL     1      50.386  22.119  14.230  1.00  0.00     0.046 C
BRANCH  10  11
HETATM   11  C3  UNL     1      51.422  21.243  13.617  1.00  0.00     0.126 C
HETATM   12  O7  UNL     1      52.411  21.887  12.905  1.00  0.00    -0.374 OA
HETATM   13  C13 UNL     1      52.794  21.019  11.878  1.00  0.00     0.175 C
HETATM   14  C14 UNL     1      51.465  20.388  11.428  1.00  0.00     0.108 C
HETATM   15  C15 UNL     1      50.895  20.087  12.821  1.00  0.00     0.276 C
HETATM   16  F1  UNL     1      51.519  18.874  13.178  1.00  0.00    -0.203 F
HETATM   17  F2  UNL     1      49.541  19.948  12.818  1.00  0.00    -0.203 F
BRANCH  11  18
HETATM   18  C2  UNL     1      52.151  20.562  14.820  1.00  0.00     0.040 C
HETATM   19  C1  UNL     1      51.188  20.186  15.898  1.00  0.00     0.008 C
ENDBRANCH  11  18
ENDBRANCH  10  11
ENDBRANCH   9  10
ENDBRANCH   8   9
ENDBRANCH   7   8
ENDBRANCH   1   7
BRANCH   6  20
HETATM   20  O6  UNL     1      51.607  26.562  14.891  1.00  0.00    -0.388 OA
ATOM     21  H6  UNL     1      51.689  26.378  13.963  1.00  0.00     0.210 HD
ENDBRANCH   6  20
BRANCH   3  22
HETATM   22  C9  UNL     1      48.055  27.664  12.093  1.00  0.00     0.198 C
BRANCH  22  23
HETATM   23  O3  UNL     1      46.690  27.648  11.768  1.00  0.00    -0.398 OA
ATOM     24  H3  UNL     1      46.155  27.522  12.543  1.00  0.00     0.209 HD
ENDBRANCH  22  23
ENDBRANCH   3  22
BRANCH   5  25
HETATM   25  O5  UNL     1      51.469  29.073  15.034  1.00  0.00    -0.390 OA
ATOM     26  H5  UNL     1      52.062  28.487  15.491  1.00  0.00     0.210 HD
ENDBRANCH   5  25
BRANCH   4  27
HETATM   27  O4  UNL     1      49.479  30.117  13.526  1.00  0.00    -0.390 OA
ATOM     28  H4  UNL     1      49.380  30.467  14.403  1.00  0.00     0.210 HD
ENDBRANCH   4  27
TORSDOF 11
ENDMDL