MODEL 2
REMARK VINA RESULT: -6.901447332      4.083      5.833
REMARK  10 active torsions:
REMARK  status: ('A' for Active; 'I' for Inactive)
REMARK    1  A    between atoms: C1_2  and  C2_4
REMARK    2  A    between atoms: C3_6  and  C4_7
REMARK    3  A    between atoms: C4_7  and  C5_8
REMARK    4  A    between atoms: C4_7  and  C7_13
REMARK    5  A    between atoms: C5_8  and  S1_9
REMARK    6  A    between atoms: S1_9  and  S2_10
REMARK    7  A    between atoms: S2_10  and  C6_11
REMARK    8  A    between atoms: C8_16  and  O4_17
REMARK    9  A    between atoms: C9_19  and  O5_20
REMARK   10  A    between atoms: C10_22  and  O6_23
ROOT
HETATM    1  C2  UNL     1      48.076  28.182  12.805  1.00  0.00     0.254 C
HETATM    2  O3  UNL     1      47.555  27.539  13.921  1.00  0.00    -0.364 OA
HETATM    3  C3  UNL     1      48.483  27.345  14.914  1.00  0.00     0.164 C
HETATM    4  C8  UNL     1      49.895  27.683  14.486  1.00  0.00     0.179 C
HETATM    5  C9  UNL     1      49.898  29.167  14.170  1.00  0.00     0.181 C
HETATM    6  C10 UNL     1      48.835  29.441  13.136  1.00  0.00     0.189 C
ENDROOT
BRANCH   3   7
HETATM    7  C4  UNL     1      48.482  25.950  15.497  1.00  0.00     0.092 C
BRANCH   7   8
HETATM    8  C5  UNL     1      49.795  25.261  15.171  1.00  0.00     0.099 C
BRANCH   8   9
HETATM    9  S1  UNL     1      49.606  23.461  15.261  1.00  0.00    -0.096 SA
BRANCH   9  10
HETATM   10  S2  UNL     1      51.404  22.465  14.730  1.00  0.00    -0.083 SA
BRANCH  10  11
HETATM   11  C6  UNL     1      51.197  20.674  14.691  1.00  0.00     0.200 C
HETATM   12 CL1  UNL     1      50.408  20.124  13.205  1.00  0.00    -0.119 Cl
ENDBRANCH  10  11
ENDBRANCH   9  10
ENDBRANCH   8   9
ENDBRANCH   7   8
BRANCH   7  13
HETATM   13  C7  UNL     1      48.429  26.069  17.002  1.00  0.00     0.360 C
HETATM   14  F1  UNL     1      48.438  27.378  17.442  1.00  0.00    -0.214 F
HETATM   15  F2  UNL     1      47.246  25.469  17.404  1.00  0.00    -0.214 F
ENDBRANCH   7  13
ENDBRANCH   3   7
BRANCH   4  16
HETATM   16  O4  UNL     1      50.721  27.504  15.598  1.00  0.00    -0.390 OA
ATOM     17  H4  UNL     1      51.041  28.361  15.854  1.00  0.00     0.210 HD
ENDBRANCH   4  16
BRANCH   1  18
HETATM   18  C1  UNL     1      46.935  28.526  11.902  1.00  0.00     0.205 C
HETATM   19  O1  UNL     1      46.972  29.415  11.032  1.00  0.00    -0.646 OA
HETATM   20  O2  UNL     1      45.743  27.793  12.051  1.00  0.00    -0.646 OA
ENDBRANCH   1  18
BRANCH   5  21
HETATM   21  O5  UNL     1      51.150  29.619  13.796  1.00  0.00    -0.390 OA
ATOM     22  H5  UNL     1      51.113  30.464  13.364  1.00  0.00     0.210 HD
ENDBRANCH   5  21
BRANCH   6  23
HETATM   23  O6  UNL     1      49.429  29.881  11.947  1.00  0.00    -0.390 OA
ATOM     24  H6  UNL     1      49.467  30.830  11.993  1.00  0.00     0.210 HD
ENDBRANCH   6  23
TORSDOF 10
ENDMDL