MODEL 5
REMARK VINA RESULT: -7.759596295      3.489      6.849
REMARK  8 active torsions:
REMARK  status: ('A' for Active; 'I' for Inactive)
REMARK    1  A    between atoms: C2_2  and  C4_4
REMARK    2  A    between atoms: C4_4  and  O1_5
REMARK    3  A    between atoms: O1_5  and  C5_6
REMARK    4  A    between atoms: C7_12  and  N3_13
REMARK    5  A    between atoms: N3_13  and  C8_15
REMARK    6  A    between atoms: C8_15  and  C9_16
REMARK    7  A    between atoms: C9_16  and  N4_17
REMARK    8  A    between atoms: N6_25  and  C12_26
ROOT
HETATM    1  C5  UNL     1      52.053  22.961  13.632  1.00  0.00     0.228 A
HETATM    2  N1  UNL     1      52.101  24.295  13.794  1.00  0.00    -0.305 N
ATOM      3  H1  UNL     1      52.835  24.911  13.442  1.00  0.00     0.171 HD
HETATM    4  C6  UNL     1      51.017  24.683  14.500  1.00  0.00     0.157 A
HETATM    5  N2  UNL     1      50.605  25.894  14.922  1.00  0.00    -0.174 N
ATOM      6  H2  UNL     1      51.150  26.732  14.715  1.00  0.00     0.186 HD
HETATM    7  C7  UNL     1      49.462  25.974  15.618  1.00  0.00     0.682 A
HETATM    8  N5  UNL     1      48.731  24.887  15.902  1.00  0.00    -0.154 N
ATOM      9  H5  UNL     1      47.866  24.979  16.434  1.00  0.00     0.187 HD
HETATM   10  C10 UNL     1      49.141  23.666  15.482  1.00  0.00     0.290 A
HETATM   11  O2  UNL     1      48.478  22.621  15.730  1.00  0.00    -0.265 OA
HETATM   12  C11 UNL     1      50.317  23.524  14.755  1.00  0.00     0.152 A
HETATM   13  N6  UNL     1      50.954  22.464  14.221  1.00  0.00    -0.291 N
ENDROOT
BRANCH   7  14
HETATM   14  N3  UNL     1      49.068  27.123  16.020  1.00  0.00    -0.221 N
ATOM     15  H3  UNL     1      49.664  27.683  16.630  1.00  0.00     0.178 HD
BRANCH  14  16
HETATM   16  C8  UNL     1      47.779  27.627  15.608  1.00  0.00     0.182 C
BRANCH  16  17
HETATM   17  C9  UNL     1      47.911  28.364  14.313  1.00  0.00     0.073 C
BRANCH  17  18
HETATM   18  N4  UNL     1      47.497  27.785  13.258  1.00  0.00    -0.410 N
ATOM     19  H42 UNL     1      47.012  26.891  13.321  1.00  0.00     0.155 HD
ATOM     20  H41 UNL     1      47.670  28.247  12.365  1.00  0.00     0.155 HD
ENDBRANCH  17  18
ENDBRANCH  16  17
ENDBRANCH  14  16
ENDBRANCH   7  14
BRANCH   1  21
HETATM   21  O1  UNL     1      52.996  22.216  12.959  1.00  0.00    -0.321 OA
BRANCH  21  22
HETATM   22  C4  UNL     1      52.997  21.915  11.592  1.00  0.00     0.182 C
BRANCH  22  23
HETATM   23  C2  UNL     1      53.462  20.521  11.266  1.00  0.00     0.002 C
HETATM   24  C1  UNL     1      54.789  20.546  10.563  1.00  0.00     0.011 C
HETATM   25  C3  UNL     1      52.449  19.936  10.281  1.00  0.00     0.011 C
ENDBRANCH  22  23
ENDBRANCH  21  22
ENDBRANCH   1  21
BRANCH  13  26
HETATM   26  C12 UNL     1      50.484  21.103  14.308  1.00  0.00     0.209 A
HETATM   27  C13 UNL     1      51.007  20.032  13.457  1.00  0.00     0.273 A
HETATM   28  F1  UNL     1      50.179  18.929  13.233  1.00  0.00    -0.241 F
HETATM   29  C14 UNL     1      51.512  20.140  14.884  1.00  0.00     0.299 A
HETATM   30  F2  UNL     1      51.126  19.216  15.805  1.00  0.00    -0.201 F
HETATM   31  F3  UNL     1      52.811  20.586  15.031  1.00  0.00    -0.201 F
ENDBRANCH  13  26
TORSDOF 8
ENDMDL