MODEL 4
REMARK VINA RESULT: -7.350806052      1.656      2.588
REMARK  9 active torsions:
REMARK  status: ('A' for Active; 'I' for Inactive)
REMARK    1  A    between atoms: C2_2  and  N1_3
REMARK    2  A    between atoms: N1_3  and  C3_6
REMARK    3  A    between atoms: N2_8  and  C5_9
REMARK    4  A    between atoms: C6_12  and  N4_13
REMARK    5  A    between atoms: C9_20  and  C10_21
REMARK    6  A    between atoms: N6_24  and  C11_25
REMARK    7  A    between atoms: C11_25  and  C12_26
REMARK    8  A    between atoms: C12_26  and  C13_27
REMARK    9  A    between atoms: C13_27  and  O1_28
ROOT
HETATM    1  C5  UNL     1      50.749  22.938  14.883  1.00  0.00     0.683 A
HETATM    2  N3  UNL     1      49.631  23.165  15.591  1.00  0.00    -0.175 N
ATOM      3  H3  UNL     1      49.102  22.358  15.925  1.00  0.00     0.186 HD
HETATM    4  C6  UNL     1      49.168  24.390  15.887  1.00  0.00     0.145 A
HETATM    5  C7  UNL     1      49.855  25.529  15.456  1.00  0.00     0.125 A
HETATM    6  C8  UNL     1      51.003  25.304  14.732  1.00  0.00     0.153 A
HETATM    7  N5  UNL     1      51.497  26.546  14.412  1.00  0.00    -0.325 N
ATOM      8  H5  UNL     1      52.346  26.729  13.877  1.00  0.00     0.169 HD
HETATM    9  C9  UNL     1      50.680  27.475  14.917  1.00  0.00     0.152 A
HETATM   10  N6  UNL     1      49.654  26.832  15.565  1.00  0.00    -0.326 N
HETATM   11  N7  UNL     1      51.402  24.069  14.477  1.00  0.00    -0.174 N
ATOM     12  H7  UNL     1      52.260  23.951  13.938  1.00  0.00     0.186 HD
ENDROOT
BRANCH   1  13
HETATM   13  N2  UNL     1      51.258  21.681  14.524  1.00  0.00    -0.213 N
HETATM   14  C4  UNL     1      51.993  21.226  13.360  1.00  0.00     0.177 C
HETATM   15  C3  UNL     1      51.038  20.039  13.007  1.00  0.00     0.239 C
HETATM   16  C15 UNL     1      50.950  19.344  14.339  1.00  0.00     0.220 C
HETATM   17  C14 UNL     1      51.073  20.471  15.353  1.00  0.00     0.180 C
HETATM   18  F3  UNL     1      51.960  18.407  14.461  1.00  0.00    -0.245 F
BRANCH  15  19
HETATM   19  N1  UNL     1      51.573  19.267  11.946  1.00  0.00    -0.067 N
ATOM     20  H12 UNL     1      50.885  18.593  11.611  1.00  0.00     0.277 HD
ATOM     21  H11 UNL     1      52.286  18.626  12.293  1.00  0.00     0.277 HD
BRANCH  19  22
HETATM   22  C2  UNL     1      52.089  20.061  10.847  1.00  0.00     0.228 C
HETATM   23  C1  UNL     1      51.199  19.928   9.620  1.00  0.00     0.034 C
ENDBRANCH  19  22
ENDBRANCH  15  19
ENDBRANCH   1  13
BRANCH   4  24
HETATM   24  N4  UNL     1      48.115  24.563  16.557  1.00  0.00    -0.383 N
ATOM     25  H42 UNL     1      48.181  24.474  17.571  1.00  0.00     0.157 HD
ATOM     26  H41 UNL     1      47.222  24.783  16.115  1.00  0.00     0.157 HD
ENDBRANCH   4  24
BRANCH  10  27
HETATM   27  C11 UNL     1      48.567  27.551  16.152  1.00  0.00     0.133 C
BRANCH  27  28
HETATM   28  C12 UNL     1      47.287  27.498  15.369  1.00  0.00     0.046 C
BRANCH  28  29
HETATM   29  C13 UNL     1      47.438  28.420  14.146  1.00  0.00     0.165 C
BRANCH  29  30
HETATM   30  O1  UNL     1      47.646  27.725  12.965  1.00  0.00    -0.401 OA
ATOM     31  H1  UNL     1      46.843  27.379  12.592  1.00  0.00     0.209 HD
ENDBRANCH  29  30
ENDBRANCH  28  29
ENDBRANCH  27  28
ENDBRANCH  10  27
BRANCH   9  32
HETATM   32  C10 UNL     1      50.777  28.976  14.818  1.00  0.00     0.420 C
HETATM   33  F1  UNL     1      50.529  29.343  13.478  1.00  0.00    -0.206 F
HETATM   34  F2  UNL     1      52.008  29.444  15.215  1.00  0.00    -0.206 F
ENDBRANCH   9  32
TORSDOF 9
ENDMDL