MODEL 5
REMARK VINA RESULT: -5.695484358      1.303      5.389
REMARK  4 active torsions:
REMARK  status: ('A' for Active; 'I' for Inactive)
REMARK       I    between atoms: C1_4  and  N3_6
REMARK    1  A    between atoms: N3_6  and  N4_8
REMARK    2  A    between atoms: N4_8  and  C2_9
REMARK    3  A    between atoms: C2_9  and  C3_10
REMARK    4  A    between atoms: C3_10  and  N5_11
ROOT
HETATM    1  C2  UNL     1      46.986  28.379  12.105  1.00  0.00     0.157 C
ENDROOT
BRANCH   1   2
HETATM    2  N4  UNL     1      47.026  29.115  13.344  1.00  0.00    -0.137 NA
BRANCH   2   3
HETATM    3  N3  UNL     1      48.402  29.277  13.658  1.00  0.00    -0.278 N
HETATM    4  C1  UNL     1      49.106  28.258  14.358  1.00  0.00     0.197 C
HETATM    5  N1  UNL     1      48.575  27.091  14.424  1.00  0.00    -0.373 N
HETATM    6  N2  UNL     1      50.343  28.499  14.963  1.00  0.00    -0.063 NA
ATOM      7  H12 UNL     1      49.080  26.360  14.925  1.00  0.00     0.158 HD
ATOM      8  H11 UNL     1      47.673  26.915  13.982  1.00  0.00     0.158 HD
ATOM      9  H3  UNL     1      48.888  30.130  13.380  1.00  0.00     0.185 HD
ENDBRANCH   2   3
ENDBRANCH   1   2
BRANCH   1  10
HETATM   10  C3  UNL     1      45.875  28.804  11.190  1.00  0.00     0.167 C
BRANCH  10  11
HETATM   11  N5  UNL     1      46.467  29.577  10.115  1.00  0.00    -0.286 N
HETATM   12  C4  UNL     1      47.744  29.563   9.733  1.00  0.00     0.201 A
HETATM   13  N6  UNL     1      47.898  30.416   8.702  1.00  0.00    -0.346 N
HETATM   14  C5  UNL     1      46.699  30.967   8.441  1.00  0.00     0.198 A
ATOM     15  H6  UNL     1      48.769  30.610   8.207  1.00  0.00     0.167 HD
HETATM   16  N7  UNL     1      45.846  30.428   9.329  1.00  0.00    -0.293 N
ATOM     17  H7  UNL     1      44.851  30.648   9.384  1.00  0.00     0.188 HD
ENDBRANCH  10  11
ENDBRANCH   1  10
TORSDOF 4
ENDMDL