MODEL 3
REMARK VINA RESULT: -5.544213351      0.977      1.442
REMARK  6 active torsions:
REMARK  status: ('A' for Active; 'I' for Inactive)
REMARK    1  A    between atoms: N1_2  and  C2_5
REMARK    2  A    between atoms: C2_5  and  C3_6
REMARK    3  A    between atoms: C3_6  and  N2_7
REMARK    4  A    between atoms: N2_7  and  O1_8
REMARK    5  A    between atoms: N2_7  and  C4_10
REMARK    6  A    between atoms: C5_13  and  N4_14
ROOT
HETATM    1  C4  UNL     1      46.902  29.232  10.752  1.00  0.00     0.733 A
HETATM    2  N3  UNL     1      47.365  30.106   9.831  1.00  0.00    -0.018 N
ATOM      3  H3  UNL     1      48.336  30.402   9.723  1.00  0.00     0.203 HD
HETATM    4  C5  UNL     1      46.328  30.519   9.083  1.00  0.00     0.705 A
HETATM    5  N5  UNL     1      45.208  29.917   9.519  1.00  0.00    -0.117 N
ATOM      6  H5  UNL     1      44.264  30.030   9.149  1.00  0.00     0.206 HD
HETATM    7  N6  UNL     1      45.582  29.147  10.524  1.00  0.00    -0.115 N
ATOM      8  H6  UNL     1      44.946  28.560  11.062  1.00  0.00     0.206 HD
ENDROOT
BRANCH   1   9
HETATM    9  N2  UNL     1      47.622  28.535  11.756  1.00  0.00    -0.087 N
BRANCH   9  10
HETATM   10  C3  UNL     1      48.748  29.116  12.460  1.00  0.00     0.202 C
BRANCH  10  11
HETATM   11  C2  UNL     1      48.416  29.111  13.924  1.00  0.00     0.254 C
BRANCH  11  12
HETATM   12  N1  UNL     1      49.037  28.049  14.657  1.00  0.00    -0.077 N
HETATM   13  C1  UNL     1      50.401  28.460  14.956  1.00  0.00     0.267 C
ATOM     14  H12 UNL     1      48.990  27.151  14.174  1.00  0.00     0.276 HD
ATOM     15  H11 UNL     1      48.512  27.780  15.490  1.00  0.00     0.276 HD
ENDBRANCH  11  12
ENDBRANCH  10  11
ENDBRANCH   9  10
BRANCH   9  16
HETATM   16  O1  UNL     1      47.260  27.283  12.083  1.00  0.00    -0.274 OA
ATOM     17  H1  UNL     1      47.640  26.570  11.583  1.00  0.00     0.245 HD
ENDBRANCH   9  16
ENDBRANCH   1   9
BRANCH   4  18
HETATM   18  N4  UNL     1      46.391  31.349   8.117  1.00  0.00    -0.233 N
ATOM     19  H42 UNL     1      47.230  31.844   7.818  1.00  0.00     0.174 HD
ATOM     20  H41 UNL     1      45.613  31.623   7.516  1.00  0.00     0.174 HD
ENDBRANCH   4  18
TORSDOF 6
ENDMDL