MODEL 2
REMARK VINA RESULT: -5.600730807      0.842      1.681
REMARK  4 active torsions:
REMARK  status: ('A' for Active; 'I' for Inactive)
REMARK    1  A    between atoms: N1_1  and  C1_5
REMARK    2  A    between atoms: C1_5  and  C2_6
REMARK    3  A    between atoms: C2_6  and  N2_7
REMARK    4  A    between atoms: N2_7  and  N3_9
ROOT
HETATM    1  N3  UNL     1      47.326  27.770  13.152  1.00  0.00    -0.289 N
ATOM      2  H3  UNL     1      46.419  27.513  13.541  1.00  0.00     0.188 HD
HETATM    3  C3  UNL     1      47.417  28.436  12.036  1.00  0.00     0.139 A
HETATM    4  C4  UNL     1      48.624  28.795  11.488  1.00  0.00     0.157 A
HETATM    5  N4  UNL     1      48.660  29.484  10.333  1.00  0.00    -0.306 N
ATOM      6  H4  UNL     1      49.564  29.744   9.938  1.00  0.00     0.186 HD
HETATM    7  N5  UNL     1      47.554  29.833   9.694  1.00  0.00    -0.274 N
ATOM      8  H5  UNL     1      47.604  30.354   8.818  1.00  0.00     0.189 HD
HETATM    9  C5  UNL     1      46.368  29.489  10.219  1.00  0.00     0.208 A
HETATM   10  N6  UNL     1      45.185  29.863   9.534  1.00  0.00    -0.062 NA
HETATM   11  N7  UNL     1      46.304  28.799  11.375  1.00  0.00    -0.313 N
ATOM     12  H7  UNL     1      45.392  28.547  11.756  1.00  0.00     0.170 HD
ENDROOT
BRANCH   1  13
HETATM   13  N2  UNL     1      48.515  27.419  13.796  1.00  0.00    -0.333 N
ATOM     14  H2  UNL     1      49.065  26.625  13.470  1.00  0.00     0.180 HD
BRANCH  13  15
HETATM   15  C2  UNL     1      48.953  28.191  14.924  1.00  0.00     0.166 C
BRANCH  15  16
HETATM   16  C1  UNL     1      50.341  28.752  14.730  1.00  0.00     0.250 C
BRANCH  16  17
HETATM   17  N1  UNL     1      51.284  28.006  15.443  1.00  0.00    -0.078 N
ATOM     18  H13 UNL     1      50.844  27.429  16.160  1.00  0.00     0.274 HD
ATOM     19  H12 UNL     1      51.687  27.263  14.872  1.00  0.00     0.274 HD
ATOM     20  H11 UNL     1      52.004  28.612  15.837  1.00  0.00     0.274 HD
ENDBRANCH  16  17
ENDBRANCH  15  16
ENDBRANCH  13  15
ENDBRANCH   1  13
TORSDOF 4
ENDMDL