MODEL 5
REMARK VINA RESULT: -4.770913864      1.872      4.985
REMARK  5 active torsions:
REMARK  status: ('A' for Active; 'I' for Inactive)
REMARK    1  A    between atoms: C2_3  and  N2_4
REMARK    2  A    between atoms: C3_10  and  C4_11
REMARK    3  A    between atoms: C4_11  and  C5_12
REMARK    4  A    between atoms: C5_12  and  C6_13
REMARK    5  A    between atoms: C6_13  and  N4_14
ROOT
HETATM    1  N1  UNL     1      46.757  28.008  15.980  1.00  0.00    -0.191 NA
HETATM    2  C1  UNL     1      47.512  27.825  15.124  1.00  0.00     0.142 C
HETATM    3  C2  UNL     1      48.469  27.616  14.034  1.00  0.00     0.378 C
HETATM    4  N3  UNL     1      47.742  27.512  12.802  1.00  0.00    -0.320 N
ATOM      5  H3  UNL     1      47.333  26.657  12.425  1.00  0.00     0.165 HD
HETATM    6  C3  UNL     1      47.689  28.668  12.253  1.00  0.00     0.092 C
HETATM    7  N5  UNL     1      48.388  29.585  13.088  1.00  0.00    -0.288 N
ATOM      8  H5  UNL     1      48.276  30.599  13.115  1.00  0.00     0.183 HD
HETATM    9  N6  UNL     1      49.264  28.807  13.867  1.00  0.00    -0.064 NA
ENDROOT
BRANCH   3  10
HETATM   10  N2  UNL     1      49.282  26.447  14.305  1.00  0.00    -0.022 N
ATOM     11  H23 UNL     1      49.971  26.623  15.035  1.00  0.00     0.280 HD
ATOM     12  H22 UNL     1      48.751  25.714  14.774  1.00  0.00     0.280 HD
ATOM     13  H21 UNL     1      49.714  26.115  13.443  1.00  0.00     0.280 HD
ENDBRANCH   3  10
BRANCH   6  14
HETATM   14  C4  UNL     1      47.016  28.997  10.949  1.00  0.00     0.079 C
BRANCH  14  15
HETATM   15  C5  UNL     1      48.083  29.417   9.943  1.00  0.00     0.034 C
BRANCH  15  16
HETATM   16  C6  UNL     1      47.487  30.185   8.803  1.00  0.00     0.230 C
BRANCH  16  17
HETATM   17  N4  UNL     1      46.172  30.664   9.188  1.00  0.00    -0.079 N
ATOM     18  H43 UNL     1      45.427  30.035   8.888  1.00  0.00     0.274 HD
ATOM     19  H42 UNL     1      46.017  30.603  10.194  1.00  0.00     0.274 HD
ATOM     20  H41 UNL     1      46.044  31.612   8.834  1.00  0.00     0.274 HD
ENDBRANCH  16  17
ENDBRANCH  15  16
ENDBRANCH  14  15
ENDBRANCH   6  14
TORSDOF 5
ENDMDL