MODEL 1
REMARK VINA RESULT: -6.040932751      0.000      0.000
REMARK  7 active torsions:
REMARK  status: ('A' for Active; 'I' for Inactive)
REMARK    1  A    between atoms: N1_1  and  C1_5
REMARK    2  A    between atoms: C1_5  and  C2_6
REMARK    3  A    between atoms: C2_6  and  C3_7
REMARK    4  A    between atoms: C3_7  and  N2_8
REMARK    5  A    between atoms: N2_8  and  C4_10
REMARK    6  A    between atoms: C5_15  and  C6_16
REMARK    7  A    between atoms: C6_16  and  N5_17
ROOT
HETATM    1  C4  UNL     1      46.791  28.635  11.708  1.00  0.00     0.240 A
HETATM    2  N3  UNL     1      45.513  28.620  11.297  1.00  0.00    -0.263 N
ATOM      3  H3  UNL     1      44.733  28.162  11.767  1.00  0.00     0.190 HD
HETATM    4  N4  UNL     1      45.452  29.302  10.177  1.00  0.00    -0.279 N
ATOM      5  H4  UNL     1      44.611  29.467   9.625  1.00  0.00     0.189 HD
HETATM    6  C5  UNL     1      46.668  29.739   9.887  1.00  0.00     0.167 A
HETATM    7  O1  UNL     1      47.465  29.317  10.838  1.00  0.00    -0.262 OA
ENDROOT
BRANCH   1   8
HETATM    8  N2  UNL     1      47.223  28.051  12.796  1.00  0.00    -0.355 N
ATOM      9  H2  UNL     1      47.196  27.035  12.872  1.00  0.00     0.163 HD
BRANCH   8  10
HETATM   10  C3  UNL     1      47.738  28.843  13.893  1.00  0.00     0.125 C
BRANCH  10  11
HETATM   11  C2  UNL     1      48.808  28.061  14.605  1.00  0.00     0.047 C
BRANCH  11  12
HETATM   12  C1  UNL     1      50.124  28.774  14.646  1.00  0.00     0.231 C
BRANCH  12  13
HETATM   13  N1  UNL     1      51.176  28.048  15.282  1.00  0.00    -0.079 N
ATOM     14  H13 UNL     1      50.818  27.541  16.091  1.00  0.00     0.274 HD
ATOM     15  H12 UNL     1      51.469  27.265  14.698  1.00  0.00     0.274 HD
ATOM     16  H11 UNL     1      51.984  28.613  15.548  1.00  0.00     0.274 HD
ENDBRANCH  12  13
ENDBRANCH  11  12
ENDBRANCH  10  11
ENDBRANCH   8  10
ENDBRANCH   1   8
BRANCH   6  17
HETATM   17  C6  UNL     1      47.133  30.555   8.730  1.00  0.00     0.315 C
BRANCH  17  18
HETATM   18  N5  UNL     1      46.170  31.614   8.477  1.00  0.00    -0.072 N
ATOM     19  H53 UNL     1      45.353  31.549   9.083  1.00  0.00     0.274 HD
ATOM     20  H52 UNL     1      46.507  32.526   8.788  1.00  0.00     0.274 HD
ATOM     21  H51 UNL     1      45.920  31.609   7.488  1.00  0.00     0.274 HD
ENDBRANCH  17  18
ENDBRANCH   6  17
TORSDOF 7
ENDMDL