MODEL 4
REMARK VINA RESULT: -5.235914886      1.489      5.174
REMARK  4 active torsions:
REMARK  status: ('A' for Active; 'I' for Inactive)
REMARK    1  A    between atoms: C1_4  and  C2_6
REMARK    2  A    between atoms: C2_6  and  C3_7
REMARK    3  A    between atoms: C3_7  and  N3_8
REMARK    4  A    between atoms: N3_8  and  C4_10
ROOT
HETATM    1  C4  UNL     1      47.053  28.644  11.453  1.00  0.00     0.694 A
HETATM    2  N4  UNL     1      48.135  29.017  10.862  1.00  0.00    -0.118 N
ATOM      3  H4  UNL     1      49.028  28.750  11.276  1.00  0.00     0.207 HD
HETATM    4  N5  UNL     1      48.150  29.767   9.688  1.00  0.00    -0.228 N
ATOM      5  H5  UNL     1      49.034  30.036   9.259  1.00  0.00     0.209 HD
HETATM    6  N6  UNL     1      46.937  30.145   9.105  1.00  0.00    -0.281 N
ATOM      7  H6  UNL     1      46.905  30.695   8.246  1.00  0.00     0.189 HD
HETATM    8  C5  UNL     1      45.751  29.727   9.768  1.00  0.00     0.216 A
HETATM    9  N7  UNL     1      45.817  29.027  10.862  1.00  0.00    -0.185 N
ATOM     10  H7  UNL     1      44.949  28.741  11.314  1.00  0.00     0.185 HD
ENDROOT
BRANCH   1  11
HETATM   11  N3  UNL     1      47.074  27.864  12.672  1.00  0.00    -0.224 N
ATOM     12  H3  UNL     1      47.058  26.846  12.613  1.00  0.00     0.177 HD
BRANCH  11  13
HETATM   13  C3  UNL     1      47.116  28.491  13.964  1.00  0.00     0.145 C
BRANCH  13  14
HETATM   14  C2  UNL     1      48.320  27.979  14.719  1.00  0.00     0.092 C
BRANCH  14  15
HETATM   15  C1  UNL     1      49.550  28.714  14.417  1.00  0.00     0.088 C
HETATM   16  N1  UNL     1      50.642  28.399  15.014  1.00  0.00    -0.391 N
ATOM     17  H12 UNL     1      51.499  28.912  14.803  1.00  0.00     0.157 HD
ATOM     18  H11 UNL     1      50.656  27.642  15.696  1.00  0.00     0.157 HD
HETATM   19  N2  UNL     1      49.530  29.757  13.478  1.00  0.00    -0.088 NA
ENDBRANCH  14  15
ENDBRANCH  13  14
ENDBRANCH  11  13
ENDBRANCH   1  11
TORSDOF 4
ENDMDL