MODEL 2
REMARK VINA RESULT: -5.458750729      0.920      1.902
REMARK  6 active torsions:
REMARK  status: ('A' for Active; 'I' for Inactive)
REMARK    1  A    between atoms: N1_1  and  C1_4
REMARK    2  A    between atoms: C2_7  and  N3_8
REMARK    3  A    between atoms: N3_8  and  C3_10
REMARK    4  A    between atoms: C3_10  and  C4_11
REMARK    5  A    between atoms: C4_11  and  C5_12
REMARK    6  A    between atoms: C5_12  and  N4_13
ROOT
HETATM    1  C1  UNL     1      46.078  29.404  10.214  1.00  0.00     0.706 A
HETATM    2  N2  UNL     1      46.345  28.731  11.347  1.00  0.00    -0.020 N
ATOM      3  H2  UNL     1      45.565  28.361  11.891  1.00  0.00     0.203 HD
HETATM    4  C2  UNL     1      47.595  28.524  11.796  1.00  0.00     0.708 A
HETATM    5  N5  UNL     1      48.582  29.048  11.018  1.00  0.00    -0.117 N
ATOM      6  H5  UNL     1      49.551  28.922  11.310  1.00  0.00     0.207 HD
HETATM    7  N6  UNL     1      48.339  29.711   9.903  1.00  0.00    -0.214 N
ATOM      8  H6  UNL     1      49.116  30.084   9.356  1.00  0.00     0.209 HD
HETATM    9  N7  UNL     1      47.099  29.896   9.492  1.00  0.00    -0.117 N
ATOM     10  H7  UNL     1      46.917  30.409   8.630  1.00  0.00     0.207 HD
ENDROOT
BRANCH   4  11
HETATM   11  N3  UNL     1      47.904  27.819  12.985  1.00  0.00    -0.224 N
ATOM     12  H3  UNL     1      48.122  26.825  12.917  1.00  0.00     0.177 HD
BRANCH  11  13
HETATM   13  C3  UNL     1      47.926  28.437  14.285  1.00  0.00     0.140 C
BRANCH  13  14
HETATM   14  C4  UNL     1      49.064  27.992  15.143  1.00  0.00     0.047 C
BRANCH  14  15
HETATM   15  C5  UNL     1      50.379  28.612  14.764  1.00  0.00     0.231 C
BRANCH  15  16
HETATM   16  N4  UNL     1      51.503  28.086  15.465  1.00  0.00    -0.079 N
ATOM     17  H43 UNL     1      52.041  28.841  15.891  1.00  0.00     0.274 HD
ATOM     18  H42 UNL     1      51.198  27.593  16.305  1.00  0.00     0.274 HD
ATOM     19  H41 UNL     1      52.110  27.490  14.903  1.00  0.00     0.274 HD
ENDBRANCH  15  16
ENDBRANCH  14  15
ENDBRANCH  13  14
ENDBRANCH  11  13
ENDBRANCH   4  11
BRANCH   1  20
HETATM   20  N1  UNL     1      44.880  29.606   9.778  1.00  0.00    -0.233 N
ATOM     21  H12 UNL     1      44.764  30.240   8.987  1.00  0.00     0.174 HD
ATOM     22  H11 UNL     1      44.055  29.167  10.186  1.00  0.00     0.174 HD
ENDBRANCH   1  20
TORSDOF 6
ENDMDL