MODEL 4
REMARK VINA RESULT: -6.448656083      1.641      2.399
REMARK  7 active torsions:
REMARK  status: ('A' for Active; 'I' for Inactive)
REMARK    1  A    between atoms: C3_3  and  N1_4
REMARK       I    between atoms: N1_4  and  C4_6
REMARK    2  A    between atoms: C4_6  and  C5_8
REMARK    3  A    between atoms: C5_8  and  C6_10
REMARK    4  A    between atoms: C6_10  and  N3_17
REMARK    5  A    between atoms: C7_11  and  N2_12
REMARK    6  A    between atoms: N2_12  and  C10_15
REMARK    7  A    between atoms: N3_17  and  C12_19
ROOT
HETATM    1  C1  UNL     1      20.632 -11.966  17.684  1.00  0.00     0.014 C
HETATM    2  C2  UNL     1      20.596 -12.023  18.896  1.00  0.00    -0.098 C
HETATM    3  C3  UNL     1      20.540 -12.076  20.348  1.00  0.00     0.216 C
ENDROOT
BRANCH   3   4
HETATM    4  N1  UNL     1      19.355 -12.772  20.813  1.00  0.00    -0.349 N
HETATM    5  C4  UNL     1      18.086 -12.150  20.799  1.00  0.00     0.238 C
HETATM    6  O1  UNL     1      17.978 -10.980  20.378  1.00  0.00    -0.272 OA
ATOM      7  H1  UNL     1      19.440 -13.729  21.157  1.00  0.00     0.163 HD
BRANCH   5   8
HETATM    8  C5  UNL     1      16.871 -12.850  21.270  1.00  0.00     0.201 C
HETATM    9 BR1  UNL     1      17.392 -14.645  21.758  1.00  0.00    -0.074 Br
BRANCH   8  10
HETATM   10  C6  UNL     1      15.819 -12.852  20.222  1.00  0.00     0.058 C
HETATM   11  C7  UNL     1      15.807 -13.702  19.219  1.00  0.00     0.233 C
BRANCH  11  12
HETATM   12  N2  UNL     1      14.852 -13.760  18.202  1.00  0.00    -0.034 N
HETATM   13  C8  UNL     1      14.640 -12.443  17.617  1.00  0.00     0.284 C
HETATM   14  C9  UNL     1      13.571 -14.272  18.632  1.00  0.00     0.284 C
BRANCH  12  15
HETATM   15  C10 UNL     1      15.365 -14.598  17.139  1.00  0.00     0.197 C
HETATM   16  C11 UNL     1      15.796 -14.027  16.026  1.00  0.00     0.038 C
ENDBRANCH  12  15
ENDBRANCH  11  12
BRANCH  10  17
HETATM   17  N3  UNL     1      14.797 -11.880  20.337  1.00  0.00    -0.342 N
ATOM     18  H3  UNL     1      14.754 -11.159  19.617  1.00  0.00     0.167 HD
BRANCH  17  19
HETATM   19  C12 UNL     1      13.928 -11.832  21.264  1.00  0.00     0.122 A
HETATM   20  C13 UNL     1      13.511 -10.679  21.892  1.00  0.00     0.088 A
HETATM   21  C14 UNL     1      12.550 -11.012  22.853  1.00  0.00     0.098 A
HETATM   22 BR2  UNL     1      11.638  -9.802  24.013  1.00  0.00    -0.030 Br
HETATM   23  N4  UNL     1      12.422 -12.350  22.771  1.00  0.00    -0.292 N
HETATM   24  N5  UNL     1      13.232 -12.827  21.838  1.00  0.00    -0.284 N
ATOM     25  H4  UNL     1      11.793 -12.913  23.343  1.00  0.00     0.187 HD
ATOM     26  H5  UNL     1      13.316 -13.814  21.589  1.00  0.00     0.188 HD
ENDBRANCH  17  19
ENDBRANCH  10  17
ENDBRANCH   8  10
ENDBRANCH   5   8
ENDBRANCH   3   4
TORSDOF 7
ENDMDL