MODEL 5
REMARK VINA RESULT: -6.716970095      3.041      4.220
REMARK  7 active torsions:
REMARK  status: ('A' for Active; 'I' for Inactive)
REMARK       I    between atoms: N1_2  and  C2_4
REMARK    1  A    between atoms: C2_4  and  C3_6
REMARK    2  A    between atoms: C3_6  and  N2_9
REMARK       I    between atoms: N2_9  and  C6_11
REMARK    3  A    between atoms: C6_11  and  C7_13
REMARK    4  A    between atoms: C7_13  and  C8_14
REMARK    5  A    between atoms: N4_20  and  C11_21
REMARK    6  A    between atoms: C11_21  and  C12_22
REMARK    7  A    between atoms: C13_23  and  C14_24
ROOT
HETATM    1  C7  UNL     1      18.556 -11.832  20.567  1.00  0.00     0.161 C
ENDROOT
BRANCH   1   2
HETATM    2  C6  UNL     1      17.485 -11.558  19.575  1.00  0.00     0.224 C
HETATM    3  N2  UNL     1      17.182 -12.454  18.514  1.00  0.00    -0.343 N
ATOM      4  H2  UNL     1      17.726 -13.313  18.442  1.00  0.00     0.163 HD
HETATM    5  O2  UNL     1      16.777 -10.496  19.623  1.00  0.00    -0.273 OA
BRANCH   3   6
HETATM    6  C3  UNL     1      16.158 -12.224  17.542  1.00  0.00     0.106 C
HETATM    7  C4  UNL     1      16.572 -11.186  16.509  1.00  0.00     0.048 C
HETATM    8  C5  UNL     1      15.842 -13.500  16.749  1.00  0.00     0.048 C
BRANCH   6   9
HETATM    9  C2  UNL     1      14.898 -11.802  18.186  1.00  0.00     0.244 C
HETATM   10  N1  UNL     1      14.400 -12.524  19.279  1.00  0.00    -0.363 N
HETATM   11  C1  UNL     1      13.172 -12.139  19.930  1.00  0.00     0.149 C
ATOM     12  H1  UNL     1      14.915 -13.335  19.619  1.00  0.00     0.162 HD
HETATM   13  O1  UNL     1      14.255 -10.790  17.764  1.00  0.00    -0.271 OA
ENDBRANCH   6   9
ENDBRANCH   3   6
ENDBRANCH   1   2
BRANCH   1  14
HETATM   14  C8  UNL     1      18.123 -13.002  21.375  1.00  0.00     0.039 A
HETATM   15  C9  UNL     1      16.845 -13.274  21.866  1.00  0.00     0.116 A
HETATM   16  N3  UNL     1      16.908 -14.435  22.542  1.00  0.00    -0.344 N
HETATM   17  C10 UNL     1      18.179 -14.903  22.495  1.00  0.00     0.156 A
ATOM     18  H3  UNL     1      16.126 -14.889  23.014  1.00  0.00     0.167 HD
HETATM   19 BR1  UNL     1      18.806 -16.533  23.306  1.00  0.00    -0.010 Br
HETATM   20  N4  UNL     1      18.901 -14.020  21.784  1.00  0.00    -0.318 N
BRANCH  20  21
HETATM   21  C11 UNL     1      20.313 -14.188  21.520  1.00  0.00     0.225 C
BRANCH  21  22
HETATM   22  C12 UNL     1      21.106 -14.044  22.754  1.00  0.00    -0.086 C
HETATM   23  C13 UNL     1      21.740 -13.931  23.778  1.00  0.00    -0.094 C
BRANCH  23  24
HETATM   24  C14 UNL     1      22.500 -13.792  25.036  1.00  0.00     0.178 C
HETATM   25 BR2  UNL     1      21.316 -13.087  26.413  1.00  0.00    -0.083 Br
ENDBRANCH  23  24
ENDBRANCH  21  22
ENDBRANCH  20  21
ENDBRANCH   1  14
TORSDOF 7
ENDMDL