MODEL 5
REMARK VINA RESULT: -6.615645415      4.124      7.053
REMARK  8 active torsions:
REMARK  status: ('A' for Active; 'I' for Inactive)
REMARK    1  A    between atoms: C3_5  and  C4_6
REMARK    2  A    between atoms: C4_6  and  C5_7
REMARK    3  A    between atoms: C6_10  and  C7_11
REMARK    4  A    between atoms: C7_11  and  C8_12
REMARK    5  A    between atoms: C9_14  and  C10_15
REMARK    6  A    between atoms: C10_15  and  C11_16
REMARK    7  A    between atoms: C15_22  and  C16_23
REMARK    8  A    between atoms: C16_23  and  O1_24
ROOT
HETATM    1  C5  UNL     1      17.011 -11.348  19.810  1.00  0.00     0.109 A
HETATM    2  N2  UNL     1      15.761 -10.968  20.248  1.00  0.00    -0.344 N
ATOM      3  H2  UNL     1      15.551 -10.606  21.179  1.00  0.00     0.167 HD
HETATM    4  C6  UNL     1      14.855 -11.145  19.263  1.00  0.00     0.034 A
HETATM    5  C9  UNL     1      15.521 -11.645  18.189  1.00  0.00     0.036 A
HETATM    6  N3  UNL     1      16.818 -11.756  18.549  1.00  0.00    -0.339 N
HETATM    7  C12 UNL     1      17.871 -12.246  17.687  1.00  0.00     0.158 C
ENDROOT
BRANCH   1   8
HETATM    8  C4  UNL     1      18.238 -11.306  20.580  1.00  0.00     0.079 C
BRANCH   8   9
HETATM    9  C3  UNL     1      18.817 -12.154  21.333  1.00  0.00     0.046 A
HETATM   10  N1  UNL     1      18.218 -12.758  22.387  1.00  0.00    -0.355 N
HETATM   11  C2  UNL     1      19.061 -13.602  23.005  1.00  0.00     0.036 A
ATOM     12  H1  UNL     1      17.253 -12.595  22.673  1.00  0.00     0.166 HD
HETATM   13  C1  UNL     1      18.759 -14.327  24.062  1.00  0.00     0.044 C
HETATM   14  C15 UNL     1      20.279 -13.573  22.355  1.00  0.00     0.023 A
HETATM   15  C13 UNL     1      20.112 -12.652  21.294  1.00  0.00    -0.004 A
HETATM   16  C14 UNL     1      21.047 -12.383  20.417  1.00  0.00     0.026 C
BRANCH  14  17
HETATM   17  C16 UNL     1      21.390 -14.265  22.655  1.00  0.00     0.148 C
BRANCH  17  18
HETATM   18  O1  UNL     1      22.467 -13.986  23.349  1.00  0.00    -0.367 OA
HETATM   19  C17 UNL     1      22.442 -13.870  24.798  1.00  0.00     0.208 C
ENDBRANCH  17  18
ENDBRANCH  14  17
ENDBRANCH   8   9
ENDBRANCH   1   8
BRANCH   4  20
HETATM   20  C7  UNL     1      13.386 -10.820  19.437  1.00  0.00     0.070 C
BRANCH  20  21
HETATM   21  C8  UNL     1      12.869 -11.520  20.648  1.00  0.00     0.091 C
HETATM   22 BR1  UNL     1      12.200 -10.210  21.910  1.00  0.00    -0.096 Br
ENDBRANCH  20  21
ENDBRANCH   4  20
BRANCH   5  23
HETATM   23  C10 UNL     1      14.946 -11.964  16.850  1.00  0.00     0.070 C
BRANCH  23  24
HETATM   24  C11 UNL     1      15.041 -10.779  15.910  1.00  0.00     0.091 C
HETATM   25 BR2  UNL     1      15.927 -11.374  14.299  1.00  0.00    -0.096 Br
ENDBRANCH  23  24
ENDBRANCH   5  23
TORSDOF 8
ENDMDL