MODEL 3
REMARK VINA RESULT: -6.276314801      3.689      4.707
REMARK  5 active torsions:
REMARK  status: ('A' for Active; 'I' for Inactive)
REMARK    1  A    between atoms: C3_7  and  C4_8
REMARK    2  A    between atoms: C4_8  and  N3_9
REMARK       I    between atoms: N3_9  and  C5_11
REMARK    3  A    between atoms: C5_11  and  C6_13
REMARK    4  A    between atoms: C6_13  and  C7_15
REMARK    5  A    between atoms: C7_15  and  S1_16
ROOT
HETATM    1  C4  UNL     1      15.088 -10.524  20.742  1.00  0.00     0.182 C
ENDROOT
BRANCH   1   2
HETATM    2  C3  UNL     1      14.020 -10.330  21.775  1.00  0.00     0.063 A
HETATM    3  N2  UNL     1      13.634  -9.223  22.407  1.00  0.00    -0.336 N
HETATM    4  C2  UNL     1      12.606  -9.513  23.256  1.00  0.00     0.156 A
ATOM      5  H2  UNL     1      14.045  -8.298  22.275  1.00  0.00     0.168 HD
HETATM    6  N1  UNL     1      12.370 -10.829  23.129  1.00  0.00    -0.324 N
HETATM    7 BR1  UNL     1      11.700  -8.279  24.389  1.00  0.00    -0.010 Br
HETATM    8  C1  UNL     1      11.330 -11.497  23.893  1.00  0.00     0.159 C
HETATM    9  C9  UNL     1      13.204 -11.362  22.244  1.00  0.00     0.108 A
HETATM   10 BR3  UNL     1      13.272 -13.187  21.712  1.00  0.00    -0.029 Br
ENDBRANCH   1   2
BRANCH   1  11
HETATM   11  N3  UNL     1      14.640 -11.226  19.576  1.00  0.00    -0.354 N
HETATM   12  C5  UNL     1      15.476 -11.405  18.438  1.00  0.00     0.233 C
HETATM   13  O1  UNL     1      16.638 -10.929  18.488  1.00  0.00    -0.272 OA
ATOM     14  H3  UNL     1      13.695 -11.609  19.561  1.00  0.00     0.162 HD
BRANCH  12  15
HETATM   15  C6  UNL     1      15.046 -12.113  17.221  1.00  0.00     0.161 C
HETATM   16 BR2  UNL     1      14.844 -14.016  17.519  1.00  0.00    -0.080 Br
BRANCH  15  17
HETATM   17  C7  UNL     1      16.054 -11.952  16.087  1.00  0.00     0.133 C
BRANCH  17  18
HETATM   18  S1  UNL     1      15.189 -11.174  14.744  1.00  0.00     0.012 S
HETATM   19  C8  UNL     1      16.206 -11.123  13.290  1.00  0.00     0.127 C
HETATM   20  O2  UNL     1      14.752  -9.624  15.170  1.00  0.00    -0.258 OA
ENDBRANCH  17  18
ENDBRANCH  15  17
ENDBRANCH  12  15
ENDBRANCH   1  11
TORSDOF 5
ENDMDL