MODEL 4
REMARK VINA RESULT: -7.324091085      3.770      7.513
REMARK  7 active torsions:
REMARK  status: ('A' for Active; 'I' for Inactive)
REMARK    1  A    between atoms: N2_4  and  N3_6
REMARK    2  A    between atoms: C1_8  and  C2_9
REMARK    3  A    between atoms: C3_10  and  C4_11
REMARK    4  A    between atoms: C7_15  and  C8_16
REMARK    5  A    between atoms: N4_17  and  N5_19
REMARK    6  A    between atoms: N5_19  and  N6_21
REMARK    7  A    between atoms: C11_26  and  O1_27
ROOT
HETATM    1  C4  UNL     1      14.783 -14.113  18.766  1.00  0.00    -0.008 A
HETATM    2  C5  UNL     1      13.476 -14.097  19.314  1.00  0.00     0.022 A
HETATM    3 BR1  UNL     1      12.140 -15.311  18.664  1.00  0.00    -0.050 Br
HETATM    4  C6  UNL     1      13.138 -13.235  20.294  1.00  0.00     0.033 A
HETATM    5  C7  UNL     1      13.990 -12.317  20.845  1.00  0.00    -0.007 A
HETATM    6  C9  UNL     1      15.293 -12.327  20.311  1.00  0.00    -0.011 A
HETATM    7  C10 UNL     1      16.227 -11.479  20.822  1.00  0.00     0.051 A
HETATM    8  C11 UNL     1      17.544 -11.472  20.366  1.00  0.00     0.084 A
HETATM    9  C12 UNL     1      17.905 -12.340  19.383  1.00  0.00     0.044 A
HETATM   10 BR2  UNL     1      19.694 -12.408  18.693  1.00  0.00    -0.048 Br
HETATM   11  C13 UNL     1      16.963 -13.203  18.857  1.00  0.00     0.035 A
HETATM   12  C14 UNL     1      15.669 -13.209  19.297  1.00  0.00    -0.012 A
ENDROOT
BRANCH   1  13
HETATM   13  C3  UNL     1      15.006 -15.075  17.742  1.00  0.00     0.015 C
HETATM   14  C2  UNL     1      15.438 -16.288  17.716  1.00  0.00     0.019 C
BRANCH  14  15
HETATM   15  C1  UNL     1      15.531 -16.994  16.418  1.00  0.00     0.108 C
HETATM   16  N3  UNL     1      14.613 -16.936  15.541  1.00  0.00    -0.298 N
ATOM     17  H3  UNL     1      13.774 -16.385  15.725  1.00  0.00     0.187 HD
BRANCH  16  18
HETATM   18  N2  UNL     1      14.742 -17.617  14.330  1.00  0.00    -0.250 N
HETATM   19  N1  UNL     1      13.719 -18.093  13.752  1.00  0.00    -0.331 N
ATOM     20  H12 UNL     1      12.805 -17.969  14.188  1.00  0.00     0.178 HD
ATOM     21  H11 UNL     1      13.813 -18.591  12.866  1.00  0.00     0.178 HD
ATOM     22  H2  UNL     1      15.663 -17.732  13.907  1.00  0.00     0.207 HD
ENDBRANCH  16  18
ENDBRANCH  14  15
ENDBRANCH   1  13
BRANCH   5  23
HETATM   23  C8  UNL     1      13.611 -11.393  21.889  1.00  0.00     0.120 C
HETATM   24  N4  UNL     1      12.530 -11.366  22.483  1.00  0.00    -0.297 N
ATOM     25  H4  UNL     1      12.566 -10.604  23.161  1.00  0.00     0.187 HD
BRANCH  24  26
HETATM   26  N5  UNL     1      11.343 -11.942  22.584  1.00  0.00    -0.250 N
ATOM     27  H5  UNL     1      10.900 -12.372  21.772  1.00  0.00     0.207 HD
BRANCH  26  28
HETATM   28  N6  UNL     1      10.757 -11.945  23.738  1.00  0.00    -0.331 N
ATOM     29  H62 UNL     1      11.207 -12.395  24.535  1.00  0.00     0.178 HD
ATOM     30  H61 UNL     1       9.847 -11.490  23.821  1.00  0.00     0.178 HD
ENDBRANCH  26  28
ENDBRANCH  24  26
ENDBRANCH   5  23
BRANCH   8  31
HETATM   31  O1  UNL     1      18.496 -10.604  20.891  1.00  0.00    -0.359 OA
ATOM     32  H1  UNL     1      19.415 -10.840  20.940  1.00  0.00     0.217 HD
ENDBRANCH   8  31
TORSDOF 7
ENDMDL