MODEL 1
REMARK VINA RESULT: -7.625094406      0.000      0.000
REMARK  9 active torsions:
REMARK  status: ('A' for Active; 'I' for Inactive)
REMARK    1  A    between atoms: C2_3  and  C3_4
REMARK    2  A    between atoms: C3_4  and  C4_5
REMARK    3  A    between atoms: C4_5  and  N2_6
REMARK    4  A    between atoms: C5_9  and  N4_10
REMARK    5  A    between atoms: N7_19  and  C8_20
REMARK    6  A    between atoms: C8_20  and  C9_21
REMARK    7  A    between atoms: C9_21  and  C10_22
REMARK    8  A    between atoms: C10_22  and  C11_23
REMARK    9  A    between atoms: C12_24  and  C13_25
ROOT
HETATM    1  C1  UNL     1      14.312 -11.479  18.596  1.00  0.00     0.159 C
HETATM    2  N1  UNL     1      15.668 -11.474  19.168  1.00  0.00    -0.324 N
HETATM    3  C2  UNL     1      15.841 -11.126  20.449  1.00  0.00     0.093 A
HETATM    4  C6  UNL     1      17.118 -11.130  20.960  1.00  0.00     0.056 A
HETATM    5  C7  UNL     1      18.183 -11.481  20.180  1.00  0.00     0.096 A
HETATM    6  N7  UNL     1      17.979 -11.826  18.895  1.00  0.00    -0.337 N
HETATM    7  C14 UNL     1      16.720 -11.815  18.416  1.00  0.00     0.158 A
HETATM    8 BR2  UNL     1      16.447 -12.308  16.589  1.00  0.00    -0.010 Br
ENDROOT
BRANCH   3   9
HETATM    9  C3  UNL     1      14.715 -10.757  21.269  1.00  0.00    -0.022 C
BRANCH   9  10
HETATM   10  C4  UNL     1      13.778 -10.444  21.977  1.00  0.00     0.062 C
BRANCH  10  11
HETATM   11  N2  UNL     1      12.706 -10.081  22.816  1.00  0.00    -0.121 N
HETATM   12  N3  UNL     1      12.599  -8.977  23.555  1.00  0.00    -0.101 N
HETATM   13  C5  UNL     1      11.433  -8.987  24.219  1.00  0.00     0.708 A
ATOM     14  H3  UNL     1      13.297  -8.236  23.607  1.00  0.00     0.208 HD
HETATM   15  N5  UNL     1      10.808 -10.119  23.885  1.00  0.00    -0.114 N
HETATM   16  N6  UNL     1      11.598 -10.761  23.038  1.00  0.00    -0.199 N
ATOM     17  H5  UNL     1       9.896 -10.431  24.219  1.00  0.00     0.207 HD
ATOM     18  H6  UNL     1      11.379 -11.662  22.614  1.00  0.00     0.211 HD
BRANCH  13  19
HETATM   19  N4  UNL     1      10.955  -8.100  25.036  1.00  0.00    -0.232 N
ATOM     20  H42 UNL     1      11.517  -7.563  25.697  1.00  0.00     0.174 HD
ATOM     21  H41 UNL     1       9.989  -7.799  25.158  1.00  0.00     0.174 HD
ENDBRANCH  13  19
ENDBRANCH  10  11
ENDBRANCH   9  10
ENDBRANCH   3   9
BRANCH   6  22
HETATM   22  C8  UNL     1      19.118 -12.195  18.079  1.00  0.00     0.131 C
BRANCH  22  23
HETATM   23  C9  UNL     1      20.329 -12.195  18.987  1.00  0.00     0.024 C
BRANCH  23  24
HETATM   24  C10 UNL     1      20.342 -13.456  19.862  1.00  0.00     0.028 C
BRANCH  24  25
HETATM   25  C11 UNL     1      21.001 -13.221  21.140  1.00  0.00    -0.030 C
HETATM   26  C12 UNL     1      20.526 -13.602  22.302  1.00  0.00    -0.020 C
BRANCH  26  27
HETATM   27  C13 UNL     1      19.263 -14.324  22.543  1.00  0.00     0.112 C
HETATM   28 BR1  UNL     1      18.872 -14.259  24.459  1.00  0.00    -0.092 Br
ENDBRANCH  26  27
ENDBRANCH  24  25
ENDBRANCH  23  24
ENDBRANCH  22  23
ENDBRANCH   6  22
TORSDOF 9
ENDMDL