MODEL 2
REMARK VINA RESULT: -5.952529204      4.375      7.028
REMARK  7 active torsions:
REMARK  status: ('A' for Active; 'I' for Inactive)
REMARK    1  A    between atoms: N1_2  and  C2_6
REMARK    2  A    between atoms: C2_6  and  C3_7
REMARK    3  A    between atoms: C3_7  and  C4_8
REMARK    4  A    between atoms: C4_8  and  C5_9
REMARK    5  A    between atoms: C5_9  and  C6_10
REMARK    6  A    between atoms: C6_10  and  N3_11
REMARK    7  A    between atoms: C9_16  and  O1_17
ROOT
HETATM    1  N3  UNL     1      19.098 -12.102  19.391  1.00  0.00    -0.394 N
ATOM      2  H3  UNL     1      19.506 -12.456  18.526  1.00  0.00     0.159 HD
HETATM    3  C7  UNL     1      17.841 -12.052  19.494  1.00  0.00     0.015 C
HETATM    4  C8  UNL     1      16.852 -12.460  18.473  1.00  0.00     0.134 C
HETATM    5 BR1  UNL     1      16.976 -11.365  16.869  1.00  0.00    -0.082 Br
HETATM    6  C9  UNL     1      15.482 -12.120  19.087  1.00  0.00     0.154 C
HETATM    7  C10 UNL     1      15.884 -10.938  19.947  1.00  0.00     0.108 C
HETATM    8 BR2  UNL     1      14.538 -10.354  21.138  1.00  0.00    -0.087 Br
HETATM    9  C11 UNL     1      17.088 -11.567  20.666  1.00  0.00     0.121 C
HETATM   10 BR3  UNL     1      16.473 -13.058  21.756  1.00  0.00    -0.084 Br
ENDROOT
BRANCH   1  11
HETATM   11  C6  UNL     1      19.985 -11.674  20.456  1.00  0.00     0.119 C
BRANCH  11  12
HETATM   12  C5  UNL     1      20.833 -12.886  20.792  1.00  0.00     0.020 C
BRANCH  12  13
HETATM   13  C4  UNL     1      20.233 -13.669  21.950  1.00  0.00     0.007 C
BRANCH  13  14
HETATM   14  C3  UNL     1      21.348 -13.861  22.935  1.00  0.00     0.046 C
BRANCH  14  15
HETATM   15  C2  UNL     1      20.950 -14.057  24.351  1.00  0.00     0.082 C
BRANCH  15  16
HETATM   16  N1  UNL     1      21.821 -13.577  25.336  1.00  0.00    -0.318 N
HETATM   17  C1  UNL     1      21.263 -12.944  26.497  1.00  0.00     0.176 C
HETATM   18  N2  UNL     1      23.042 -13.666  25.230  1.00  0.00    -0.344 N
ATOM     19  H22 UNL     1      23.677 -13.315  25.947  1.00  0.00     0.177 HD
ATOM     20  H21 UNL     1      23.439 -14.116  24.405  1.00  0.00     0.177 HD
ENDBRANCH  15  16
ENDBRANCH  14  15
ENDBRANCH  13  14
ENDBRANCH  12  13
ENDBRANCH  11  12
ENDBRANCH   1  11
BRANCH   6  21
HETATM   21  O1  UNL     1      14.587 -11.713  18.104  1.00  0.00    -0.393 OA
ATOM     22  H1  UNL     1      13.705 -12.000  18.310  1.00  0.00     0.210 HD
ENDBRANCH   6  21
TORSDOF 7
ENDMDL