MODEL 1
REMARK VINA RESULT: -7.087201228      0.000      0.000
REMARK  7 active torsions:
REMARK  status: ('A' for Active; 'I' for Inactive)
REMARK    1  A    between atoms: C2_2  and  C3_3
REMARK    2  A    between atoms: C3_3  and  N1_4
REMARK       I    between atoms: N1_4  and  C4_6
REMARK       I    between atoms: C4_6  and  N3_10
REMARK    3  A    between atoms: N3_10  and  C5_12
REMARK    4  A    between atoms: C5_12  and  C6_13
REMARK    5  A    between atoms: N4_15  and  C8_16
REMARK    6  A    between atoms: C8_16  and  C9_17
REMARK    7  A    between atoms: C10_18  and  C11_19
ROOT
HETATM    1  C6  UNL     1      15.712 -11.351  19.058  1.00  0.00     0.045 A
HETATM    2  C7  UNL     1      16.674 -11.323  20.072  1.00  0.00     0.119 A
HETATM    3  N4  UNL     1      17.970 -11.531  19.860  1.00  0.00    -0.337 N
HETATM    4  C12 UNL     1      18.354 -11.784  18.587  1.00  0.00     0.105 A
HETATM    5 BR2  UNL     1      20.198 -12.100  18.166  1.00  0.00    -0.029 Br
HETATM    6  C13 UNL     1      17.460 -11.825  17.547  1.00  0.00     0.042 A
HETATM    7  C14 UNL     1      17.896 -12.103  16.155  1.00  0.00     0.071 C
HETATM    8  N5  UNL     1      16.142 -11.605  17.809  1.00  0.00    -0.353 N
HETATM    9  C15 UNL     1      15.229 -11.653  16.713  1.00  0.00     0.156 C
ENDROOT
BRANCH   1  10
HETATM   10  C5  UNL     1      14.281 -11.113  19.331  1.00  0.00     0.196 C
BRANCH  10  11
HETATM   11  N3  UNL     1      14.035 -10.825  20.731  1.00  0.00    -0.221 N
HETATM   12  C4  UNL     1      12.947 -11.396  21.407  1.00  0.00     0.667 C
HETATM   13  N1  UNL     1      12.468 -10.951  22.663  1.00  0.00    -0.227 N
HETATM   14  N2  UNL     1      12.330 -12.404  20.853  1.00  0.00    -0.235 N
ATOM     15  H1  UNL     1      11.996 -11.606  23.287  1.00  0.00     0.177 HD
ATOM     16  H22 UNL     1      11.539 -12.820  21.345  1.00  0.00     0.174 HD
ATOM     17  H21 UNL     1      12.675 -12.725  19.948  1.00  0.00     0.174 HD
ATOM     18  H3  UNL     1      14.663 -10.197  21.232  1.00  0.00     0.178 HD
BRANCH  13  19
HETATM   19  C3  UNL     1      12.645  -9.573  23.067  1.00  0.00     0.137 C
BRANCH  19  20
HETATM   20  C2  UNL     1      11.721  -9.236  24.226  1.00  0.00     0.016 C
HETATM   21  C1  UNL     1      11.937  -7.814  24.664  1.00  0.00     0.006 C
ENDBRANCH  19  20
ENDBRANCH  13  19
ENDBRANCH  10  11
ENDBRANCH   1  10
BRANCH   3  22
HETATM   22  C8  UNL     1      18.993 -11.513  20.859  1.00  0.00     0.223 C
BRANCH  22  23
HETATM   23  C9  UNL     1      18.793 -12.653  21.738  1.00  0.00    -0.086 C
HETATM   24  C10 UNL     1      18.637 -13.611  22.455  1.00  0.00    -0.094 C
BRANCH  24  25
HETATM   25  C11 UNL     1      18.473 -14.780  23.322  1.00  0.00     0.178 C
HETATM   26 BR1  UNL     1      19.272 -14.475  25.069  1.00  0.00    -0.083 Br
ENDBRANCH  24  25
ENDBRANCH  22  23
ENDBRANCH   3  22
TORSDOF 7
ENDMDL