MODEL 4
REMARK VINA RESULT: -6.200210845      2.392      4.160
REMARK  5 active torsions:
REMARK  status: ('A' for Active; 'I' for Inactive)
REMARK    1  A    between atoms: C2_2  and  C3_3
REMARK    2  A    between atoms: C2_2  and  N2_6
REMARK       I    between atoms: N2_6  and  C5_8
REMARK       I    between atoms: C5_8  and  N5_13
REMARK    3  A    between atoms: N5_13  and  C7_15
REMARK    4  A    between atoms: N6_19  and  C11_20
REMARK    5  A    between atoms: C11_20  and  C12_21
ROOT
HETATM    1  C3  UNL     1     -25.238  53.688  51.611  1.00  0.00     0.149 C
HETATM    2  C4  UNL     1     -24.412  54.492  52.508  1.00  0.00     0.061 C
HETATM    3  N1  UNL     1     -23.744  55.120  53.230  1.00  0.00    -0.197 NA
ENDROOT
BRANCH   1   4
HETATM    4  C2  UNL     1     -24.418  52.470  51.229  1.00  0.00     0.108 C
HETATM    5  C1  UNL     1     -23.687  51.917  52.429  1.00  0.00     0.034 C
BRANCH   4   6
HETATM    6  N2  UNL     1     -25.242  51.446  50.628  1.00  0.00    -0.221 N
HETATM    7  C5  UNL     1     -25.352  51.317  49.227  1.00  0.00     0.685 C
HETATM    8  N3  UNL     1     -26.166  52.065  48.583  1.00  0.00    -0.126 N
HETATM    9  N5  UNL     1     -24.582  50.377  48.510  1.00  0.00    -0.195 N
HETATM   10  C6  UNL     1     -26.329  51.995  47.195  1.00  0.00     0.196 C
ATOM     11  H3  UNL     1     -26.721  52.743  49.104  1.00  0.00     0.197 HD
HETATM   12  N4  UNL     1     -26.452  51.951  46.028  1.00  0.00    -0.171 NA
ATOM     13  H5  UNL     1     -24.177  50.618  47.605  1.00  0.00     0.180 HD
ATOM     14  H2  UNL     1     -25.755  50.803  51.230  1.00  0.00     0.178 HD
BRANCH   9  15
HETATM   15  C7  UNL     1     -24.380  49.076  49.080  1.00  0.00     0.308 C
HETATM   16  C8  UNL     1     -24.961  47.966  48.193  1.00  0.00     0.040 C
HETATM   17  C9  UNL     1     -24.109  48.080  46.981  1.00  0.00     0.036 C
HETATM   18  C14 UNL     1     -24.457  46.772  48.999  1.00  0.00     0.036 C
HETATM   19  C10 UNL     1     -22.804  48.661  47.535  1.00  0.00     0.240 C
HETATM   20  N6  UNL     1     -22.977  48.640  48.966  1.00  0.00    -0.043 N
HETATM   21  C13 UNL     1     -23.073  47.273  49.388  1.00  0.00     0.240 C
BRANCH  20  22
HETATM   22  C11 UNL     1     -22.079  49.447  49.694  1.00  0.00     0.271 C
BRANCH  22  23
HETATM   23  C12 UNL     1     -21.815  48.872  51.062  1.00  0.00     0.250 C
HETATM   24  F1  UNL     1     -20.657  49.450  51.546  1.00  0.00    -0.254 F
ENDBRANCH  22  23
ENDBRANCH  20  22
ENDBRANCH   9  15
ENDBRANCH   4   6
ENDBRANCH   1   4
TORSDOF 5
ENDMDL