MODEL 2
REMARK VINA RESULT: -5.770394153      3.001      4.522
REMARK  6 active torsions:
REMARK  status: ('A' for Active; 'I' for Inactive)
REMARK    1  A    between atoms: O1_1  and  C1_3
REMARK    2  A    between atoms: C1_3  and  C2_4
REMARK    3  A    between atoms: C2_4  and  C3_5
REMARK    4  A    between atoms: C2_4  and  N2_14
REMARK    5  A    between atoms: C3_5  and  O2_6
REMARK    6  A    between atoms: C3_5  and  C4_8
ROOT
HETATM    1  C2  UNL     1     -22.673  48.605  50.124  1.00  0.00     0.141 C
ENDROOT
BRANCH   1   2
HETATM    2  C1  UNL     1     -22.152  48.526  48.694  1.00  0.00     0.192 C
BRANCH   2   3
HETATM    3  O1  UNL     1     -21.390  47.419  48.434  1.00  0.00    -0.399 OA
ATOM      4  H1  UNL     1     -21.583  46.998  47.604  1.00  0.00     0.209 HD
ENDBRANCH   2   3
ENDBRANCH   1   2
BRANCH   1   5
HETATM    5  C3  UNL     1     -21.554  48.749  51.112  1.00  0.00     0.188 C
BRANCH   5   6
HETATM    6  O2  UNL     1     -20.417  49.171  50.425  1.00  0.00    -0.388 OA
ATOM      7  H2  UNL     1     -20.242  50.073  50.667  1.00  0.00     0.210 HD
ENDBRANCH   5   6
BRANCH   5   8
HETATM    8  C4  UNL     1     -21.275  47.513  51.888  1.00  0.00     0.017 C
HETATM    9  N1  UNL     1     -20.139  46.996  52.081  1.00  0.00    -0.374 N
HETATM   10  C5  UNL     1     -20.165  45.819  52.856  1.00  0.00     0.061 C
ATOM     11  H1  UNL     1     -19.278  47.396  51.709  1.00  0.00     0.164 HD
HETATM   12  C6  UNL     1     -21.610  45.489  53.038  1.00  0.00     0.050 C
HETATM   13  C7  UNL     1     -22.326  46.708  52.563  1.00  0.00     0.060 C
ENDBRANCH   5   8
ENDBRANCH   1   5
BRANCH   1  14
HETATM   14  N2  UNL     1     -23.665  49.578  50.173  1.00  0.00    -0.383 N
HETATM   15  C8  UNL     1     -24.467  49.905  49.082  1.00  0.00     0.124 C
HETATM   16  C9  UNL     1     -25.475  50.888  49.707  1.00  0.00     0.041 C
HETATM   17  C10 UNL     1     -24.560  51.695  50.624  1.00  0.00     0.097 C
HETATM   18 BR1  UNL     1     -25.542  52.418  52.125  1.00  0.00    -0.086 Br
HETATM   19  C11 UNL     1     -23.625  50.611  51.131  1.00  0.00     0.074 C
ENDBRANCH   1  14
TORSDOF 6
ENDMDL