MODEL 2
REMARK VINA RESULT: -7.364083239      0.729      1.021
REMARK  4 active torsions:
REMARK  status: ('A' for Active; 'I' for Inactive)
REMARK    1  A    between atoms: C1_2  and  C2_4
REMARK    2  A    between atoms: C4_6  and  C5_7
REMARK       I    between atoms: N2_10  and  C6_11
REMARK    3  A    between atoms: C6_11  and  C7_13
REMARK    4  A    between atoms: C11_17  and  C12_18
ROOT
HETATM    1  C2  UNL     1     -23.751  48.713  49.469  1.00  0.00     0.095 C
HETATM    2  C3  UNL     1     -25.151  48.496  48.944  1.00  0.00     0.051 C
HETATM    3  C4  UNL     1     -25.810  49.835  48.925  1.00  0.00     0.189 C
HETATM    4  N2  UNL     1     -24.848  50.717  49.606  1.00  0.00    -0.336 N
HETATM    5  C6  UNL     1     -25.149  51.796  50.475  1.00  0.00     0.225 C
HETATM    6  O4  UNL     1     -26.357  52.049  50.701  1.00  0.00    -0.273 OA
HETATM    7  C13 UNL     1     -23.566  50.198  49.155  1.00  0.00     0.140 C
ENDROOT
BRANCH   3   8
HETATM    8  C5  UNL     1     -26.054  50.339  47.561  1.00  0.00     0.197 C
HETATM    9  O2  UNL     1     -26.493  51.494  47.347  1.00  0.00    -0.646 OA
HETATM   10  O3  UNL     1     -25.797  49.535  46.464  1.00  0.00    -0.646 OA
ENDBRANCH   3   8
BRANCH   5  11
HETATM   11  C7  UNL     1     -24.147  52.656  51.146  1.00  0.00     0.084 C
HETATM   12  C8  UNL     1     -23.679  51.925  52.373  1.00  0.00     0.014 C
HETATM   13  C9  UNL     1     -23.863  52.837  53.563  1.00  0.00     0.001 C
HETATM   14  C10 UNL     1     -24.075  54.223  52.991  1.00  0.00     0.008 C
HETATM   15  C11 UNL     1     -24.798  53.885  51.707  1.00  0.00     0.027 C
BRANCH  15  16
HETATM   16  C12 UNL     1     -24.717  55.076  50.788  1.00  0.00     0.227 C
HETATM   17  F1  UNL     1     -24.348  56.163  51.575  1.00  0.00    -0.255 F
ENDBRANCH  15  16
ENDBRANCH   5  11
BRANCH   1  18
HETATM   18  C1  UNL     1     -22.745  47.943  48.728  1.00  0.00     0.236 C
HETATM   19  N1  UNL     1     -21.778  47.195  49.447  1.00  0.00    -0.062 NA
HETATM   20  O1  UNL     1     -22.754  47.956  47.474  1.00  0.00    -0.276 OA
ENDBRANCH   1  18
TORSDOF 4
ENDMDL