MODEL 1
REMARK VINA RESULT: -6.507241218      0.000      0.000
REMARK  4 active torsions:
REMARK  status: ('A' for Active; 'I' for Inactive)
REMARK       I    between atoms: C2_2  and  N1_4
REMARK    1  A    between atoms: N1_4  and  C3_6
REMARK    2  A    between atoms: C3_6  and  C5_8
REMARK       I    between atoms: C5_8  and  N2_10
REMARK    3  A    between atoms: C8_13  and  C9_14
REMARK    4  A    between atoms: C11_18  and  C12_19
ROOT
HETATM    1  C5  UNL     1     -26.123  49.876  48.808  1.00  0.00     0.242 C
HETATM    2  O2  UNL     1     -27.132  49.160  49.039  1.00  0.00    -0.271 OA
HETATM    3  N2  UNL     1     -24.851  49.300  49.019  1.00  0.00    -0.340 N
HETATM    4  C6  UNL     1     -24.856  47.885  49.474  1.00  0.00     0.127 C
HETATM    5  C7  UNL     1     -24.172  47.062  48.385  1.00  0.00     0.035 C
HETATM    6  C8  UNL     1     -23.759  47.978  47.249  1.00  0.00     0.090 C
HETATM    7  C10 UNL     1     -22.826  49.016  47.777  1.00  0.00     0.047 C
HETATM    8  C11 UNL     1     -23.576  49.859  48.807  1.00  0.00     0.145 C
ENDROOT
BRANCH   1   9
HETATM    9  C3  UNL     1     -26.392  51.244  48.335  1.00  0.00     0.172 C
HETATM   10  C4  UNL     1     -25.847  51.491  46.916  1.00  0.00     0.042 C
BRANCH   9  11
HETATM   11  N1  UNL     1     -25.643  52.227  49.149  1.00  0.00    -0.348 N
HETATM   12  C2  UNL     1     -26.023  53.570  49.228  1.00  0.00     0.214 C
HETATM   13  C1  UNL     1     -25.252  54.520  50.051  1.00  0.00     0.117 C
HETATM   14  O1  UNL     1     -27.038  53.991  48.592  1.00  0.00    -0.274 OA
ATOM     15  H1  UNL     1     -24.824  51.915  49.670  1.00  0.00     0.163 HD
ENDBRANCH   9  11
ENDBRANCH   1   9
BRANCH   8  16
HETATM   16  C12 UNL     1     -22.650  50.141  49.909  1.00  0.00     0.090 C
HETATM   17  C13 UNL     1     -21.562  49.192  50.228  1.00  0.00     0.079 C
HETATM   18  F1  UNL     1     -23.246  50.598  51.094  1.00  0.00    -0.214 F
ENDBRANCH   8  16
BRANCH   6  19
HETATM   19  C9  UNL     1     -23.145  47.273  46.128  1.00  0.00     0.177 C
HETATM   20  O3  UNL     1     -23.871  46.732  45.262  1.00  0.00    -0.648 OA
HETATM   21  O4  UNL     1     -21.764  47.164  45.960  1.00  0.00    -0.648 OA
ENDBRANCH   6  19
TORSDOF 4
ENDMDL