MODEL 4
REMARK VINA RESULT: -6.627630679      3.651      6.227
REMARK  4 active torsions:
REMARK  status: ('A' for Active; 'I' for Inactive)
REMARK       I    between atoms: C1_2  and  N1_3
REMARK    1  A    between atoms: C1_2  and  C13_21
REMARK    2  A    between atoms: N1_3  and  C2_5
REMARK    3  A    between atoms: C2_5  and  C3_6
REMARK    4  A    between atoms: C5_8  and  N2_9
ROOT
HETATM    1  C3  UNL     1     -21.672  48.056  50.100  1.00  0.00     0.205 C
HETATM    2  C4  UNL     1     -23.127  47.833  49.831  1.00  0.00     0.061 C
HETATM    3  C5  UNL     1     -23.737  49.198  49.720  1.00  0.00     0.112 C
HETATM    4  C12 UNL     1     -22.616  50.108  50.162  1.00  0.00     0.257 C
HETATM    5  N3  UNL     1     -21.433  49.427  49.700  1.00  0.00    -0.067 N
ATOM      6  H31 UNL     1     -21.230  49.552  48.707  1.00  0.00     0.277 HD
ATOM      7  H32 UNL     1     -20.555  49.822  50.036  1.00  0.00     0.277 HD
ENDROOT
BRANCH   1   8
HETATM    8  C2  UNL     1     -21.287  47.895  51.530  1.00  0.00     0.155 C
BRANCH   8   9
HETATM    9  N1  UNL     1     -22.272  47.230  52.328  1.00  0.00    -0.359 N
HETATM   10  C1  UNL     1     -21.915  46.079  53.059  1.00  0.00     0.221 C
HETATM   11  O1  UNL     1     -20.751  45.631  53.019  1.00  0.00    -0.273 OA
ATOM     12  H1  UNL     1     -23.226  47.587  52.367  1.00  0.00     0.162 HD
BRANCH  10  13
HETATM   13  C13 UNL     1     -22.923  45.385  53.886  1.00  0.00     0.078 A
HETATM   14  C14 UNL     1     -23.683  46.186  54.908  1.00  0.00     0.015 A
HETATM   15  C15 UNL     1     -24.341  45.755  53.649  1.00  0.00     0.015 A
ENDBRANCH  10  13
ENDBRANCH   8   9
ENDBRANCH   1   8
BRANCH   3  16
HETATM   16  N2  UNL     1     -24.192  49.600  48.466  1.00  0.00    -0.375 N
HETATM   17  C6  UNL     1     -23.883  48.872  47.308  1.00  0.00     0.096 C
HETATM   18  C7  UNL     1     -24.417  49.773  46.201  1.00  0.00     0.210 C
HETATM   19  F1  UNL     1     -23.327  50.449  45.675  1.00  0.00    -0.244 F
HETATM   20  C8  UNL     1     -25.296  50.800  46.879  1.00  0.00     0.073 C
HETATM   21  C9  UNL     1     -25.454  50.164  48.274  1.00  0.00     0.035 A
HETATM   22  C10 UNL     1     -26.760  49.616  48.618  1.00  0.00     0.033 A
HETATM   23  C11 UNL     1     -26.220  50.892  49.304  1.00  0.00     0.033 A
ENDBRANCH   3  16
TORSDOF 4
ENDMDL