MODEL 5
REMARK VINA RESULT: -6.395207357      2.014      2.106
REMARK  4 active torsions:
REMARK  status: ('A' for Active; 'I' for Inactive)
REMARK    1  A    between atoms: C2_2  and  C3_4
REMARK       I    between atoms: C3_4  and  N1_6
REMARK    2  A    between atoms: N1_6  and  N2_8
REMARK    3  A    between atoms: C4_10  and  C5_11
REMARK    4  A    between atoms: C4_10  and  C6_14
ROOT
HETATM    1  N2  UNL     1     -23.972  51.306  50.337  1.00  0.00    -0.297 N
ATOM      2  H2  UNL     1     -23.394  51.739  51.058  1.00  0.00     0.187 HD
HETATM    3  C4  UNL     1     -25.108  51.861  50.109  1.00  0.00     0.094 C
ENDROOT
BRANCH   1   4
HETATM    4  N1  UNL     1     -23.447  50.194  49.719  1.00  0.00    -0.269 N
HETATM    5  C3  UNL     1     -22.991  49.059  50.444  1.00  0.00     0.250 C
HETATM    6  O1  UNL     1     -23.085  49.103  51.697  1.00  0.00    -0.271 OA
ATOM      7  H1  UNL     1     -23.384  50.184  48.701  1.00  0.00     0.190 HD
BRANCH   5   8
HETATM    8  C2  UNL     1     -22.425  47.866  49.768  1.00  0.00     0.147 C
HETATM    9  C1  UNL     1     -21.019  47.546  50.286  1.00  0.00     0.032 C
HETATM   10 BR1  UNL     1     -22.364  48.245  47.874  1.00  0.00    -0.082 Br
ENDBRANCH   5   8
ENDBRANCH   1   4
BRANCH   3  11
HETATM   11  C5  UNL     1     -26.067  51.399  49.131  1.00  0.00     0.279 C
HETATM   12  N3  UNL     1     -26.544  50.067  49.136  1.00  0.00    -0.056 NA
HETATM   13  O2  UNL     1     -26.483  52.205  48.255  1.00  0.00    -0.270 OA
ENDBRANCH   3  11
BRANCH   3  14
HETATM   14  C6  UNL     1     -25.450  53.068  50.920  1.00  0.00     0.042 C
HETATM   15  C7  UNL     1     -24.712  54.292  50.421  1.00  0.00     0.011 C
HETATM   16  C8  UNL     1     -24.641  55.126  51.702  1.00  0.00     0.001 C
HETATM   17  C9  UNL     1     -24.138  54.089  52.687  1.00  0.00     0.001 C
HETATM   18  C10 UNL     1     -25.008  52.897  52.362  1.00  0.00     0.011 C
ENDBRANCH   3  14
TORSDOF 4
ENDMDL