MODEL 2
REMARK VINA RESULT: -5.718169562      3.810      5.294
REMARK  7 active torsions:
REMARK  status: ('A' for Active; 'I' for Inactive)
REMARK    1  A    between atoms: C2_2  and  N1_3
REMARK    2  A    between atoms: C2_2  and  C3_7
REMARK    3  A    between atoms: C3_7  and  N2_8
REMARK    4  A    between atoms: N3_13  and  C7_14
REMARK    5  A    between atoms: C7_14  and  O1_15
REMARK    6  A    between atoms: C7_14  and  C8_17
REMARK    7  A    between atoms: C11_20  and  C12_21
ROOT
HETATM    1  N2  UNL     1     -22.959  49.703  50.661  1.00  0.00    -0.344 N
HETATM    2  C4  UNL     1     -23.989  49.938  49.863  1.00  0.00    -0.068 C
HETATM    3  C5  UNL     1     -25.147  50.204  49.094  1.00  0.00     0.164 C
HETATM    4  C6  UNL     1     -25.988  51.202  50.008  1.00  0.00     0.289 C
HETATM    5  F1  UNL     1     -26.782  51.967  49.325  1.00  0.00    -0.225 F
HETATM    6  N3  UNL     1     -25.057  51.772  50.986  1.00  0.00    -0.295 N
HETATM    7  C11 UNL     1     -24.381  51.141  52.088  1.00  0.00     0.100 C
HETATM    8  C13 UNL     1     -23.043  50.543  51.886  1.00  0.00     0.194 C
ENDROOT
BRANCH   1   9
HETATM    9  C3  UNL     1     -21.888  48.894  50.494  1.00  0.00     0.164 C
BRANCH   9  10
HETATM   10  C2  UNL     1     -21.786  47.895  51.655  1.00  0.00     0.198 C
HETATM   11  C1  UNL     1     -22.443  46.581  51.287  1.00  0.00     0.041 C
BRANCH  10  12
HETATM   12  N1  UNL     1     -20.389  47.606  51.916  1.00  0.00    -0.074 N
ATOM     13  H13 UNL     1     -20.134  47.705  52.899  1.00  0.00     0.274 HD
ATOM     14  H12 UNL     1     -20.159  46.616  51.822  1.00  0.00     0.274 HD
ATOM     15  H11 UNL     1     -19.844  48.205  51.296  1.00  0.00     0.274 HD
ENDBRANCH  10  12
ENDBRANCH   9  10
ENDBRANCH   1   9
BRANCH   7  16
HETATM   16  C12 UNL     1     -24.447  51.838  53.363  1.00  0.00     0.279 C
HETATM   17  N4  UNL     1     -23.466  52.659  53.971  1.00  0.00    -0.056 NA
HETATM   18  O2  UNL     1     -25.532  51.710  54.039  1.00  0.00    -0.270 OA
ENDBRANCH   7  16
BRANCH   6  19
HETATM   19  C7  UNL     1     -24.761  53.115  50.773  1.00  0.00     0.123 C
BRANCH  19  20
HETATM   20  O1  UNL     1     -23.567  53.329  50.273  1.00  0.00    -0.349 OA
ATOM     21  H1  UNL     1     -23.468  53.052  49.369  1.00  0.00     0.219 HD
ENDBRANCH  19  20
BRANCH  19  22
HETATM   22  C8  UNL     1     -25.490  54.352  50.981  1.00  0.00     0.052 C
HETATM   23  C9  UNL     1     -26.047  55.036  49.786  1.00  0.00     0.018 C
HETATM   24  C10 UNL     1     -24.581  55.418  51.666  1.00  0.00     0.018 C
ENDBRANCH  19  22
ENDBRANCH   6  19
TORSDOF 7
ENDMDL