MODEL 3
REMARK VINA RESULT: -7.024141151      1.431      1.649
REMARK  4 active torsions:
REMARK  status: ('A' for Active; 'I' for Inactive)
REMARK    1  A    between atoms: C8_10  and  C9_11
REMARK       I    between atoms: C9_11  and  N1_13
REMARK    2  A    between atoms: N1_13  and  C10_15
REMARK    3  A    between atoms: C10_15  and  C11_16
REMARK       I    between atoms: C11_16  and  N2_18
REMARK    4  A    between atoms: N2_18  and  C12_20
ROOT
HETATM    1  C1  UNL     1     -23.873  52.832  54.761  1.00  0.00     0.015 C
HETATM    2  C2  UNL     1     -24.365  52.784  53.661  1.00  0.00    -0.073 C
HETATM    3  C3  UNL     1     -24.960  52.730  52.309  1.00  0.00     0.168 C
HETATM    4  F1  UNL     1     -26.137  53.418  52.247  1.00  0.00    -0.229 F
HETATM    5  C4  UNL     1     -23.991  53.299  51.298  1.00  0.00     0.090 C
HETATM    6  C5  UNL     1     -24.387  52.557  50.038  1.00  0.00     0.143 C
HETATM    7  O1  UNL     1     -25.572  53.075  49.573  1.00  0.00    -0.384 OA
HETATM    8  C6  UNL     1     -26.066  52.033  48.772  1.00  0.00     0.169 C
HETATM    9  C7  UNL     1     -25.865  50.785  49.603  1.00  0.00     0.048 C
HETATM   10  C8  UNL     1     -24.711  51.161  50.494  1.00  0.00     0.073 C
HETATM   11  C15 UNL     1     -25.094  51.278  51.935  1.00  0.00     0.079 C
ENDROOT
BRANCH  10  12
HETATM   12  C9  UNL     1     -23.521  50.299  50.276  1.00  0.00     0.229 C
HETATM   13  O2  UNL     1     -23.301  49.840  49.120  1.00  0.00    -0.273 OA
HETATM   14  N1  UNL     1     -22.622  49.979  51.333  1.00  0.00    -0.352 N
ATOM     15  H1  UNL     1     -22.775  50.336  52.276  1.00  0.00     0.162 HD
BRANCH  14  16
HETATM   16  C10 UNL     1     -21.488  49.134  51.036  1.00  0.00     0.225 C
BRANCH  16  17
HETATM   17  C11 UNL     1     -21.552  47.839  51.745  1.00  0.00     0.235 C
HETATM   18  O3  UNL     1     -20.676  46.982  51.460  1.00  0.00    -0.272 OA
HETATM   19  N2  UNL     1     -22.573  47.610  52.700  1.00  0.00    -0.356 N
ATOM     20  H2  UNL     1     -23.263  48.333  52.901  1.00  0.00     0.162 HD
BRANCH  19  21
HETATM   21  C12 UNL     1     -22.624  46.343  53.382  1.00  0.00     0.076 C
HETATM   22  C13 UNL     1     -23.518  45.421  52.572  1.00  0.00     0.032 C
HETATM   23  C14 UNL     1     -23.151  46.487  54.798  1.00  0.00     0.032 C
ENDBRANCH  19  21
ENDBRANCH  16  17
ENDBRANCH  14  16
ENDBRANCH  10  12
TORSDOF 4
ENDMDL