MODEL 5
REMARK VINA RESULT: -5.357367651      7.053      8.896
REMARK  4 active torsions:
REMARK  status: ('A' for Active; 'I' for Inactive)
REMARK    1  A    between atoms: C3_3  and  C4_4
REMARK    2  A    between atoms: C4_4  and  C6_6
REMARK    3  A    between atoms: C4_4  and  C7_9
REMARK    4  A    between atoms: C10_15  and  C12_17
ROOT
HETATM    1  C7  UNL     1     -30.479  52.081  43.303  1.00  0.00     0.193 C
HETATM    2  O2  UNL     1     -29.791  53.229  43.791  1.00  0.00    -0.353 OA
HETATM    3  C8  UNL     1     -28.601  53.255  43.024  1.00  0.00     0.427 C
HETATM    4  N2  UNL     1     -28.255  51.880  43.052  1.00  0.00     0.053 N
HETATM    5  C9  UNL     1     -27.106  51.462  42.386  1.00  0.00     0.299 C
HETATM    6 CL1  UNL     1     -28.117  51.413  44.747  1.00  0.00     0.121 Cl
HETATM    7  C10 UNL     1     -29.514  51.249  42.596  1.00  0.00     0.259 C
HETATM    8  C11 UNL     1     -29.425  49.843  43.229  1.00  0.00     0.064 C
ENDROOT
BRANCH   1   9
HETATM    9  C4  UNL     1     -31.730  52.565  42.729  1.00  0.00     0.081 C
HETATM   10  C5  UNL     1     -32.610  52.842  43.994  1.00  0.00     0.032 C
BRANCH   9  11
HETATM   11  C3  UNL     1     -31.729  53.855  42.034  1.00  0.00    -0.010 C
HETATM   12  C2  UNL     1     -32.237  54.994  42.486  1.00  0.00    -0.034 C
HETATM   13  C1  UNL     1     -32.197  56.247  41.724  1.00  0.00     0.036 C
ENDBRANCH   9  11
BRANCH   9  14
HETATM   14  C6  UNL     1     -32.560  51.599  41.989  1.00  0.00     0.245 C
HETATM   15  N1  UNL     1     -32.988  50.352  42.499  1.00  0.00    -0.061 NA
HETATM   16  O1  UNL     1     -32.924  51.887  40.822  1.00  0.00    -0.276 OA
ENDBRANCH   9  14
ENDBRANCH   1   9
BRANCH   7  17
HETATM   17  C12 UNL     1     -29.574  51.118  41.159  1.00  0.00     0.215 C
HETATM   18  O3  UNL     1     -29.431  52.077  40.325  1.00  0.00    -0.646 OA
HETATM   19  O4  UNL     1     -29.798  49.880  40.578  1.00  0.00    -0.646 OA
ENDBRANCH   7  17
TORSDOF 4
ENDMDL