MODEL 5
REMARK VINA RESULT: -6.111619647      4.437      7.503
REMARK  4 active torsions:
REMARK  status: ('A' for Active; 'I' for Inactive)
REMARK    1  A    between atoms: O1_2  and  C2_3
REMARK    2  A    between atoms: C2_3  and  N1_4
REMARK    3  A    between atoms: C7_9  and  N2_10
REMARK       I    between atoms: N2_10  and  C8_12
REMARK       I    between atoms: C8_12  and  N3_14
REMARK    4  A    between atoms: N3_14  and  C9_16
ROOT
HETATM    1  C9  UNL     1     -27.889  51.559  44.719  1.00  0.00     0.189 C
HETATM    2  C10 UNL     1     -26.835  51.856  43.679  1.00  0.00     0.048 C
HETATM    3  C11 UNL     1     -29.213  51.730  44.094  1.00  0.00     0.084 C
HETATM    4  N4  UNL     1     -30.251  51.881  43.595  1.00  0.00    -0.195 NA
ENDROOT
BRANCH   1   5
HETATM    5  N3  UNL     1     -27.714  52.457  45.837  1.00  0.00    -0.326 N
HETATM    6  C8  UNL     1     -26.708  52.248  46.813  1.00  0.00     0.317 C
HETATM    7  N2  UNL     1     -26.541  53.130  47.903  1.00  0.00    -0.335 N
HETATM    8  O2  UNL     1     -25.935  51.262  46.729  1.00  0.00    -0.247 OA
ATOM      9  H2  UNL     1     -27.171  53.929  47.966  1.00  0.00     0.164 HD
ATOM     10  H3  UNL     1     -28.331  53.265  45.926  1.00  0.00     0.165 HD
BRANCH   7  11
HETATM   11  C7  UNL     1     -25.546  52.981  48.927  1.00  0.00     0.127 C
HETATM   12  C5  UNL     1     -25.933  51.975  49.982  1.00  0.00     0.039 C
HETATM   13  C4  UNL     1     -24.736  51.075  50.205  1.00  0.00     0.036 C
HETATM   14  C6  UNL     1     -26.050  52.583  51.347  1.00  0.00     0.247 C
HETATM   15  C3  UNL     1     -23.932  51.868  51.238  1.00  0.00     0.240 C
HETATM   16  N1  UNL     1     -24.689  53.053  51.549  1.00  0.00    -0.043 N
HETATM   17  C13 UNL     1     -24.342  54.154  50.681  1.00  0.00     0.279 C
HETATM   18  C12 UNL     1     -25.297  54.348  49.527  1.00  0.00     0.219 C
HETATM   19  F1  UNL     1     -26.414  55.059  49.810  1.00  0.00    -0.245 F
BRANCH  16  20
HETATM   20  C2  UNL     1     -24.606  53.426  52.941  1.00  0.00     0.404 C
BRANCH  20  21
HETATM   21  O1  UNL     1     -23.543  52.957  53.641  1.00  0.00    -0.369 OA
HETATM   22  C1  UNL     1     -23.761  52.462  54.892  1.00  0.00     0.203 C
ENDBRANCH  20  21
ENDBRANCH  16  20
ENDBRANCH   7  11
ENDBRANCH   1   5
TORSDOF 4
ENDMDL