MODEL 5
REMARK VINA RESULT: -4.175364595      1.361      4.284
REMARK  5 active torsions:
REMARK  status: ('A' for Active; 'I' for Inactive)
REMARK    1  A    between atoms: C2_2  and  C4_4
REMARK    2  A    between atoms: C4_4  and  N1_5
REMARK    3  A    between atoms: C4_4  and  C5_9
REMARK    4  A    between atoms: C5_9  and  N2_10
REMARK    5  A    between atoms: C5_9  and  N3_14
ROOT
HETATM    1  C5  UNL     1      -2.084  31.072 -11.010  1.00  0.00     0.447 C
ENDROOT
BRANCH   1   2
HETATM    2  C4  UNL     1      -2.904  30.584  -9.907  1.00  0.00     0.247 C
BRANCH   2   3
HETATM    3  C2  UNL     1      -2.069  30.198  -8.721  1.00  0.00     0.012 C
HETATM    4  C1  UNL     1      -2.648  30.799  -7.433  1.00  0.00     0.012 C
HETATM    5  C3  UNL     1      -1.946  28.737  -8.447  1.00  0.00     0.012 C
ENDBRANCH   2   3
BRANCH   2   6
HETATM    6  N1  UNL     1      -3.891  31.543  -9.429  1.00  0.00    -0.071 N
ATOM      7  H13 UNL     1      -3.858  32.435  -9.923  1.00  0.00     0.274 HD
ATOM      8  H12 UNL     1      -4.848  31.293  -9.678  1.00  0.00     0.274 HD
ATOM      9  H11 UNL     1      -3.747  31.634  -8.424  1.00  0.00     0.274 HD
ENDBRANCH   2   6
ENDBRANCH   1   2
BRANCH   1  10
HETATM   10  N2  UNL     1      -0.684  30.923 -10.711  1.00  0.00    -0.045 N
ATOM     11  H23 UNL     1      -0.530  30.698  -9.728  1.00  0.00     0.277 HD
ATOM     12  H22 UNL     1      -0.299  30.074 -11.124  1.00  0.00     0.277 HD
ATOM     13  H21 UNL     1      -0.162  31.752 -10.996  1.00  0.00     0.277 HD
ENDBRANCH   1  10
BRANCH   1  14
HETATM   14  N3  UNL     1      -2.301  30.496 -12.304  1.00  0.00     0.121 N
HETATM   15  C6  UNL     1      -3.322  29.477 -12.118  1.00  0.00     0.275 C
HETATM   16  C7  UNL     1      -3.213  28.508 -13.240  1.00  0.00     0.032 C
HETATM   17  C8  UNL     1      -1.840  28.751 -13.784  1.00  0.00     0.032 C
HETATM   18  C9  UNL     1      -1.202  29.790 -12.858  1.00  0.00     0.275 C
ENDBRANCH   1  14
TORSDOF 5
ENDMDL