MODEL 1
REMARK VINA RESULT: -5.594614008      0.000      0.000
REMARK  3 active torsions:
REMARK  status: ('A' for Active; 'I' for Inactive)
REMARK    1  A    between atoms: C4_4  and  N1_5
REMARK    2  A    between atoms: N1_5  and  C5_7
REMARK    3  A    between atoms: C5_7  and  C6_8
ROOT
HETATM    1  C6  UNL     1      -3.119  29.728  -4.868  1.00  0.00     0.028 C
HETATM    2  C7  UNL     1      -2.662  29.487  -3.482  1.00  0.00     0.009 C
HETATM    3  C8  UNL     1      -2.502  30.811  -2.788  1.00  0.00     0.028 C
HETATM    4  C9  UNL     1      -3.861  31.467  -2.729  1.00  0.00     0.232 C
HETATM    5  N2  UNL     1      -4.459  31.598  -4.038  1.00  0.00    -0.075 N
ATOM      6  H21 UNL     1      -4.755  32.559  -4.208  1.00  0.00     0.277 HD
ATOM      7  H22 UNL     1      -5.366  31.135  -4.072  1.00  0.00     0.277 HD
HETATM    8  C10 UNL     1      -3.602  31.128  -5.099  1.00  0.00     0.238 C
ENDROOT
BRANCH   1   9
HETATM    9  C5  UNL     1      -1.987  29.502  -5.936  1.00  0.00     0.120 C
BRANCH   9  10
HETATM   10  N1  UNL     1      -2.344  30.095  -7.156  1.00  0.00    -0.416 N
ATOM     11  H1  UNL     1      -2.954  30.913  -7.168  1.00  0.00     0.153 HD
BRANCH  10  12
HETATM   12  C4  UNL     1      -1.859  29.558  -8.369  1.00  0.00     0.080 A
HETATM   13  C2  UNL     1      -2.193  30.373  -9.663  1.00  0.00     0.006 A
HETATM   14  C1  UNL     1      -2.881  31.656  -9.436  1.00  0.00     0.012 C
HETATM   15  C3  UNL     1      -2.866  29.071  -9.366  1.00  0.00     0.031 A
ENDBRANCH  10  12
ENDBRANCH   9  10
ENDBRANCH   1   9
TORSDOF 3
ENDMDL