MODEL 3
REMARK VINA RESULT: -5.251747518      1.752      4.737
REMARK  3 active torsions:
REMARK  status: ('A' for Active; 'I' for Inactive)
REMARK    1  A    between atoms: C2_2  and  C3_3
REMARK    2  A    between atoms: C3_3  and  N1_4
REMARK    3  A    between atoms: N1_4  and  C4_6
ROOT
HETATM    1  C4  UNL     1      -2.565  30.179 -11.316  1.00  0.00     0.088 C
HETATM    2  C5  UNL     1      -1.970  31.283 -10.536  1.00  0.00     0.041 C
HETATM    3  C6  UNL     1      -0.930  30.721  -9.550  1.00  0.00     0.041 C
HETATM    4  C7  UNL     1      -1.814  30.062  -8.526  1.00  0.00     0.187 C
HETATM    5  C8  UNL     1      -2.746  29.025  -9.142  1.00  0.00     0.041 C
HETATM    6  C9  UNL     1      -3.493  29.918 -10.133  1.00  0.00     0.041 C
HETATM    7  C10 UNL     1      -3.212  31.323  -9.688  1.00  0.00     0.198 C
HETATM    8  N2  UNL     1      -2.785  31.148  -8.296  1.00  0.00    -0.066 N
ATOM      9  H21 UNL     1      -2.441  31.977  -7.811  1.00  0.00     0.278 HD
ATOM     10  H22 UNL     1      -3.518  30.971  -7.608  1.00  0.00     0.278 HD
ENDROOT
BRANCH   1  11
HETATM   11  N1  UNL     1      -3.281  30.395 -12.494  1.00  0.00    -0.416 N
ATOM     12  H1  UNL     1      -3.424  31.347 -12.831  1.00  0.00     0.153 HD
BRANCH  11  13
HETATM   13  C3  UNL     1      -3.810  29.310 -13.224  1.00  0.00     0.113 C
BRANCH  13  14
HETATM   14  C2  UNL     1      -2.596  28.460 -13.639  1.00  0.00     0.015 C
HETATM   15  C1  UNL     1      -2.940  27.003 -13.713  1.00  0.00     0.006 C
ENDBRANCH  13  14
ENDBRANCH  11  13
ENDBRANCH   1  11
TORSDOF 3
ENDMDL