MODEL 4
REMARK VINA RESULT: -5.321735134      0.998      1.501
REMARK  3 active torsions:
REMARK  status: ('A' for Active; 'I' for Inactive)
REMARK    1  A    between atoms: C3_3  and  N1_4
REMARK    2  A    between atoms: N1_4  and  C4_7
REMARK    3  A    between atoms: C4_7  and  C5_8
ROOT
HETATM    1  C1  UNL     1      -0.432  30.057 -13.761  1.00  0.00     0.013 C
HETATM    2  C2  UNL     1      -1.429  29.365 -13.677  1.00  0.00    -0.090 C
HETATM    3  C3  UNL     1      -2.590  28.511 -13.549  1.00  0.00     0.324 C
ENDROOT
BRANCH   3   4
HETATM    4  N1  UNL     1      -3.562  29.042 -12.615  1.00  0.00    -0.064 N
ATOM      5  H12 UNL     1      -4.485  29.159 -13.033  1.00  0.00     0.278 HD
ATOM      6  H11 UNL     1      -3.821  28.369 -11.893  1.00  0.00     0.278 HD
BRANCH   4   7
HETATM    7  C4  UNL     1      -3.039  30.274 -12.066  1.00  0.00     0.244 C
BRANCH   7   8
HETATM    8  C5  UNL     1      -2.802  30.192 -10.614  1.00  0.00     0.009 C
HETATM    9  C6  UNL     1      -3.308  28.973  -9.917  1.00  0.00     0.015 C
HETATM   10  C7  UNL     1      -2.490  28.956  -8.619  1.00  0.00     0.034 C
HETATM   11  C8  UNL     1      -1.716  30.256  -8.645  1.00  0.00     0.186 C
HETATM   12  C9  UNL     1      -1.375  30.291 -10.154  1.00  0.00     0.046 C
HETATM   13  N2  UNL     1      -2.689  31.328  -8.570  1.00  0.00    -0.070 N
HETATM   14  C10 UNL     1      -3.393  31.368  -9.842  1.00  0.00     0.243 C
ATOM     15  H22 UNL     1      -3.316  31.242  -7.771  1.00  0.00     0.277 HD
ATOM     16  H21 UNL     1      -2.273  32.225  -8.317  1.00  0.00     0.277 HD
ENDBRANCH   7   8
ENDBRANCH   4   7
ENDBRANCH   3   4
TORSDOF 3
ENDMDL