MODEL 4
REMARK VINA RESULT: -4.876200656      1.357      4.608
REMARK  3 active torsions:
REMARK  status: ('A' for Active; 'I' for Inactive)
REMARK    1  A    between atoms: C2_2  and  C3_3
REMARK    2  A    between atoms: C3_3  and  N1_4
REMARK    3  A    between atoms: C6_7  and  N2_8
ROOT
HETATM    1  N1  UNL     1      -2.056  30.333  -9.937  1.00  0.00    -0.370 N
HETATM    2  C4  UNL     1      -1.435  30.723 -11.130  1.00  0.00     0.065 C
HETATM    3  C5  UNL     1      -1.782  29.898 -12.339  1.00  0.00     0.078 C
HETATM    4  C6  UNL     1      -3.258  29.677 -12.470  1.00  0.00     0.194 C
HETATM    5  C8  UNL     1      -3.742  29.044 -11.175  1.00  0.00     0.078 C
HETATM    6  C9  UNL     1      -3.364  29.841  -9.956  1.00  0.00     0.065 C
ENDROOT
BRANCH   4   7
HETATM    7  N2  UNL     1      -3.533  28.702 -13.510  1.00  0.00    -0.074 N
HETATM    8  C7  UNL     1      -2.351  28.008 -13.951  1.00  0.00     0.267 C
ATOM      9  H22 UNL     1      -4.254  28.044 -13.213  1.00  0.00     0.277 HD
ATOM     10  H21 UNL     1      -4.017  29.134 -14.297  1.00  0.00     0.277 HD
ENDBRANCH   4   7
BRANCH   1  11
HETATM   11  C3  UNL     1      -1.261  30.168  -8.781  1.00  0.00     0.153 C
BRANCH  11  12
HETATM   12  C2  UNL     1      -1.885  29.196  -7.850  1.00  0.00    -0.017 C
HETATM   13  C1  UNL     1      -1.940  29.409  -6.567  1.00  0.00     0.008 C
ENDBRANCH  11  12
ENDBRANCH   1  11
TORSDOF 3
ENDMDL