MODEL 1
REMARK VINA RESULT: -5.770781010      0.000      0.000
REMARK  4 active torsions:
REMARK  status: ('A' for Active; 'I' for Inactive)
REMARK    1  A    between atoms: C2_2  and  N1_3
REMARK    2  A    between atoms: N1_3  and  N2_5
REMARK    3  A    between atoms: C3_7  and  C4_8
REMARK    4  A    between atoms: C4_8  and  N3_9
ROOT
HETATM    1  N2  UNL     1      -2.644  29.251  -7.312  1.00  0.00    -0.319 N
ATOM      2  H2  UNL     1      -3.045  28.413  -6.892  1.00  0.00     0.185 HD
HETATM    3  C3  UNL     1      -2.167  29.124  -8.487  1.00  0.00     0.100 C
ENDROOT
BRANCH   3   4
HETATM    4  C4  UNL     1      -1.565  30.261  -9.195  1.00  0.00     0.172 C
BRANCH   4   5
HETATM    5  N3  UNL     1      -2.203  30.510 -10.437  1.00  0.00    -0.369 N
HETATM    6  C5  UNL     1      -3.509  30.011 -10.619  1.00  0.00     0.063 C
HETATM    7  C6  UNL     1      -3.942  29.912 -12.056  1.00  0.00     0.045 C
HETATM    8  C7  UNL     1      -2.913  29.283 -12.939  1.00  0.00     0.010 C
HETATM    9  C8  UNL     1      -1.501  29.739 -12.665  1.00  0.00     0.045 C
HETATM   10  C9  UNL     1      -1.420  30.765 -11.569  1.00  0.00     0.063 C
ENDBRANCH   4   5
ENDBRANCH   3   4
BRANCH   1  11
HETATM   11  N1  UNL     1      -2.679  30.405  -6.540  1.00  0.00    -0.337 N
ATOM     12  H1  UNL     1      -2.439  31.314  -6.938  1.00  0.00     0.180 HD
BRANCH  11  13
HETATM   13  C2  UNL     1      -3.072  30.274  -5.138  1.00  0.00     0.135 C
HETATM   14  C1  UNL     1      -3.799  31.529  -4.705  1.00  0.00     0.028 C
ENDBRANCH  11  13
ENDBRANCH   1  11
TORSDOF 4
ENDMDL