MODEL 2
REMARK VINA RESULT: -5.117438574      2.184      4.974
REMARK  3 active torsions:
REMARK  status: ('A' for Active; 'I' for Inactive)
REMARK    1  A    between atoms: C2_2  and  C3_3
REMARK    2  A    between atoms: C3_3  and  C4_4
REMARK    3  A    between atoms: C4_4  and  C5_5
ROOT
HETATM    1  C5  UNL     1      -3.811  29.810 -11.314  1.00  0.00     0.192 C
HETATM    2  N1  UNL     1      -3.664  28.465 -10.777  1.00  0.00    -0.070 N
ATOM      3  H11 UNL     1      -3.042  27.846 -11.297  1.00  0.00     0.277 HD
ATOM      4  H12 UNL     1      -4.480  27.859 -10.868  1.00  0.00     0.277 HD
HETATM    5  C6  UNL     1      -3.252  28.777  -9.406  1.00  0.00     0.239 C
HETATM    6  C7  UNL     1      -2.101  29.702  -9.653  1.00  0.00     0.044 C
HETATM    7  C8  UNL     1      -1.785  30.609  -8.511  1.00  0.00     0.239 C
HETATM    8  N2  UNL     1      -2.850  31.578  -8.560  1.00  0.00    -0.074 N
ATOM      9  H21 UNL     1      -2.627  32.437  -8.059  1.00  0.00     0.277 HD
ATOM     10  H22 UNL     1      -3.661  31.305  -8.005  1.00  0.00     0.277 HD
HETATM   11  C9  UNL     1      -3.171  31.804  -9.939  1.00  0.00     0.239 C
HETATM   12  C10 UNL     1      -2.667  30.612 -10.724  1.00  0.00     0.049 C
ENDROOT
BRANCH   1  13
HETATM   13  C4  UNL     1      -3.795  29.822 -12.814  1.00  0.00     0.037 C
BRANCH  13  14
HETATM   14  C3  UNL     1      -3.214  28.510 -13.276  1.00  0.00     0.028 C
BRANCH  14  15
HETATM   15  C2  UNL     1      -1.974  28.731 -14.071  1.00  0.00    -0.037 C
HETATM   16  C1  UNL     1      -0.986  29.454 -13.527  1.00  0.00     0.007 C
ENDBRANCH  14  15
ENDBRANCH  13  14
ENDBRANCH   1  13
TORSDOF 3
ENDMDL