MODEL 1
REMARK VINA RESULT: -5.891939781      0.000      0.000
REMARK  3 active torsions:
REMARK  status: ('A' for Active; 'I' for Inactive)
REMARK    1  A    between atoms: C2_2  and  N1_3
REMARK    2  A    between atoms: N1_3  and  C3_5
REMARK    3  A    between atoms: C3_5  and  C4_6
ROOT
HETATM    1  C4  UNL     1      -2.613  30.358  -9.526  1.00  0.00     0.009 C
HETATM    2  C5  UNL     1      -3.265  29.228 -10.248  1.00  0.00     0.039 C
HETATM    3  C6  UNL     1      -3.809  29.915 -11.482  1.00  0.00     0.186 C
HETATM    4  C7  UNL     1      -3.264  31.350 -11.471  1.00  0.00     0.038 C
HETATM    5  C8  UNL     1      -1.961  31.089 -10.691  1.00  0.00    -0.005 C
HETATM    6  C9  UNL     1      -1.139  30.208 -11.576  1.00  0.00     0.032 C
HETATM    7  C10 UNL     1      -1.818  29.667 -12.774  1.00  0.00     0.233 C
HETATM    8  N2  UNL     1      -3.185  29.293 -12.621  1.00  0.00    -0.071 N
ATOM      9  H21 UNL     1      -3.713  29.479 -13.474  1.00  0.00     0.277 HD
ATOM     10  H22 UNL     1      -3.285  28.278 -12.584  1.00  0.00     0.277 HD
ENDROOT
BRANCH   1  11
HETATM   11  C3  UNL     1      -1.707  30.002  -8.411  1.00  0.00     0.118 C
BRANCH  11  12
HETATM   12  N1  UNL     1      -2.456  30.200  -7.199  1.00  0.00    -0.421 N
ATOM     13  H1  UNL     1      -3.136  30.955  -7.105  1.00  0.00     0.153 HD
BRANCH  12  14
HETATM   14  C2  UNL     1      -2.198  29.291  -6.141  1.00  0.00     0.109 C
HETATM   15  C1  UNL     1      -3.216  29.433  -5.005  1.00  0.00     0.026 C
ENDBRANCH  12  14
ENDBRANCH  11  12
ENDBRANCH   1  11
TORSDOF 3
ENDMDL