MODEL 4
REMARK VINA RESULT: -4.847869977      3.190      5.089
REMARK  3 active torsions:
REMARK  status: ('A' for Active; 'I' for Inactive)
REMARK    1  A    between atoms: N1_2  and  C2_4
REMARK    2  A    between atoms: C2_4  and  C3_5
REMARK    3  A    between atoms: C3_5  and  N2_6
ROOT
HETATM    1  N2  UNL     1      -2.026  29.811 -12.778  1.00  0.00     0.090 N
HETATM    2  C4  UNL     1      -1.095  30.081 -11.752  1.00  0.00     0.273 C
HETATM    3  C5  UNL     1      -1.492  31.372 -11.025  1.00  0.00     0.034 C
HETATM    4  C6  UNL     1      -2.921  31.402 -10.612  1.00  0.00    -0.015 C
HETATM    5  C7  UNL     1      -3.118  31.832  -9.166  1.00  0.00     0.010 C
HETATM    6  C8  UNL     1      -3.495  30.028 -10.845  1.00  0.00     0.034 C
HETATM    7  C9  UNL     1      -3.410  29.760 -12.313  1.00  0.00     0.273 C
ENDROOT
BRANCH   1   8
HETATM    8  C3  UNL     1      -1.828  28.709 -13.626  1.00  0.00     0.291 C
BRANCH   8   9
HETATM    9  C2  UNL     1      -2.981  27.884 -14.037  1.00  0.00     0.143 C
BRANCH   9  10
HETATM   10  N1  UNL     1      -2.965  26.505 -13.699  1.00  0.00    -0.424 N
HETATM   11  C1  UNL     1      -3.772  26.132 -12.592  1.00  0.00     0.139 C
ATOM     12  H1  UNL     1      -2.408  25.825 -14.218  1.00  0.00     0.152 HD
ENDBRANCH   9  10
ENDBRANCH   8   9
ENDBRANCH   1   8
TORSDOF 3
ENDMDL