MODEL 3
REMARK VINA RESULT: -5.489024052      1.252      1.549
REMARK  6 active torsions:
REMARK  status: ('A' for Active; 'I' for Inactive)
REMARK    1  A    between atoms: N1_1  and  C1_5
REMARK    2  A    between atoms: C1_5  and  C2_6
REMARK    3  A    between atoms: C2_6  and  C3_7
REMARK    4  A    between atoms: C3_7  and  O1_8
REMARK    5  A    between atoms: O1_8  and  C4_9
REMARK    6  A    between atoms: C5_10  and  C6_11
ROOT
HETATM    1  O1  UNL     1      -1.076  29.750  -7.261  1.00  0.00    -0.304 OA
ENDROOT
BRANCH   1   2
HETATM    2  C3  UNL     1      -1.961  29.301  -6.234  1.00  0.00     0.189 C
BRANCH   2   3
HETATM    3  C2  UNL     1      -2.784  30.433  -5.685  1.00  0.00     0.055 C
BRANCH   3   4
HETATM    4  C1  UNL     1      -3.429  30.082  -4.375  1.00  0.00     0.231 C
BRANCH   4   5
HETATM    5  N1  UNL     1      -4.528  30.924  -4.035  1.00  0.00    -0.079 N
ATOM      6  H13 UNL     1      -4.838  30.744  -3.080  1.00  0.00     0.274 HD
ATOM      7  H12 UNL     1      -4.223  31.892  -3.936  1.00  0.00     0.274 HD
ATOM      8  H11 UNL     1      -5.311  30.857  -4.686  1.00  0.00     0.274 HD
ENDBRANCH   4   5
ENDBRANCH   3   4
ENDBRANCH   2   3
ENDBRANCH   1   2
BRANCH   1   9
HETATM    9  C4  UNL     1      -1.541  30.173  -8.471  1.00  0.00     0.054 C
HETATM   10  C5  UNL     1      -1.970  30.554  -9.534  1.00  0.00    -0.071 C
BRANCH  10  11
HETATM   11  C6  UNL     1      -2.509  31.028 -10.810  1.00  0.00     0.067 C
HETATM   12  C7  UNL     1      -3.906  30.463 -10.936  1.00  0.00     0.017 C
HETATM   13  C8  UNL     1      -3.985  30.038 -12.381  1.00  0.00     0.001 C
HETATM   14  C9  UNL     1      -2.590  29.466 -12.603  1.00  0.00     0.001 C
HETATM   15  C10 UNL     1      -1.724  30.542 -11.988  1.00  0.00     0.017 C
ENDBRANCH  10  11
ENDBRANCH   1   9
TORSDOF 6
ENDMDL