MODEL 1
REMARK VINA RESULT: -6.782374493      0.000      0.000
REMARK  12 active torsions:
REMARK  status: ('A' for Active; 'I' for Inactive)
REMARK    1  A    between atoms: C2_2  and  O1_3
REMARK    2  A    between atoms: C5_7  and  C6_8
REMARK    3  A    between atoms: C6_8  and  O2_9
REMARK    4  A    between atoms: O2_9  and  S1_10
REMARK    5  A    between atoms: C8_16  and  C9_17
REMARK    6  A    between atoms: C9_17  and  C10_18
REMARK    7  A    between atoms: C10_18  and  C11_19
REMARK    8  A    between atoms: C11_19  and  C12_20
REMARK    9  A    between atoms: C14_22  and  O6_23
REMARK   10  A    between atoms: C15_25  and  O7_26
REMARK   11  A    between atoms: C16_28  and  C17_29
REMARK   12  A    between atoms: C17_29  and  O8_30
ROOT
HETATM    1  C1  UNL     1      27.608  -0.621  11.048  1.00  0.00     0.051 C
HETATM    2  C2  UNL     1      28.007  -1.065   9.645  1.00  0.00     0.087 C
HETATM    3  C3  UNL     1      27.654  -2.592   9.699  1.00  0.00     0.044 C
HETATM    4  C4  UNL     1      28.141  -3.228  10.951  1.00  0.00     0.021 C
HETATM    5  C5  UNL     1      29.620  -3.216  11.159  1.00  0.00     0.077 C
HETATM    6  S2  UNL     1      30.305  -1.565  10.855  1.00  0.00    -0.124 SA
HETATM    7  C7  UNL     1      29.418  -1.017   9.321  1.00  0.00     0.009 C
HETATM    8  C8  UNL     1      30.136   0.026   8.623  1.00  0.00    -0.010 C
ENDROOT
BRANCH   8   9
HETATM    9  C9  UNL     1      30.253   1.415   9.038  1.00  0.00     0.028 C
BRANCH   9  10
HETATM   10  C10 UNL     1      29.886   2.523   8.109  1.00  0.00     0.006 C
BRANCH  10  11
HETATM   11  C11 UNL     1      28.395   2.573   7.875  1.00  0.00     0.032 C
BRANCH  11  12
HETATM   12  C12 UNL     1      27.994   2.364   6.460  1.00  0.00     0.124 C
HETATM   13  C13 UNL     1      28.962   2.930   5.461  1.00  0.00     0.066 C
HETATM   14  C14 UNL     1      29.080   2.174   4.202  1.00  0.00     0.151 C
HETATM   15  C15 UNL     1      27.964   1.237   3.886  1.00  0.00     0.178 C
HETATM   16  C16 UNL     1      27.165   0.809   5.090  1.00  0.00     0.176 C
HETATM   17  O9  UNL     1      27.924   0.989   6.237  1.00  0.00    -0.376 OA
BRANCH  14  18
HETATM   18  O6  UNL     1      30.299   1.480   4.206  1.00  0.00    -0.393 OA
ATOM     19  H6  UNL     1      30.809   1.756   3.453  1.00  0.00     0.210 HD
ENDBRANCH  14  18
BRANCH  15  20
HETATM   20  O7  UNL     1      28.486   0.065   3.312  1.00  0.00    -0.390 OA
ATOM     21  H7  UNL     1      28.321  -0.670   3.890  1.00  0.00     0.210 HD
ENDBRANCH  15  20
BRANCH  16  22
HETATM   22  C17 UNL     1      26.739  -0.635   5.005  1.00  0.00     0.198 C
BRANCH  22  23
HETATM   23  O8  UNL     1      27.563  -1.370   5.852  1.00  0.00    -0.398 OA
ATOM     24  H8  UNL     1      28.308  -1.669   5.344  1.00  0.00     0.209 HD
ENDBRANCH  22  23
ENDBRANCH  16  22
ENDBRANCH  11  12
ENDBRANCH  10  11
ENDBRANCH   9  10
ENDBRANCH   8   9
BRANCH   2  25
HETATM   25  O1  UNL     1      27.118  -0.574   8.703  1.00  0.00    -0.385 OA
ATOM     26  H1  UNL     1      27.294   0.341   8.520  1.00  0.00     0.211 HD
ENDBRANCH   2  25
BRANCH   5  27
HETATM   27  C6  UNL     1      29.962  -3.734  12.521  1.00  0.00     0.208 C
BRANCH  27  28
HETATM   28  O2  UNL     1      30.808  -4.806  12.415  1.00  0.00    -0.256 OA
BRANCH  28  29
HETATM   29  S1  UNL     1      32.259  -4.590  13.211  1.00  0.00     0.251 S
HETATM   30  O3  UNL     1      32.545  -5.868  13.973  1.00  0.00    -0.572 OA
HETATM   31  O4  UNL     1      32.212  -3.405  14.153  1.00  0.00    -0.572 OA
HETATM   32  O5  UNL     1      33.532  -4.372  12.135  1.00  0.00    -0.572 OA
ENDBRANCH  28  29
ENDBRANCH  27  28
ENDBRANCH   5  27
TORSDOF 12
ENDMDL