MODEL 5
REMARK VINA RESULT: -7.590095247      1.997      3.483
REMARK  16 active torsions:
REMARK  status: ('A' for Active; 'I' for Inactive)
REMARK    1  A    between atoms: C3_3  and  C4_4
REMARK    2  A    between atoms: C6_6  and  C7_7
REMARK    3  A    between atoms: C7_7  and  O2_9
REMARK    4  A    between atoms: O2_9  and  C8_10
REMARK    5  A    between atoms: C9_11  and  C10_12
REMARK    6  A    between atoms: C10_12  and  C11_13
REMARK    7  A    between atoms: C11_13  and  C12_14
REMARK    8  A    between atoms: C12_14  and  C13_15
REMARK    9  A    between atoms: C13_15  and  C14_16
REMARK   10  A    between atoms: C14_16  and  C15_17
REMARK   11  A    between atoms: C16_19  and  O4_20
REMARK   12  A    between atoms: C17_22  and  O5_23
REMARK   13  A    between atoms: C18_25  and  O6_26
REMARK   14  A    between atoms: C20_29  and  O7_30
REMARK   15  A    between atoms: C21_32  and  O8_33
REMARK   16  A    between atoms: C22_35  and  O9_36
ROOT
HETATM    1  C8  UNL     1      28.437  -0.084   6.658  1.00  0.00     0.167 C
HETATM    2  C9  UNL     1      29.707  -0.797   6.320  1.00  0.00     0.020 C
HETATM    3  C19 UNL     1      29.448  -2.232   5.917  1.00  0.00     0.041 C
HETATM    4  C20 UNL     1      28.550  -2.945   6.870  1.00  0.00     0.150 C
HETATM    5  C21 UNL     1      27.334  -2.185   7.273  1.00  0.00     0.178 C
HETATM    6  C22 UNL     1      27.612  -0.774   7.689  1.00  0.00     0.179 C
ENDROOT
BRANCH   2   7
HETATM    7  C10 UNL     1      30.744  -0.761   7.414  1.00  0.00     0.007 C
BRANCH   7   8
HETATM    8  C11 UNL     1      31.240   0.642   7.635  1.00  0.00     0.000 C
BRANCH   8   9
HETATM    9  C12 UNL     1      31.376   0.917   9.130  1.00  0.00     0.000 C
BRANCH   9  10
HETATM   10  C13 UNL     1      30.039   1.050   9.785  1.00  0.00     0.002 C
BRANCH  10  11
HETATM   11  C14 UNL     1      29.966   0.396  11.138  1.00  0.00     0.035 C
BRANCH  11  12
HETATM   12  C15 UNL     1      30.583  -0.972  11.164  1.00  0.00     0.156 C
HETATM   13  O3  UNL     1      29.889  -1.919  10.460  1.00  0.00    -0.351 OA
HETATM   14  C16 UNL     1      28.869  -2.409  11.250  1.00  0.00     0.288 C
HETATM   15  C17 UNL     1      29.581  -2.642  12.570  1.00  0.00     0.204 C
HETATM   16  C18 UNL     1      30.551  -1.475  12.591  1.00  0.00     0.180 C
BRANCH  14  17
HETATM   17  O4  UNL     1      28.408  -3.588  10.683  1.00  0.00    -0.369 OA
ATOM     18  H4  UNL     1      29.156  -4.073  10.355  1.00  0.00     0.212 HD
ENDBRANCH  14  17
BRANCH  15  19
HETATM   19  O5  UNL     1      30.302  -3.824  12.485  1.00  0.00    -0.388 OA
ATOM     20  H5  UNL     1      29.935  -4.451  13.098  1.00  0.00     0.210 HD
ENDBRANCH  15  19
BRANCH  16  21
HETATM   21  O6  UNL     1      30.072  -0.475  13.465  1.00  0.00    -0.390 OA
ATOM     22  H6  UNL     1      30.261  -0.699  14.369  1.00  0.00     0.210 HD
ENDBRANCH  16  21
ENDBRANCH  11  12
ENDBRANCH  10  11
ENDBRANCH   9  10
ENDBRANCH   8   9
ENDBRANCH   7   8
ENDBRANCH   2   7
BRANCH   1  23
HETATM   23  O2  UNL     1      27.660  -0.011   5.446  1.00  0.00    -0.310 OA
BRANCH  23  24
HETATM   24  C7  UNL     1      27.783   1.067   4.595  1.00  0.00     0.283 C
HETATM   25  O1  UNL     1      27.445   0.848   3.377  1.00  0.00    -0.260 OA
BRANCH  24  26
HETATM   26  C6  UNL     1      28.250   2.352   5.008  1.00  0.00     0.089 C
HETATM   27  C4  UNL     1      29.477   2.764   4.830  1.00  0.00    -0.057 C
HETATM   28  C5  UNL     1      30.518   1.945   4.177  1.00  0.00     0.048 C
BRANCH  27  29
HETATM   29  C3  UNL     1      29.823   4.101   5.300  1.00  0.00     0.002 C
HETATM   30  C2  UNL     1      29.509   4.579   6.482  1.00  0.00    -0.030 C
HETATM   31  C1  UNL     1      29.969   5.997   6.763  1.00  0.00     0.036 C
ENDBRANCH  27  29
ENDBRANCH  24  26
ENDBRANCH  23  24
ENDBRANCH   1  23
BRANCH   6  32
HETATM   32  O9  UNL     1      26.404  -0.091   7.825  1.00  0.00    -0.390 OA
ATOM     33  H9  UNL     1      26.157  -0.089   8.742  1.00  0.00     0.210 HD
ENDBRANCH   6  32
BRANCH   4  34
HETATM   34  O7  UNL     1      29.258  -3.429   7.965  1.00  0.00    -0.393 OA
ATOM     35  H7  UNL     1      29.443  -4.357   7.873  1.00  0.00     0.210 HD
ENDBRANCH   4  34
BRANCH   5  36
HETATM   36  O8  UNL     1      26.762  -2.872   8.356  1.00  0.00    -0.390 OA
ATOM     37  H8  UNL     1      25.914  -3.188   8.066  1.00  0.00     0.210 HD
ENDBRANCH   5  36
TORSDOF 16
ENDMDL