MODEL 3
REMARK VINA RESULT: -6.946283061      1.681      2.541
REMARK  15 active torsions:
REMARK  status: ('A' for Active; 'I' for Inactive)
REMARK    1  A    between atoms: C2_2  and  C3_3
REMARK    2  A    between atoms: C3_3  and  C4_4
REMARK    3  A    between atoms: C4_4  and  C5_5
REMARK    4  A    between atoms: C5_5  and  C6_6
REMARK    5  A    between atoms: C6_6  and  C7_7
REMARK    6  A    between atoms: C9_9  and  O1_10
REMARK    7  A    between atoms: O1_10  and  C10_11
REMARK    8  A    between atoms: C11_13  and  C12_14
REMARK    9  A    between atoms: C12_14  and  O3_15
REMARK   10  A    between atoms: C13_17  and  O4_18
REMARK   11  A    between atoms: C14_20  and  O5_21
REMARK   12  A    between atoms: C14_20  and  C15_23
REMARK   13  A    between atoms: C15_23  and  O6_24
REMARK   14  A    between atoms: C19_29  and  O7_30
REMARK   15  A    between atoms: C19_29  and  C20_32
ROOT
HETATM    1  O1  UNL     1      31.706  -0.901   8.121  1.00  0.00    -0.355 OA
ENDROOT
BRANCH   1   2
HETATM    2  C9  UNL     1      30.818  -1.631   7.340  1.00  0.00     0.132 C
HETATM    3  C8  UNL     1      30.311  -0.716   6.259  1.00  0.00     0.064 C
HETATM    4  C7  UNL     1      28.855  -0.894   5.948  1.00  0.00     0.128 C
HETATM    5  O10 UNL     1      28.402  -2.175   6.057  1.00  0.00    -0.341 OA
HETATM    6  C19 UNL     1      28.608  -2.811   7.232  1.00  0.00     0.256 C
HETATM    7  C18 UNL     1      29.700  -2.249   8.095  1.00  0.00     0.112 C
BRANCH   4   8
HETATM    8  C6  UNL     1      28.561  -0.258   4.619  1.00  0.00     0.032 C
BRANCH   8   9
HETATM    9  C5  UNL     1      27.719   0.965   4.702  1.00  0.00     0.002 C
BRANCH   9  10
HETATM   10  C4  UNL     1      28.470   2.251   4.607  1.00  0.00     0.000 C
BRANCH  10  11
HETATM   11  C3  UNL     1      28.723   2.887   5.955  1.00  0.00    -0.000 C
BRANCH  11  12
HETATM   12  C2  UNL     1      27.756   2.389   7.010  1.00  0.00    -0.005 C
HETATM   13  C1  UNL     1      28.075   3.169   8.283  1.00  0.00     0.005 C
ENDBRANCH  11  12
ENDBRANCH  10  11
ENDBRANCH   9  10
ENDBRANCH   8   9
ENDBRANCH   4   8
BRANCH   6  14
HETATM   14  O7  UNL     1      28.999  -4.139   6.929  1.00  0.00    -0.357 OA
ATOM     15  H7  UNL     1      28.362  -4.461   6.302  1.00  0.00     0.213 HD
ENDBRANCH   6  14
BRANCH   6  16
HETATM   16  C20 UNL     1      27.315  -2.921   7.958  1.00  0.00     0.238 C
HETATM   17  O8  UNL     1      26.487  -3.844   7.690  1.00  0.00    -0.644 OA
HETATM   18  O9  UNL     1      26.929  -2.041   8.962  1.00  0.00    -0.644 OA
ENDBRANCH   6  16
ENDBRANCH   1   2
BRANCH   1  19
HETATM   19  C10 UNL     1      31.696  -1.225   9.459  1.00  0.00     0.267 C
HETATM   20  O2  UNL     1      32.867  -1.932   9.778  1.00  0.00    -0.351 OA
HETATM   21  C11 UNL     1      32.670  -2.596  10.987  1.00  0.00     0.180 C
HETATM   22  C13 UNL     1      32.369  -1.673  12.118  1.00  0.00     0.186 C
HETATM   23  C14 UNL     1      31.441  -0.555  11.792  1.00  0.00     0.115 C
HETATM   24  C16 UNL     1      31.664  -0.045  10.395  1.00  0.00     0.076 C
HETATM   25  C17 UNL     1      30.601   0.902   9.953  1.00  0.00     0.018 C
BRANCH  21  26
HETATM   26  C12 UNL     1      33.974  -3.328  11.309  1.00  0.00     0.198 C
BRANCH  26  27
HETATM   27  O3  UNL     1      33.713  -4.416  12.163  1.00  0.00    -0.398 OA
ATOM     28  H3  UNL     1      34.276  -5.146  11.936  1.00  0.00     0.209 HD
ENDBRANCH  26  27
ENDBRANCH  21  26
BRANCH  22  29
HETATM   29  O4  UNL     1      31.894  -2.429  13.194  1.00  0.00    -0.390 OA
ATOM     30  H4  UNL     1      32.164  -2.007  14.001  1.00  0.00     0.210 HD
ENDBRANCH  22  29
BRANCH  23  31
HETATM   31  O5  UNL     1      31.700   0.499  12.690  1.00  0.00    -0.384 OA
ATOM     32  H5  UNL     1      30.880   0.737  13.106  1.00  0.00     0.210 HD
ENDBRANCH  23  31
BRANCH  23  33
HETATM   33  C15 UNL     1      29.985  -0.927  11.969  1.00  0.00     0.205 C
BRANCH  33  34
HETATM   34  O6  UNL     1      29.530  -0.655  13.247  1.00  0.00    -0.398 OA
ATOM     35  H6  UNL     1      28.690  -1.066  13.423  1.00  0.00     0.209 HD
ENDBRANCH  33  34
ENDBRANCH  23  33
ENDBRANCH   1  19
TORSDOF 15
ENDMDL