MODEL 5
REMARK VINA RESULT: -6.785352696      1.985      3.452
REMARK  15 active torsions:
REMARK  status: ('A' for Active; 'I' for Inactive)
REMARK    1  A    between atoms: C2_2  and  C4_4
REMARK    2  A    between atoms: C4_4  and  C5_5
REMARK    3  A    between atoms: C5_5  and  C6_6
REMARK    4  A    between atoms: C6_6  and  C7_7
REMARK    5  A    between atoms: C9_9  and  C10_10
REMARK    6  A    between atoms: C10_10  and  C11_11
REMARK    7  A    between atoms: C12_12  and  O1_13
REMARK    8  A    between atoms: C15_18  and  O3_19
REMARK    9  A    between atoms: C16_21  and  O4_22
REMARK   10  A    between atoms: O4_22  and  C17_23
REMARK   11  A    between atoms: C18_25  and  C19_26
REMARK   12  A    between atoms: C19_26  and  O6_27
REMARK   13  A    between atoms: C20_29  and  O7_30
REMARK   14  A    between atoms: C21_32  and  O8_33
REMARK   15  A    between atoms: C22_35  and  O9_36
ROOT
HETATM    1  C11 UNL     1      28.925  -0.062   5.140  1.00  0.00     0.076 C
HETATM    2  C12 UNL     1      29.597  -0.098   3.774  1.00  0.00     0.264 C
HETATM    3  O2  UNL     1      30.304   1.065   3.657  1.00  0.00    -0.353 OA
HETATM    4  C13 UNL     1      31.442   1.018   4.414  1.00  0.00     0.151 C
HETATM    5  C14 UNL     1      31.920   2.471   4.550  1.00  0.00     0.042 C
HETATM    6  C15 UNL     1      31.349   0.343   5.732  1.00  0.00     0.176 C
HETATM    7  C16 UNL     1      29.960   0.083   6.241  1.00  0.00     0.165 C
ENDROOT
BRANCH   7   8
HETATM    8  O4  UNL     1      29.901  -1.068   7.013  1.00  0.00    -0.350 OA
BRANCH   8   9
HETATM    9  C17 UNL     1      28.667  -1.328   7.576  1.00  0.00     0.292 C
HETATM   10  O5  UNL     1      28.582  -0.534   8.722  1.00  0.00    -0.348 OA
HETATM   11  C18 UNL     1      29.497  -0.924   9.695  1.00  0.00     0.179 C
HETATM   12  C20 UNL     1      29.306  -2.376  10.085  1.00  0.00     0.180 C
HETATM   13  C21 UNL     1      28.076  -2.893   9.333  1.00  0.00     0.183 C
HETATM   14  C22 UNL     1      28.407  -2.784   7.862  1.00  0.00     0.204 C
BRANCH  11  15
HETATM   15  C19 UNL     1      29.226  -0.094  10.930  1.00  0.00     0.198 C
BRANCH  15  16
HETATM   16  O6  UNL     1      27.877   0.213  11.004  1.00  0.00    -0.398 OA
ATOM     17  H6  UNL     1      27.711   0.760  11.763  1.00  0.00     0.209 HD
ENDBRANCH  15  16
ENDBRANCH  11  15
BRANCH  12  18
HETATM   18  O7  UNL     1      29.179  -2.565  11.444  1.00  0.00    -0.390 OA
ATOM     19  H7  UNL     1      28.310  -2.369  11.774  1.00  0.00     0.210 HD
ENDBRANCH  12  18
BRANCH  13  20
HETATM   20  O8  UNL     1      27.021  -2.045   9.664  1.00  0.00    -0.390 OA
ATOM     21  H8  UNL     1      26.250  -2.593   9.758  1.00  0.00     0.210 HD
ENDBRANCH  13  20
BRANCH  14  22
HETATM   22  O9  UNL     1      27.291  -3.260   7.177  1.00  0.00    -0.388 OA
ATOM     23  H9  UNL     1      26.719  -3.770   7.739  1.00  0.00     0.210 HD
ENDBRANCH  14  22
ENDBRANCH   8   9
ENDBRANCH   7   8
BRANCH   1  24
HETATM   24  C10 UNL     1      28.034   1.185   5.071  1.00  0.00     0.039 C
BRANCH  24  25
HETATM   25  C9  UNL     1      28.277   2.148   6.137  1.00  0.00    -0.024 C
HETATM   26  C7  UNL     1      27.414   2.280   7.131  1.00  0.00    -0.087 C
HETATM   27  C8  UNL     1      26.183   1.441   7.169  1.00  0.00     0.043 C
BRANCH  26  28
HETATM   28  C6  UNL     1      27.594   3.249   8.265  1.00  0.00     0.034 C
BRANCH  28  29
HETATM   29  C5  UNL     1      28.881   3.989   8.153  1.00  0.00     0.009 C
BRANCH  29  30
HETATM   30  C4  UNL     1      28.841   5.368   7.623  1.00  0.00     0.033 C
BRANCH  30  31
HETATM   31  C2  UNL     1      29.843   5.748   6.622  1.00  0.00    -0.093 C
HETATM   32  C1  UNL     1      30.925   6.478   6.965  1.00  0.00     0.014 C
HETATM   33  C3  UNL     1      29.786   5.346   5.172  1.00  0.00     0.042 C
ENDBRANCH  30  31
ENDBRANCH  29  30
ENDBRANCH  28  29
ENDBRANCH  26  28
ENDBRANCH  24  25
ENDBRANCH   1  24
BRANCH   6  34
HETATM   34  O3  UNL     1      32.106  -0.852   5.669  1.00  0.00    -0.390 OA
ATOM     35  H3  UNL     1      32.419  -0.958   4.778  1.00  0.00     0.210 HD
ENDBRANCH   6  34
BRANCH   2  36
HETATM   36  O1  UNL     1      30.260  -1.261   3.502  1.00  0.00    -0.371 OA
ATOM     37  H1  UNL     1      30.401  -1.424   2.577  1.00  0.00     0.212 HD
ENDBRANCH   2  36
TORSDOF 15
ENDMDL