MODEL 2
REMARK VINA RESULT: -7.046192859      1.420      2.725
REMARK  15 active torsions:
REMARK  status: ('A' for Active; 'I' for Inactive)
REMARK    1  A    between atoms: C4_4  and  C5_5
REMARK    2  A    between atoms: C5_5  and  C6_6
REMARK    3  A    between atoms: C6_6  and  C7_7
REMARK    4  A    between atoms: C9_9  and  C10_10
REMARK    5  A    between atoms: C10_10  and  C11_11
REMARK    6  A    between atoms: C11_11  and  O1_12
REMARK    7  A    between atoms: C13_17  and  O2_18
REMARK    8  A    between atoms: O2_18  and  C14_19
REMARK    9  A    between atoms: C14_19  and  C15_20
REMARK   10  A    between atoms: C16_22  and  C17_23
REMARK   11  A    between atoms: C17_23  and  O4_24
REMARK   12  A    between atoms: C18_26  and  O5_27
REMARK   13  A    between atoms: C19_29  and  O6_30
REMARK   14  A    between atoms: C20_32  and  O7_33
REMARK   15  A    between atoms: C21_35  and  O8_36
ROOT
HETATM    1  C11 UNL     1      28.751   1.361   3.948  1.00  0.00     0.095 C
HETATM    2  C12 UNL     1      29.876   0.435   3.969  1.00  0.00     0.096 C
HETATM    3  N1  UNL     1      29.973  -0.601   4.639  1.00  0.00    -0.372 N
ATOM      4  H1  UNL     1      30.815  -1.171   4.570  1.00  0.00     0.161 HD
HETATM    5  C13 UNL     1      28.876  -1.018   5.541  1.00  0.00     0.249 C
HETATM    6  C21 UNL     1      27.593  -0.532   4.920  1.00  0.00     0.170 C
HETATM    7  C22 UNL     1      27.709   1.004   4.960  1.00  0.00     0.080 C
ENDROOT
BRANCH   5   8
HETATM    8  O2  UNL     1      29.091  -0.412   6.719  1.00  0.00    -0.362 OA
BRANCH   8   9
HETATM    9  C14 UNL     1      29.731  -0.935   7.752  1.00  0.00     0.205 C
BRANCH   9  10
HETATM   10  C15 UNL     1      29.123  -0.721   9.095  1.00  0.00     0.177 C
HETATM   11  O3  UNL     1      30.000  -0.814  10.096  1.00  0.00    -0.371 OA
HETATM   12  C16 UNL     1      29.621  -1.107  11.355  1.00  0.00     0.177 C
HETATM   13  C18 UNL     1      28.176  -0.763  11.590  1.00  0.00     0.180 C
HETATM   14  C19 UNL     1      27.364  -1.621  10.633  1.00  0.00     0.180 C
HETATM   15  C20 UNL     1      27.858  -1.519   9.212  1.00  0.00     0.180 C
BRANCH  12  16
HETATM   16  C17 UNL     1      30.532  -0.406  12.350  1.00  0.00     0.198 C
BRANCH  16  17
HETATM   17  O4  UNL     1      30.688   0.917  11.924  1.00  0.00    -0.398 OA
ATOM     18  H4  UNL     1      30.936   1.437  12.680  1.00  0.00     0.209 HD
ENDBRANCH  16  17
ENDBRANCH  12  16
BRANCH  13  19
HETATM   19  O5  UNL     1      27.907   0.568  11.300  1.00  0.00    -0.390 OA
ATOM     20  H5  UNL     1      27.248   0.930  11.879  1.00  0.00     0.210 HD
ENDBRANCH  13  19
BRANCH  14  21
HETATM   21  O6  UNL     1      27.508  -2.941  11.092  1.00  0.00    -0.390 OA
ATOM     22  H6  UNL     1      27.309  -3.495  10.346  1.00  0.00     0.210 HD
ENDBRANCH  14  21
BRANCH  15  23
HETATM   23  O7  UNL     1      26.868  -0.869   8.475  1.00  0.00    -0.390 OA
ATOM     24  H7  UNL     1      26.050  -1.330   8.612  1.00  0.00     0.210 HD
ENDBRANCH  15  23
ENDBRANCH   9  10
ENDBRANCH   8   9
ENDBRANCH   5   8
BRANCH   6  25
HETATM   25  O8  UNL     1      26.519  -0.941   5.677  1.00  0.00    -0.391 OA
ATOM     26  H8  UNL     1      25.874  -0.246   5.728  1.00  0.00     0.210 HD
ENDBRANCH   6  25
BRANCH   1  27
HETATM   27  C10 UNL     1      29.210   2.809   4.095  1.00  0.00     0.071 C
BRANCH  27  28
HETATM   28  C9  UNL     1      28.890   3.211   5.470  1.00  0.00    -0.021 C
HETATM   29  C7  UNL     1      29.464   4.181   6.129  1.00  0.00    -0.087 C
HETATM   30  C8  UNL     1      29.038   4.489   7.538  1.00  0.00     0.043 C
BRANCH  29  31
HETATM   31  C6  UNL     1      30.534   5.024   5.579  1.00  0.00     0.037 C
BRANCH  31  32
HETATM   32  C5  UNL     1      29.910   6.388   5.236  1.00  0.00     0.031 C
BRANCH  32  33
HETATM   33  C4  UNL     1      30.671   6.934   4.090  1.00  0.00    -0.024 C
HETATM   34  C2  UNL     1      30.149   7.869   3.327  1.00  0.00    -0.091 C
HETATM   35  C1  UNL     1      30.938   8.402   2.181  1.00  0.00     0.042 C
HETATM   36  C3  UNL     1      28.785   8.382   3.621  1.00  0.00     0.042 C
ENDBRANCH  32  33
ENDBRANCH  31  32
ENDBRANCH  29  31
ENDBRANCH  27  28
ENDBRANCH   1  27
BRANCH   1  37
HETATM   37  O1  UNL     1      28.129   1.225   2.686  1.00  0.00    -0.384 OA
ATOM     38  H1  UNL     1      28.577   0.534   2.211  1.00  0.00     0.211 HD
ENDBRANCH   1  37
TORSDOF 15
ENDMDL