MODEL 4
REMARK VINA RESULT: -7.271389698      2.582      3.941
REMARK  15 active torsions:
REMARK  status: ('A' for Active; 'I' for Inactive)
REMARK    1  A    between atoms: C2_2  and  C3_3
REMARK    2  A    between atoms: C3_3  and  C4_4
REMARK    3  A    between atoms: C4_4  and  C5_5
REMARK    4  A    between atoms: C5_5  and  C6_6
REMARK    5  A    between atoms: C6_6  and  C7_7
REMARK    6  A    between atoms: C7_7  and  C8_8
REMARK    7  A    between atoms: C12_12  and  C13_13
REMARK    8  A    between atoms: C14_15  and  O2_16
REMARK    9  A    between atoms: O2_16  and  C15_17
REMARK   10  A    between atoms: C16_18  and  O3_19
REMARK   11  A    between atoms: C18_23  and  O5_24
REMARK   12  A    between atoms: C19_26  and  O6_27
REMARK   13  A    between atoms: C20_29  and  O7_30
REMARK   14  A    between atoms: C21_32  and  O8_33
REMARK   15  A    between atoms: C22_35  and  O9_36
ROOT
HETATM    1  C13 UNL     1      29.509   0.627   8.723  1.00  0.00     0.160 C
HETATM    2  O1  UNL     1      30.027   0.282   9.940  1.00  0.00    -0.350 OA
HETATM    3  C14 UNL     1      29.701  -1.029  10.294  1.00  0.00     0.292 C
HETATM    4  C20 UNL     1      28.243  -0.983  10.640  1.00  0.00     0.204 C
HETATM    5  C21 UNL     1      27.503  -0.785   9.336  1.00  0.00     0.183 C
HETATM    6  C22 UNL     1      28.281  -0.063   8.297  1.00  0.00     0.178 C
ENDROOT
BRANCH   3   7
HETATM    7  O2  UNL     1      30.518  -1.560  11.246  1.00  0.00    -0.346 OA
BRANCH   7   8
HETATM    8  C15 UNL     1      30.766  -2.907  11.161  1.00  0.00     0.211 C
HETATM    9  C16 UNL     1      30.201  -3.542  12.415  1.00  0.00     0.288 C
HETATM   10  O4  UNL     1      31.039  -3.261  13.485  1.00  0.00    -0.356 OA
HETATM   11  C17 UNL     1      32.219  -3.996  13.446  1.00  0.00     0.205 C
HETATM   12  C18 UNL     1      32.676  -4.279  12.031  1.00  0.00     0.173 C
HETATM   13  C19 UNL     1      32.252  -3.180  11.080  1.00  0.00     0.182 C
BRANCH   9  14
HETATM   14  O3  UNL     1      29.946  -4.890  12.257  1.00  0.00    -0.369 OA
ATOM     15  H3  UNL     1      30.441  -5.428  12.863  1.00  0.00     0.212 HD
ENDBRANCH   9  14
BRANCH  12  16
HETATM   16  O5  UNL     1      34.072  -4.326  11.990  1.00  0.00    -0.391 OA
ATOM     17  H5  UNL     1      34.351  -4.814  11.225  1.00  0.00     0.210 HD
ENDBRANCH  12  16
BRANCH  13  18
HETATM   18  O6  UNL     1      32.636  -3.597   9.797  1.00  0.00    -0.390 OA
ATOM     19  H6  UNL     1      33.434  -3.168   9.510  1.00  0.00     0.210 HD
ENDBRANCH  13  18
ENDBRANCH   7   8
ENDBRANCH   3   7
BRANCH   4  20
HETATM   20  O7  UNL     1      28.034   0.189  11.380  1.00  0.00    -0.388 OA
ATOM     21  H7  UNL     1      27.527   0.777  10.833  1.00  0.00     0.210 HD
ENDBRANCH   4  20
BRANCH   1  22
HETATM   22  C12 UNL     1      29.242   2.130   8.706  1.00  0.00     0.021 C
HETATM   23  C8  UNL     1      29.941   2.835   7.602  1.00  0.00    -0.008 C
HETATM   24  C9  UNL     1      29.139   4.106   7.474  1.00  0.00     0.005 C
HETATM   25  C10 UNL     1      27.702   3.696   7.658  1.00  0.00     0.001 C
HETATM   26  C11 UNL     1      27.778   2.436   8.484  1.00  0.00     0.007 C
BRANCH  23  27
HETATM   27  C7  UNL     1      30.008   2.054   6.323  1.00  0.00     0.005 C
BRANCH  27  28
HETATM   28  C6  UNL     1      29.897   2.882   5.094  1.00  0.00     0.000 C
BRANCH  28  29
HETATM   29  C5  UNL     1      28.845   2.394   4.146  1.00  0.00     0.000 C
BRANCH  29  30
HETATM   30  C4  UNL     1      27.923   1.389   4.780  1.00  0.00     0.000 C
BRANCH  30  31
HETATM   31  C3  UNL     1      27.286   0.474   3.758  1.00  0.00    -0.000 C
BRANCH  31  32
HETATM   32  C2  UNL     1      25.967  -0.018   4.313  1.00  0.00    -0.005 C
HETATM   33  C1  UNL     1      25.757   0.356   5.742  1.00  0.00     0.005 C
ENDBRANCH  31  32
ENDBRANCH  30  31
ENDBRANCH  29  30
ENDBRANCH  28  29
ENDBRANCH  27  28
ENDBRANCH  23  27
ENDBRANCH   1  22
BRANCH   5  34
HETATM   34  O8  UNL     1      27.091  -2.047   8.896  1.00  0.00    -0.390 OA
ATOM     35  H8  UNL     1      26.763  -1.945   8.011  1.00  0.00     0.210 HD
ENDBRANCH   5  34
BRANCH   6  36
HETATM   36  O9  UNL     1      28.625  -1.013   7.302  1.00  0.00    -0.390 OA
ATOM     37  H9  UNL     1      27.823  -1.362   6.931  1.00  0.00     0.210 HD
ENDBRANCH   6  36
TORSDOF 15
ENDMDL