MODEL 1
REMARK VINA RESULT: -7.052825623      0.000      0.000
REMARK  15 active torsions:
REMARK  status: ('A' for Active; 'I' for Inactive)
REMARK    1  A    between atoms: C3_3  and  C4_4
REMARK    2  A    between atoms: C6_6  and  C7_7
REMARK    3  A    between atoms: C6_6  and  O4_20
REMARK    4  A    between atoms: C7_7  and  C8_8
REMARK    5  A    between atoms: C8_8  and  C9_9
REMARK    6  A    between atoms: C9_9  and  C10_10
REMARK    7  A    between atoms: C10_10  and  O1_11
REMARK    8  A    between atoms: C10_10  and  C11_13
REMARK    9  A    between atoms: C11_13  and  C12_14
REMARK   10  A    between atoms: C12_14  and  O2_15
REMARK   11  A    between atoms: C12_14  and  C13_17
REMARK   12  A    between atoms: C13_17  and  O3_18
REMARK   13  A    between atoms: C20_29  and  O7_30
REMARK   14  A    between atoms: C21_32  and  O8_33
REMARK   15  A    between atoms: C22_35  and  O9_36
ROOT
HETATM    1  C4  UNL     1      27.222  -0.493   5.430  1.00  0.00     0.017 C
HETATM    2  C5  UNL     1      27.303  -1.397   6.651  1.00  0.00     0.049 C
HETATM    3  C6  UNL     1      28.825  -1.270   7.073  1.00  0.00     0.087 C
HETATM    4  C15 UNL     1      28.852   0.222   6.946  1.00  0.00     0.164 C
HETATM    5  O5  UNL     1      30.022   0.850   7.109  1.00  0.00    -0.344 OA
HETATM    6  C16 UNL     1      29.875   2.224   7.057  1.00  0.00     0.196 C
HETATM    7  C17 UNL     1      29.130   2.742   5.866  1.00  0.00     0.072 C
HETATM    8  C18 UNL     1      27.891   1.930   5.541  1.00  0.00     0.013 C
HETATM    9  C19 UNL     1      28.340   0.502   5.532  1.00  0.00     0.026 C
HETATM   10  O6  UNL     1      31.182   2.753   6.954  1.00  0.00    -0.320 OA
HETATM   11  C20 UNL     1      31.085   4.072   7.378  1.00  0.00     0.292 C
HETATM   12  C21 UNL     1      29.961   4.151   8.372  1.00  0.00     0.207 C
HETATM   13  C22 UNL     1      29.357   2.754   8.356  1.00  0.00     0.214 C
ENDROOT
BRANCH   3  14
HETATM   14  C7  UNL     1      28.768  -1.749   8.487  1.00  0.00     0.041 C
BRANCH  14  15
HETATM   15  C8  UNL     1      27.447  -1.911   9.122  1.00  0.00     0.006 C
BRANCH  15  16
HETATM   16  C9  UNL     1      27.591  -1.802  10.667  1.00  0.00     0.032 C
BRANCH  16  17
HETATM   17  C10 UNL     1      28.660  -0.783  10.986  1.00  0.00     0.120 C
BRANCH  17  18
HETATM   18  O1  UNL     1      27.957   0.449  11.156  1.00  0.00    -0.395 OA
ATOM     19  H1  UNL     1      28.414   0.899  11.856  1.00  0.00     0.210 HD
ENDBRANCH  17  18
BRANCH  17  20
HETATM   20  C11 UNL     1      29.381  -1.002  12.263  1.00  0.00     0.065 C
BRANCH  20  21
HETATM   21  C12 UNL     1      30.680  -0.318  12.448  1.00  0.00     0.144 C
BRANCH  21  22
HETATM   22  O2  UNL     1      30.672   0.926  11.872  1.00  0.00    -0.393 OA
ATOM     23  H2  UNL     1      31.036   1.579  12.458  1.00  0.00     0.210 HD
ENDBRANCH  21  22
BRANCH  21  24
HETATM   24  C13 UNL     1      31.144  -0.288  13.891  1.00  0.00     0.195 C
BRANCH  24  25
HETATM   25  O3  UNL     1      30.083  -0.232  14.784  1.00  0.00    -0.398 OA
ATOM     26  H3  UNL     1      30.354   0.053  15.649  1.00  0.00     0.209 HD
ENDBRANCH  24  25
ENDBRANCH  21  24
ENDBRANCH  20  21
ENDBRANCH  17  20
ENDBRANCH  16  17
ENDBRANCH  15  16
ENDBRANCH  14  15
ENDBRANCH   3  14
BRANCH   3  27
HETATM   27  O4  UNL     1      29.445  -1.981   6.148  1.00  0.00    -0.382 OA
HETATM   28  C14 UNL     1      29.848  -3.240   6.213  1.00  0.00     0.202 C
ENDBRANCH   3  27
BRANCH   1  29
HETATM   29  C3  UNL     1      25.904   0.107   5.248  1.00  0.00    -0.026 C
HETATM   30  C2  UNL     1      25.306   0.081   4.064  1.00  0.00    -0.035 C
HETATM   31  C1  UNL     1      25.977  -0.563   2.908  1.00  0.00     0.036 C
ENDBRANCH   1  29
BRANCH  13  32
HETATM   32  O9  UNL     1      29.916   2.087   9.441  1.00  0.00    -0.387 OA
ATOM     33  H9  UNL     1      30.613   2.593   9.842  1.00  0.00     0.210 HD
ENDBRANCH  13  32
BRANCH  11  34
HETATM   34  O7  UNL     1      30.932   4.967   6.315  1.00  0.00    -0.368 OA
ATOM     35  H7  UNL     1      30.388   5.712   6.542  1.00  0.00     0.212 HD
ENDBRANCH  11  34
BRANCH  12  36
HETATM   36  O8  UNL     1      29.034   5.130   8.107  1.00  0.00    -0.388 OA
ATOM     37  H8  UNL     1      29.030   5.436   7.208  1.00  0.00     0.210 HD
ENDBRANCH  12  36
TORSDOF 15
ENDMDL