MODEL 4
REMARK VINA RESULT: -7.113044516      3.171      8.441
REMARK  14 active torsions:
REMARK  status: ('A' for Active; 'I' for Inactive)
REMARK    1  A    between atoms: C2_2  and  C3_3
REMARK    2  A    between atoms: C4_4  and  C5_5
REMARK    3  A    between atoms: C5_5  and  C6_6
REMARK    4  A    between atoms: C6_6  and  C7_7
REMARK    5  A    between atoms: C7_7  and  N1_8
REMARK    6  A    between atoms: N1_8  and  C8_11
REMARK    7  A    between atoms: C11_14  and  O1_15
REMARK    8  A    between atoms: O1_15  and  C12_16
REMARK    9  A    between atoms: C13_18  and  C15_20
REMARK   10  A    between atoms: C17_23  and  O4_24
REMARK   11  A    between atoms: C18_26  and  O5_27
REMARK   12  A    between atoms: C19_29  and  O6_30
REMARK   13  A    between atoms: C20_32  and  O7_33
REMARK   14  A    between atoms: C21_35  and  O8_36
ROOT
HETATM    1  C8  UNL     1      27.858  -1.487   8.773  1.00  0.00     0.217 C
HETATM    2  C9  UNL     1      27.466  -2.859   9.229  1.00  0.00     0.038 C
HETATM    3  C10 UNL     1      27.670  -3.059  10.713  1.00  0.00     0.037 C
HETATM    4  C11 UNL     1      29.083  -2.769  11.148  1.00  0.00     0.156 C
HETATM    5  C20 UNL     1      29.783  -1.799  10.223  1.00  0.00     0.178 C
HETATM    6  C21 UNL     1      28.759  -0.787   9.765  1.00  0.00     0.179 C
ENDROOT
BRANCH   4   7
HETATM    7  O1  UNL     1      29.040  -2.298  12.443  1.00  0.00    -0.351 OA
BRANCH   7   8
HETATM    8  C12 UNL     1      30.140  -2.665  13.208  1.00  0.00     0.293 C
HETATM    9  O2  UNL     1      31.098  -3.262  12.446  1.00  0.00    -0.338 OA
HETATM   10  C13 UNL     1      32.399  -3.080  12.807  1.00  0.00     0.148 C
HETATM   11  C14 UNL     1      33.227  -3.727  11.705  1.00  0.00     0.057 C
HETATM   12  C17 UNL     1      32.779  -1.623  12.822  1.00  0.00     0.191 C
HETATM   13  C18 UNL     1      31.726  -0.733  13.383  1.00  0.00     0.183 C
HETATM   14  C19 UNL     1      30.579  -1.489  14.012  1.00  0.00     0.204 C
BRANCH  10  15
HETATM   15  C15 UNL     1      32.784  -3.806  14.037  1.00  0.00     0.159 C
HETATM   16  C16 UNL     1      32.627  -5.228  14.304  1.00  0.00     0.094 C
HETATM   17  O3  UNL     1      33.289  -3.132  14.923  1.00  0.00    -0.295 OA
ENDBRANCH  10  15
BRANCH  12  18
HETATM   18  O4  UNL     1      34.049  -1.450  13.359  1.00  0.00    -0.389 OA
ATOM     19  H4  UNL     1      34.418  -0.617  13.090  1.00  0.00     0.210 HD
ENDBRANCH  12  18
BRANCH  13  20
HETATM   20  O5  UNL     1      32.282   0.154  14.291  1.00  0.00    -0.390 OA
ATOM     21  H5  UNL     1      32.362   1.017  13.901  1.00  0.00     0.210 HD
ENDBRANCH  13  20
BRANCH  14  22
HETATM   22  O6  UNL     1      29.529  -0.592  14.214  1.00  0.00    -0.388 OA
ATOM     23  H6  UNL     1      29.381  -0.436  15.139  1.00  0.00     0.210 HD
ENDBRANCH  14  22
ENDBRANCH   7   8
ENDBRANCH   4   7
BRANCH   5  24
HETATM   24  O7  UNL     1      30.293  -2.496   9.117  1.00  0.00    -0.390 OA
ATOM     25  H7  UNL     1      31.235  -2.581   9.205  1.00  0.00     0.210 HD
ENDBRANCH   5  24
BRANCH   6  26
HETATM   26  O8  UNL     1      28.058  -0.279  10.838  1.00  0.00    -0.391 OA
ATOM     27  H8  UNL     1      28.149   0.664  10.914  1.00  0.00     0.210 HD
ENDBRANCH   6  26
BRANCH   1  28
HETATM   28  N1  UNL     1      26.778  -0.606   8.457  1.00  0.00    -0.068 N
ATOM     29  H12 UNL     1      26.480  -0.099   9.291  1.00  0.00     0.277 HD
ATOM     30  H11 UNL     1      25.931  -1.141   8.263  1.00  0.00     0.277 HD
BRANCH  28  31
HETATM   31  C7  UNL     1      27.045   0.311   7.384  1.00  0.00     0.233 C
BRANCH  31  32
HETATM   32  C6  UNL     1      25.737   0.575   6.674  1.00  0.00     0.031 C
BRANCH  32  33
HETATM   33  C5  UNL     1      25.846   0.201   5.228  1.00  0.00     0.028 C
BRANCH  33  34
HETATM   34  C4  UNL     1      27.138  -0.452   4.979  1.00  0.00    -0.031 C
HETATM   35  C3  UNL     1      28.082  -0.019   4.184  1.00  0.00    -0.031 C
BRANCH  35  36
HETATM   36  C2  UNL     1      28.011   1.215   3.393  1.00  0.00     0.022 C
HETATM   37  C1  UNL     1      28.729   2.302   4.200  1.00  0.00     0.009 C
ENDBRANCH  35  36
ENDBRANCH  33  34
ENDBRANCH  32  33
ENDBRANCH  31  32
ENDBRANCH  28  31
ENDBRANCH   1  28
TORSDOF 14
ENDMDL