MODEL 1
REMARK VINA RESULT: -7.095404636      0.000      0.000
REMARK  13 active torsions:
REMARK  status: ('A' for Active; 'I' for Inactive)
REMARK    1  A    between atoms: C2_2  and  C3_3
REMARK    2  A    between atoms: C3_3  and  C4_4
REMARK    3  A    between atoms: C4_4  and  C5_5
REMARK    4  A    between atoms: C5_5  and  C6_6
REMARK    5  A    between atoms: C6_6  and  C7_7
REMARK    6  A    between atoms: C7_7  and  O1_8
REMARK    7  A    between atoms: O1_8  and  C8_9
REMARK    8  A    between atoms: C9_10  and  C10_11
REMARK    9  A    between atoms: C10_11  and  O2_12
REMARK   10  A    between atoms: C14_21  and  O4_22
REMARK   11  A    between atoms: C20_30  and  O5_31
REMARK   12  A    between atoms: C21_33  and  O6_34
REMARK   13  A    between atoms: C22_36  and  O7_37
ROOT
HETATM    1  C8  UNL     1      29.656   0.257   9.564  1.00  0.00     0.183 C
HETATM    2  C9  UNL     1      28.797  -0.948   9.744  1.00  0.00     0.179 C
HETATM    3  O3  UNL     1      28.053  -1.278   8.635  1.00  0.00    -0.347 OA
HETATM    4  C11 UNL     1      27.459  -0.270   7.968  1.00  0.00     0.347 C
HETATM    5  N1  UNL     1      26.550  -0.891   6.971  1.00  0.00    -0.040 N
ATOM      6  H11 UNL     1      25.564  -0.682   7.127  1.00  0.00     0.280 HD
ATOM      7  H12 UNL     1      26.472  -1.904   7.061  1.00  0.00     0.280 HD
HETATM    8  C12 UNL     1      27.020  -0.475   5.732  1.00  0.00     0.222 C
HETATM    9  C13 UNL     1      28.210  -1.270   5.481  1.00  0.00     0.068 C
HETATM   10  C14 UNL     1      29.155  -0.789   4.425  1.00  0.00     0.135 C
HETATM   11  C16 UNL     1      28.708   0.663   4.169  1.00  0.00     0.091 C
HETATM   12  C17 UNL     1      29.225   1.441   5.310  1.00  0.00    -0.012 C
HETATM   13  C18 UNL     1      28.787   2.914   5.318  1.00  0.00     0.063 C
HETATM   14  N2  UNL     1      29.284   0.838   6.598  1.00  0.00    -0.385 N
ATOM     15  H2  UNL     1      30.138   0.333   6.838  1.00  0.00     0.159 HD
HETATM   16  C19 UNL     1      28.289   0.877   7.547  1.00  0.00     0.169 C
HETATM   17  C20 UNL     1      28.924   1.385   8.858  1.00  0.00     0.176 C
HETATM   18  C21 UNL     1      27.321   0.648   3.703  1.00  0.00     0.161 C
HETATM   19  C22 UNL     1      26.394  -0.412   4.394  1.00  0.00     0.178 C
ENDROOT
BRANCH   1  20
HETATM   20  O1  UNL     1      30.229   0.625  10.721  1.00  0.00    -0.381 OA
BRANCH  20  21
HETATM   21  C7  UNL     1      31.494   0.282  10.998  1.00  0.00     0.168 C
BRANCH  21  22
HETATM   22  C6  UNL     1      31.610  -0.689  12.121  1.00  0.00     0.026 C
BRANCH  22  23
HETATM   23  C5  UNL     1      31.007  -0.198  13.409  1.00  0.00     0.002 C
BRANCH  23  24
HETATM   24  C4  UNL     1      30.138  -1.251  14.074  1.00  0.00     0.000 C
BRANCH  24  25
HETATM   25  C3  UNL     1      30.668  -2.640  13.833  1.00  0.00    -0.000 C
BRANCH  25  26
HETATM   26  C2  UNL     1      29.588  -3.666  13.662  1.00  0.00    -0.005 C
HETATM   27  C1  UNL     1      29.589  -4.074  12.199  1.00  0.00     0.005 C
ENDBRANCH  25  26
ENDBRANCH  24  25
ENDBRANCH  23  24
ENDBRANCH  22  23
ENDBRANCH  21  22
ENDBRANCH  20  21
ENDBRANCH   1  20
BRANCH   2  28
HETATM   28  C10 UNL     1      28.019  -0.997  11.026  1.00  0.00     0.198 C
BRANCH  28  29
HETATM   29  O2  UNL     1      27.693   0.202  11.587  1.00  0.00    -0.398 OA
ATOM     30  H2  UNL     1      27.273   0.172  12.438  1.00  0.00     0.209 HD
ENDBRANCH  28  29
ENDBRANCH   2  28
BRANCH  17  31
HETATM   31  O5  UNL     1      27.977   2.018   9.611  1.00  0.00    -0.391 OA
ATOM     32  H5  UNL     1      27.578   2.775   9.199  1.00  0.00     0.210 HD
ENDBRANCH  17  31
BRANCH  19  33
HETATM   33  O7  UNL     1      25.091   0.073   4.429  1.00  0.00    -0.391 OA
ATOM     34  H7  UNL     1      25.026   0.978   4.146  1.00  0.00     0.210 HD
ENDBRANCH  19  33
BRANCH  10  35
HETATM   35  O4  UNL     1      30.475  -0.742   4.783  1.00  0.00    -0.390 OA
HETATM   36  C15 UNL     1      31.345  -1.252   3.843  1.00  0.00     0.202 C
ENDBRANCH  10  35
BRANCH  18  37
HETATM   37  O6  UNL     1      27.166   0.526   2.349  1.00  0.00    -0.392 OA
ATOM     38  H6  UNL     1      26.326   0.819   2.013  1.00  0.00     0.210 HD
ENDBRANCH  18  37
TORSDOF 13
ENDMDL