MODEL 3
REMARK VINA RESULT: -6.495662632      2.948      5.608
REMARK  15 active torsions:
REMARK  status: ('A' for Active; 'I' for Inactive)
REMARK    1  A    between atoms: C2_2  and  C3_3
REMARK    2  A    between atoms: C3_3  and  C6_6
REMARK    3  A    between atoms: C6_6  and  O1_7
REMARK    4  A    between atoms: C8_10  and  O2_11
REMARK    5  A    between atoms: O2_11  and  C9_12
REMARK    6  A    between atoms: C9_12  and  C10_13
REMARK    7  A    between atoms: C10_13  and  C11_14
REMARK    8  A    between atoms: C11_14  and  O3_15
REMARK    9  A    between atoms: O3_15  and  C12_16
REMARK   10  A    between atoms: C13_18  and  C14_19
REMARK   11  A    between atoms: C14_19  and  O5_20
REMARK   12  A    between atoms: C15_22  and  O6_23
REMARK   13  A    between atoms: C16_25  and  O7_27
REMARK   14  A    between atoms: C18_29  and  O8_30
REMARK   15  A    between atoms: C19_32  and  O9_33
ROOT
HETATM    1  C12 UNL     1      30.986  -0.168  12.146  1.00  0.00     0.291 C
HETATM    2  O4  UNL     1      30.705  -1.213  11.330  1.00  0.00    -0.348 OA
HETATM    3  C13 UNL     1      29.508  -1.804  11.370  1.00  0.00     0.180 C
HETATM    4  C15 UNL     1      29.365  -2.980  12.284  1.00  0.00     0.185 C
HETATM    5  C16 UNL     1      30.170  -2.966  13.515  1.00  0.00     0.111 C
HETATM    6  C17 UNL     1      29.344  -2.570  14.737  1.00  0.00     0.051 C
HETATM    7  C18 UNL     1      31.421  -2.174  13.516  1.00  0.00     0.188 C
HETATM    8  C19 UNL     1      31.289  -0.693  13.527  1.00  0.00     0.205 C
ENDROOT
BRANCH   1   9
HETATM    9  O3  UNL     1      32.066   0.479  11.562  1.00  0.00    -0.358 OA
BRANCH   9  10
HETATM   10  C11 UNL     1      32.291   0.194  10.251  1.00  0.00     0.173 C
BRANCH  10  11
HETATM   11  C10 UNL     1      32.163   1.338   9.303  1.00  0.00     0.053 C
BRANCH  11  12
HETATM   12  C9  UNL     1      31.464   0.826   8.058  1.00  0.00     0.178 C
BRANCH  12  13
HETATM   13  O2  UNL     1      31.059  -0.509   8.195  1.00  0.00    -0.351 OA
BRANCH  13  14
HETATM   14  C8  UNL     1      29.812  -0.945   7.819  1.00  0.00     0.067 A
HETATM   15  C7  UNL     1      28.814  -0.121   7.605  1.00  0.00     0.048 A
HETATM   16  C6  UNL     1      27.451  -0.501   7.200  1.00  0.00     0.088 A
HETATM   17  C22 UNL     1      27.222  -1.944   7.039  1.00  0.00     0.070 A
HETATM   18  C21 UNL     1      28.384  -2.787   7.293  1.00  0.00    -0.020 A
HETATM   19  C20 UNL     1      29.568  -2.371   7.647  1.00  0.00     0.032 A
BRANCH  16  20
HETATM   20  C3  UNL     1      27.034   0.299   5.982  1.00  0.00    -0.013 C
HETATM   21  C4  UNL     1      25.533   0.566   6.115  1.00  0.00     0.018 C
HETATM   22  C5  UNL     1      27.714   1.620   5.885  1.00  0.00     0.018 C
BRANCH  20  23
HETATM   23  C2  UNL     1      27.216  -0.464   4.706  1.00  0.00     0.007 C
HETATM   24  C1  UNL     1      26.107  -0.258   3.699  1.00  0.00     0.006 C
ENDBRANCH  20  23
ENDBRANCH  16  20
BRANCH  16  25
HETATM   25  O1  UNL     1      26.617  -0.065   8.266  1.00  0.00    -0.385 OA
ATOM     26  H1  UNL     1      26.993  -0.424   9.061  1.00  0.00     0.211 HD
ENDBRANCH  16  25
ENDBRANCH  13  14
ENDBRANCH  12  13
ENDBRANCH  11  12
ENDBRANCH  10  11
ENDBRANCH   9  10
ENDBRANCH   1   9
BRANCH   8  27
HETATM   27  O9  UNL     1      30.450  -0.183  14.496  1.00  0.00    -0.388 OA
ATOM     28  H9  UNL     1      29.964   0.580  14.204  1.00  0.00     0.210 HD
ENDBRANCH   8  27
BRANCH   3  29
HETATM   29  C14 UNL     1      28.322  -0.840  11.519  1.00  0.00     0.198 C
BRANCH  29  30
HETATM   30  O5  UNL     1      27.265  -1.257  10.707  1.00  0.00    -0.398 OA
ATOM     31  H5  UNL     1      26.798  -1.971  11.125  1.00  0.00     0.209 HD
ENDBRANCH  29  30
ENDBRANCH   3  29
BRANCH   7  32
HETATM   32  O8  UNL     1      32.309  -2.520  12.503  1.00  0.00    -0.390 OA
ATOM     33  H8  UNL     1      32.260  -1.957  11.739  1.00  0.00     0.210 HD
ENDBRANCH   7  32
BRANCH   4  34
HETATM   34  O6  UNL     1      29.499  -4.209  11.587  1.00  0.00    -0.390 OA
ATOM     35  H6  UNL     1      30.137  -4.780  11.998  1.00  0.00     0.210 HD
ENDBRANCH   4  34
BRANCH   5  36
HETATM   36  O7  UNL     1      30.555  -4.307  13.785  1.00  0.00    -0.385 OA
ATOM     37  H7  UNL     1      31.386  -4.275  14.245  1.00  0.00     0.210 HD
ENDBRANCH   5  36
TORSDOF 15
ENDMDL