MODEL 1
REMARK VINA RESULT: -7.925323754      0.000      0.000
REMARK  20 active torsions:
REMARK  status: ('A' for Active; 'I' for Inactive)
REMARK    1  A    between atoms: C2_2  and  C3_3
REMARK    2  A    between atoms: C3_3  and  C4_4
REMARK    3  A    between atoms: C4_4  and  C5_5
REMARK    4  A    between atoms: C5_5  and  C6_6
REMARK    5  A    between atoms: C6_6  and  N1_7
REMARK    6  A    between atoms: N1_7  and  C7_10
REMARK    7  A    between atoms: C7_10  and  C8_11
REMARK    8  A    between atoms: C8_11  and  C9_12
REMARK    9  A    between atoms: C9_12  and  N2_13
REMARK       I    between atoms: N2_13  and  C10_15
REMARK       I    between atoms: C10_15  and  N5_22
REMARK   10  A    between atoms: N3_16  and  C11_18
REMARK   11  A    between atoms: N5_22  and  C12_24
REMARK   12  A    between atoms: C12_24  and  C13_25
REMARK   13  A    between atoms: C13_25  and  C14_26
REMARK   14  A    between atoms: C14_26  and  C15_27
REMARK   15  A    between atoms: C17_31  and  N7_32
REMARK       I    between atoms: N7_32  and  C18_34
REMARK   16  A    between atoms: C18_34  and  C19_36
REMARK   17  A    between atoms: C19_36  and  N8_37
REMARK   18  A    between atoms: N8_37  and  C22_40
REMARK   19  A    between atoms: C22_40  and  C23_41
REMARK   20  A    between atoms: C23_41  and  N9_42
ROOT
HETATM    1  C12 UNL     1     -41.300  24.040 -13.423  1.00  0.00     0.138 C
ENDROOT
BRANCH   1   2
HETATM    2  N5  UNL     1     -42.574  23.448 -13.191  1.00  0.00    -0.226 N
HETATM    3  C10 UNL     1     -42.912  22.106 -13.500  1.00  0.00     0.674 C
HETATM    4  N2  UNL     1     -44.046  21.815 -14.349  1.00  0.00    -0.226 N
HETATM    5  N3  UNL     1     -42.230  21.145 -13.028  1.00  0.00    -0.189 N
ATOM      6  H2  UNL     1     -43.884  21.568 -15.325  1.00  0.00     0.177 HD
ATOM      7  H3  UNL     1     -42.545  20.212 -13.295  1.00  0.00     0.184 HD
ATOM      8  H5  UNL     1     -43.297  24.032 -12.772  1.00  0.00     0.177 HD
BRANCH   4   9
HETATM    9  C9  UNL     1     -45.388  21.865 -13.857  1.00  0.00     0.139 C
BRANCH   9  10
HETATM   10  C8  UNL     1     -45.398  22.029 -12.351  1.00  0.00     0.048 C
BRANCH  10  11
HETATM   11  C7  UNL     1     -45.883  20.772 -11.686  1.00  0.00     0.234 C
BRANCH  11  12
HETATM   12  N1  UNL     1     -45.789  19.639 -12.556  1.00  0.00    -0.075 N
ATOM     13  H12 UNL     1     -45.401  19.908 -13.460  1.00  0.00     0.277 HD
ATOM     14  H11 UNL     1     -46.716  19.334 -12.854  1.00  0.00     0.277 HD
BRANCH  12  15
HETATM   15  C6  UNL     1     -45.050  18.542 -11.989  1.00  0.00     0.232 C
BRANCH  15  16
HETATM   16  C5  UNL     1     -43.946  18.072 -12.912  1.00  0.00     0.027 C
BRANCH  16  17
HETATM   17  C4  UNL     1     -42.756  17.529 -12.154  1.00  0.00     0.002 C
BRANCH  17  18
HETATM   18  C3  UNL     1     -42.806  17.952 -10.692  1.00  0.00    -0.000 C
BRANCH  18  19
HETATM   19  C2  UNL     1     -42.253  16.883  -9.805  1.00  0.00    -0.005 C
HETATM   20  C1  UNL     1     -42.178  15.592 -10.616  1.00  0.00     0.005 C
ENDBRANCH  18  19
ENDBRANCH  17  18
ENDBRANCH  16  17
ENDBRANCH  15  16
ENDBRANCH  12  15
ENDBRANCH  11  12
ENDBRANCH  10  11
ENDBRANCH   9  10
ENDBRANCH   4   9
BRANCH   5  21
HETATM   21  C11 UNL     1     -41.106  21.184 -12.194  1.00  0.00     0.191 C
HETATM   22  N4  UNL     1     -41.269  21.067 -10.919  1.00  0.00    -0.395 N
ATOM     23  H42 UNL     1     -42.210  20.948 -10.541  1.00  0.00     0.156 HD
ATOM     24  H41 UNL     1     -40.451  21.095 -10.312  1.00  0.00     0.156 HD
ENDBRANCH   5  21
ENDBRANCH   1   2
BRANCH   1  25
HETATM   25  C13 UNL     1     -40.938  24.091 -14.905  1.00  0.00     0.026 C
BRANCH  25  26
HETATM   26  C14 UNL     1     -40.415  25.475 -15.164  1.00  0.00     0.060 C
BRANCH  26  27
HETATM   27  C15 UNL     1     -41.500  26.262 -15.836  1.00  0.00     0.042 A
HETATM   28  C16 UNL     1     -42.831  25.931 -15.901  1.00  0.00     0.131 A
HETATM   29  N6  UNL     1     -43.426  26.914 -16.594  1.00  0.00    -0.200 N
HETATM   30  C17 UNL     1     -42.490  27.830 -16.947  1.00  0.00     0.685 A
ATOM     31  H6  UNL     1     -44.420  26.965 -16.818  1.00  0.00     0.183 HD
HETATM   32  N10 UNL     1     -41.311  27.438 -16.488  1.00  0.00    -0.194 N
ATOM     33  H10 UNL     1     -40.424  27.929 -16.604  1.00  0.00     0.184 HD
BRANCH  30  34
HETATM   34  N7  UNL     1     -42.724  28.916 -17.635  1.00  0.00    -0.158 N
HETATM   35  C18 UNL     1     -43.744  28.914 -18.605  1.00  0.00     0.262 C
HETATM   36  O1  UNL     1     -43.712  28.014 -19.488  1.00  0.00    -0.271 OA
ATOM     37  H7  UNL     1     -42.172  29.758 -17.470  1.00  0.00     0.187 HD
BRANCH  35  38
HETATM   38  C19 UNL     1     -44.828  29.878 -18.653  1.00  0.00     0.339 C
BRANCH  38  39
HETATM   39  N8  UNL     1     -44.500  31.194 -19.140  1.00  0.00    -0.065 N
HETATM   40  C20 UNL     1     -44.339  32.070 -17.997  1.00  0.00     0.272 C
HETATM   41  C21 UNL     1     -45.609  31.734 -19.926  1.00  0.00     0.272 C
BRANCH  39  42
HETATM   42  C22 UNL     1     -43.323  31.257 -19.942  1.00  0.00     0.264 C
BRANCH  42  43
HETATM   43  C23 UNL     1     -43.609  31.052 -21.422  1.00  0.00     0.257 C
BRANCH  43  44
HETATM   44  N9  UNL     1     -42.738  29.967 -21.885  1.00  0.00    -0.078 N
ATOM     45  H93 UNL     1     -42.509  29.298 -21.151  1.00  0.00     0.274 HD
ATOM     46  H92 UNL     1     -43.209  29.316 -22.513  1.00  0.00     0.274 HD
ATOM     47  H91 UNL     1     -41.914  30.400 -22.302  1.00  0.00     0.274 HD
ENDBRANCH  43  44
ENDBRANCH  42  43
ENDBRANCH  39  42
ENDBRANCH  38  39
ENDBRANCH  35  38
ENDBRANCH  30  34
ENDBRANCH  26  27
ENDBRANCH  25  26
ENDBRANCH   1  25
TORSDOF 20
ENDMDL