MODEL 1
REMARK VINA RESULT: -7.449531458      0.000      0.000
REMARK  18 active torsions:
REMARK  status: ('A' for Active; 'I' for Inactive)
REMARK    1  A    between atoms: C4_4  and  C5_5
REMARK    2  A    between atoms: C5_5  and  N1_6
REMARK       I    between atoms: N1_6  and  C6_8
REMARK       I    between atoms: C6_8  and  N2_10
REMARK    3  A    between atoms: N2_10  and  C7_12
REMARK    4  A    between atoms: C7_12  and  C8_13
REMARK    5  A    between atoms: C8_13  and  C9_14
REMARK    6  A    between atoms: C9_14  and  N3_15
REMARK    7  A    between atoms: N3_15  and  C12_18
REMARK    8  A    between atoms: C12_18  and  C13_19
REMARK       I    between atoms: C13_19  and  N4_21
REMARK    9  A    between atoms: N4_21  and  C14_23
REMARK   10  A    between atoms: C14_23  and  C15_24
REMARK   11  A    between atoms: C15_24  and  C16_25
REMARK   12  A    between atoms: C16_25  and  C17_26
REMARK   13  A    between atoms: C17_26  and  C18_27
REMARK   14  A    between atoms: C18_27  and  N5_28
REMARK   15  A    between atoms: N5_28  and  C19_31
REMARK   16  A    between atoms: C19_31  and  C20_32
REMARK   17  A    between atoms: C20_32  and  C21_33
REMARK   18  A    between atoms: C21_33  and  N6_34
REMARK       I    between atoms: N6_34  and  C22_36
REMARK       I    between atoms: C22_36  and  N7_38
ROOT
HETATM    1  C1  UNL     1     -43.762  17.851 -12.815  1.00  0.00     0.113 C
HETATM    2  C2  UNL     1     -42.984  18.791 -12.770  1.00  0.00    -0.098 C
HETATM    3  C3  UNL     1     -42.064  19.865 -12.711  1.00  0.00    -0.027 C
HETATM    4  C4  UNL     1     -41.257  20.766 -12.655  1.00  0.00    -0.074 C
ENDROOT
BRANCH   4   5
HETATM    5  C5  UNL     1     -40.255  21.841 -12.581  1.00  0.00     0.219 C
BRANCH   5   6
HETATM    6  N1  UNL     1     -40.191  22.618 -13.786  1.00  0.00    -0.332 N
HETATM    7  C6  UNL     1     -41.037  23.733 -13.952  1.00  0.00     0.320 C
HETATM    8  O1  UNL     1     -41.850  24.059 -13.049  1.00  0.00    -0.247 OA
HETATM    9  N2  UNL     1     -41.013  24.536 -15.134  1.00  0.00    -0.323 N
ATOM     10  H2  UNL     1     -40.365  24.285 -15.880  1.00  0.00     0.169 HD
ATOM     11  H1  UNL     1     -39.533  22.363 -14.523  1.00  0.00     0.165 HD
BRANCH   9  12
HETATM   12  C7  UNL     1     -41.837  25.650 -15.315  1.00  0.00     0.067 C
BRANCH  12  13
HETATM   13  C8  UNL     1     -41.315  27.028 -15.432  1.00  0.00     0.072 C
BRANCH  13  14
HETATM   14  C9  UNL     1     -42.209  28.179 -15.503  1.00  0.00     0.242 C
BRANCH  14  15
HETATM   15  N3  UNL     1     -42.545  28.910 -16.633  1.00  0.00    -0.066 N
HETATM   16  C10 UNL     1     -43.001  30.275 -16.297  1.00  0.00     0.272 C
HETATM   17  C11 UNL     1     -41.546  29.009 -17.656  1.00  0.00     0.272 C
BRANCH  15  18
HETATM   18  C12 UNL     1     -43.692  28.236 -17.268  1.00  0.00     0.338 C
BRANCH  18  19
HETATM   19  C13 UNL     1     -44.045  28.689 -18.604  1.00  0.00     0.243 C
HETATM   20  O2  UNL     1     -43.648  28.148 -19.651  1.00  0.00    -0.272 OA
HETATM   21  N4  UNL     1     -44.908  29.838 -18.700  1.00  0.00    -0.360 N
ATOM     22  H4  UNL     1     -45.250  30.284 -17.850  1.00  0.00     0.162 HD
BRANCH  21  23
HETATM   23  C14 UNL     1     -45.290  30.362 -19.975  1.00  0.00     0.122 C
BRANCH  23  24
HETATM   24  C15 UNL     1     -44.380  31.458 -20.392  1.00  0.00     0.020 C
BRANCH  24  25
HETATM   25  C16 UNL     1     -43.903  31.335 -21.846  1.00  0.00     0.003 C
BRANCH  25  26
HETATM   26  C17 UNL     1     -44.819  32.068 -22.763  1.00  0.00     0.027 C
BRANCH  26  27
HETATM   27  C18 UNL     1     -45.622  31.126 -23.619  1.00  0.00     0.232 C
BRANCH  27  28
HETATM   28  N5  UNL     1     -44.845  29.959 -23.912  1.00  0.00    -0.075 N
ATOM     29  H52 UNL     1     -43.886  30.220 -24.141  1.00  0.00     0.277 HD
ATOM     30  H51 UNL     1     -44.681  29.419 -23.063  1.00  0.00     0.277 HD
BRANCH  28  31
HETATM   31  C19 UNL     1     -45.402  29.112 -24.953  1.00  0.00     0.234 C
BRANCH  31  32
HETATM   32  C20 UNL     1     -44.277  28.261 -25.520  1.00  0.00     0.047 C
BRANCH  32  33
HETATM   33  C21 UNL     1     -42.966  28.906 -25.141  1.00  0.00     0.126 C
BRANCH  33  34
HETATM   34  N6  UNL     1     -42.276  29.464 -26.272  1.00  0.00    -0.343 N
HETATM   35  C22 UNL     1     -42.418  30.808 -26.680  1.00  0.00     0.315 C
HETATM   36  O3  UNL     1     -43.151  31.612 -26.073  1.00  0.00    -0.247 OA
HETATM   37  N7  UNL     1     -41.719  31.305 -27.821  1.00  0.00    -0.347 N
HETATM   38  C23 UNL     1     -41.867  32.683 -28.252  1.00  0.00     0.151 C
ATOM     39  H7  UNL     1     -41.105  30.681 -28.344  1.00  0.00     0.163 HD
ATOM     40  H6  UNL     1     -41.652  28.859 -26.806  1.00  0.00     0.164 HD
ENDBRANCH  33  34
ENDBRANCH  32  33
ENDBRANCH  31  32
ENDBRANCH  28  31
ENDBRANCH  27  28
ENDBRANCH  26  27
ENDBRANCH  25  26
ENDBRANCH  24  25
ENDBRANCH  23  24
ENDBRANCH  21  23
ENDBRANCH  18  19
ENDBRANCH  15  18
ENDBRANCH  14  15
ENDBRANCH  13  14
ENDBRANCH  12  13
ENDBRANCH   9  12
ENDBRANCH   5   6
ENDBRANCH   4   5
TORSDOF 18
ENDMDL