MODEL 3
REMARK VINA RESULT: -6.850776069      1.130      1.644
REMARK  17 active torsions:
REMARK  status: ('A' for Active; 'I' for Inactive)
REMARK    1  A    between atoms: C2_2  and  C3_3
REMARK    2  A    between atoms: C3_3  and  C4_4
REMARK    3  A    between atoms: C4_4  and  N1_5
REMARK    4  A    between atoms: N1_5  and  C5_7
REMARK    5  A    between atoms: C5_7  and  C6_8
REMARK    6  A    between atoms: C6_8  and  C7_9
REMARK    7  A    between atoms: C7_9  and  N2_10
REMARK       I    between atoms: N2_10  and  C8_12
REMARK       I    between atoms: C8_12  and  N3_14
REMARK    8  A    between atoms: N3_14  and  C9_16
REMARK    9  A    between atoms: C10_17  and  N4_18
REMARK       I    between atoms: N4_18  and  C11_20
REMARK   10  A    between atoms: C11_20  and  C12_22
REMARK   11  A    between atoms: C12_22  and  N5_23
REMARK   12  A    between atoms: N5_23  and  C13_24
REMARK   13  A    between atoms: C13_24  and  C14_25
REMARK   14  A    between atoms: C14_25  and  C15_26
REMARK   15  A    between atoms: C15_26  and  N6_27
REMARK   16  A    between atoms: N6_27  and  C16_29
REMARK   17  A    between atoms: N8_37  and  C22_39
ROOT
HETATM    1  C9  UNL     1     -44.031  30.412 -20.634  1.00  0.00     0.315 C
HETATM    2  C10 UNL     1     -43.801  31.037 -21.973  1.00  0.00     0.136 C
HETATM    3  C19 UNL     1     -44.524  32.376 -21.826  1.00  0.00     0.057 C
HETATM    4  C20 UNL     1     -45.740  31.928 -21.005  1.00  0.00     0.242 C
HETATM    5  N8  UNL     1     -45.162  31.088 -20.001  1.00  0.00    -0.048 N
HETATM    6  C21 UNL     1     -44.725  31.942 -18.901  1.00  0.00     0.275 C
ENDROOT
BRANCH   2   7
HETATM    7  N4  UNL     1     -44.501  30.323 -23.016  1.00  0.00    -0.351 N
HETATM    8  C11 UNL     1     -43.919  29.198 -23.647  1.00  0.00     0.244 C
HETATM    9  O2  UNL     1     -42.779  28.835 -23.284  1.00  0.00    -0.272 OA
ATOM     10  H4  UNL     1     -45.430  30.635 -23.303  1.00  0.00     0.163 HD
BRANCH   8  11
HETATM   11  C12 UNL     1     -44.618  28.464 -24.702  1.00  0.00     0.339 C
BRANCH  11  12
HETATM   12  N5  UNL     1     -44.058  28.748 -26.031  1.00  0.00    -0.056 N
HETATM   13  C17 UNL     1     -43.156  27.803 -26.615  1.00  0.00     0.266 A
HETATM   14  C18 UNL     1     -44.514  27.926 -27.141  1.00  0.00     0.266 A
BRANCH  12  15
HETATM   15  C13 UNL     1     -43.900  30.159 -26.271  1.00  0.00     0.239 C
BRANCH  15  16
HETATM   16  C14 UNL     1     -42.455  30.592 -26.365  1.00  0.00     0.047 C
BRANCH  16  17
HETATM   17  C15 UNL     1     -42.268  31.698 -27.374  1.00  0.00     0.122 C
BRANCH  17  18
HETATM   18  N6  UNL     1     -41.328  31.368 -28.398  1.00  0.00    -0.386 N
ATOM     19  H6  UNL     1     -40.338  31.538 -28.221  1.00  0.00     0.160 HD
BRANCH  18  20
HETATM   20  C16 UNL     1     -41.705  30.814 -29.652  1.00  0.00     0.168 C
HETATM   21  N7  UNL     1     -42.297  29.658 -29.742  1.00  0.00    -0.396 N
ATOM     22  H72 UNL     1     -42.488  29.148 -28.879  1.00  0.00     0.156 HD
ATOM     23  H71 UNL     1     -42.567  29.261 -30.641  1.00  0.00     0.156 HD
ENDBRANCH  18  20
ENDBRANCH  17  18
ENDBRANCH  16  17
ENDBRANCH  15  16
ENDBRANCH  12  15
ENDBRANCH  11  12
ENDBRANCH   8  11
ENDBRANCH   2   7
BRANCH   1  24
HETATM   24  N3  UNL     1     -42.865  30.499 -19.751  1.00  0.00    -0.313 N
HETATM   25  C8  UNL     1     -42.322  29.293 -19.168  1.00  0.00     0.317 C
HETATM   26  N2  UNL     1     -41.209  29.352 -18.314  1.00  0.00    -0.343 N
HETATM   27  O1  UNL     1     -42.882  28.184 -19.448  1.00  0.00    -0.247 OA
ATOM     28  H2  UNL     1     -40.786  30.258 -18.113  1.00  0.00     0.164 HD
ATOM     29  H3  UNL     1     -42.441  31.404 -19.549  1.00  0.00     0.166 HD
BRANCH  26  30
HETATM   30  C7  UNL     1     -40.634  28.142 -17.700  1.00  0.00     0.129 C
BRANCH  30  31
HETATM   31  C6  UNL     1     -41.166  27.878 -16.336  1.00  0.00     0.064 C
BRANCH  31  32
HETATM   32  C5  UNL     1     -42.172  26.809 -16.156  1.00  0.00     0.057 C
BRANCH  32  33
HETATM   33  N1  UNL     1     -41.847  25.627 -15.506  1.00  0.00    -0.402 N
ATOM     34  H1  UNL     1     -42.597  24.968 -15.298  1.00  0.00     0.158 HD
BRANCH  33  35
HETATM   35  C4  UNL     1     -40.545  25.291 -15.122  1.00  0.00     0.118 C
BRANCH  35  36
HETATM   36  C3  UNL     1     -40.462  23.798 -14.748  1.00  0.00     0.019 C
BRANCH  36  37
HETATM   37  C2  UNL     1     -40.419  23.654 -13.263  1.00  0.00    -0.003 C
HETATM   38  C1  UNL     1     -40.401  22.193 -12.894  1.00  0.00     0.005 C
ENDBRANCH  36  37
ENDBRANCH  35  36
ENDBRANCH  33  35
ENDBRANCH  32  33
ENDBRANCH  31  32
ENDBRANCH  30  31
ENDBRANCH  26  30
ENDBRANCH   1  24
BRANCH   5  39
HETATM   39  C22 UNL     1     -46.038  30.102 -19.446  1.00  0.00     0.235 C
HETATM   40  C23 UNL     1     -47.481  30.465 -19.403  1.00  0.00     0.035 C
ENDBRANCH   5  39
TORSDOF 17
ENDMDL