MODEL 2
REMARK VINA RESULT: -7.275340747      1.708      2.361
REMARK  20 active torsions:
REMARK  status: ('A' for Active; 'I' for Inactive)
REMARK    1  A    between atoms: C3_3  and  N1_4
REMARK    2  A    between atoms: N1_4  and  C6_7
REMARK    3  A    between atoms: C6_7  and  C7_8
REMARK    4  A    between atoms: C7_8  and  C8_9
REMARK    5  A    between atoms: C8_9  and  N2_10
REMARK       I    between atoms: N2_10  and  C9_12
REMARK       I    between atoms: C9_12  and  N4_16
REMARK    6  A    between atoms: N4_16  and  C10_18
REMARK    7  A    between atoms: C10_18  and  C11_19
REMARK    8  A    between atoms: C11_19  and  N5_20
REMARK    9  A    between atoms: N5_20  and  C12_21
REMARK   10  A    between atoms: C12_21  and  C13_22
REMARK   11  A    between atoms: C13_22  and  C14_23
REMARK   12  A    between atoms: C14_23  and  N6_24
REMARK   13  A    between atoms: N6_24  and  C15_26
REMARK   14  A    between atoms: C15_26  and  C17_28
REMARK   15  A    between atoms: C17_28  and  O1_29
REMARK   16  A    between atoms: C17_28  and  N7_31
REMARK   17  A    between atoms: N7_31  and  C18_32
REMARK   18  A    between atoms: C18_32  and  C19_33
REMARK   19  A    between atoms: C19_33  and  C20_34
REMARK   20  A    between atoms: C20_34  and  N8_35
ROOT
HETATM    1  C1  UNL     1     -40.320  20.211 -12.220  1.00  0.00     0.013 C
HETATM    2  C2  UNL     1     -41.328  20.055 -11.658  1.00  0.00    -0.089 C
HETATM    3  C3  UNL     1     -42.559  19.763 -10.985  1.00  0.00     0.328 C
ENDROOT
BRANCH   3   4
HETATM    4  N1  UNL     1     -42.902  18.373 -11.112  1.00  0.00    -0.065 N
HETATM    5  C4  UNL     1     -42.615  17.988 -12.523  1.00  0.00     0.273 C
HETATM    6  C5  UNL     1     -42.095  17.515 -10.256  1.00  0.00     0.273 C
BRANCH   4   7
HETATM    7  C6  UNL     1     -44.320  18.193 -10.863  1.00  0.00     0.239 C
BRANCH   7   8
HETATM    8  C7  UNL     1     -45.161  19.408 -11.155  1.00  0.00     0.048 C
BRANCH   8   9
HETATM    9  C8  UNL     1     -45.869  19.366 -12.453  1.00  0.00     0.139 C
BRANCH   9  10
HETATM   10  N2  UNL     1     -46.381  20.621 -12.889  1.00  0.00    -0.227 N
HETATM   11  C9  UNL     1     -45.664  21.840 -12.953  1.00  0.00     0.667 C
HETATM   12  N3  UNL     1     -45.666  22.749 -12.024  1.00  0.00    -0.235 N
HETATM   13  N4  UNL     1     -44.869  22.181 -14.109  1.00  0.00    -0.225 N
ATOM     14  H32 UNL     1     -46.227  22.508 -11.207  1.00  0.00     0.174 HD
ATOM     15  H31 UNL     1     -45.149  23.627 -12.071  1.00  0.00     0.174 HD
ATOM     16  H4  UNL     1     -45.294  22.393 -15.012  1.00  0.00     0.177 HD
ATOM     17  H2  UNL     1     -47.357  20.644 -13.182  1.00  0.00     0.177 HD
BRANCH  13  18
HETATM   18  C10 UNL     1     -43.417  22.207 -13.912  1.00  0.00     0.166 C
BRANCH  18  19
HETATM   19  C11 UNL     1     -42.968  23.579 -13.625  1.00  0.00     0.257 C
BRANCH  19  20
HETATM   20  N5  UNL     1     -42.075  24.161 -14.583  1.00  0.00    -0.065 N
HETATM   21  C21 UNL     1     -41.297  23.115 -15.242  1.00  0.00     0.237 C
HETATM   22  C22 UNL     1     -40.032  22.902 -14.418  1.00  0.00     0.029 C
HETATM   23  C23 UNL     1     -39.984  24.060 -13.492  1.00  0.00     0.029 C
HETATM   24  C24 UNL     1     -41.081  24.951 -13.936  1.00  0.00     0.237 C
BRANCH  20  25
HETATM   25  C12 UNL     1     -42.685  25.013 -15.560  1.00  0.00     0.242 C
BRANCH  25  26
HETATM   26  C13 UNL     1     -41.730  26.142 -16.023  1.00  0.00     0.072 C
BRANCH  26  27
HETATM   27  C14 UNL     1     -42.467  27.377 -15.846  1.00  0.00     0.058 C
BRANCH  27  28
HETATM   28  N6  UNL     1     -42.216  28.598 -16.571  1.00  0.00    -0.390 N
ATOM     29  H6  UNL     1     -42.427  29.514 -16.176  1.00  0.00     0.159 HD
BRANCH  28  30
HETATM   30  C15 UNL     1     -41.659  28.449 -17.862  1.00  0.00     0.166 C
HETATM   31  C16 UNL     1     -40.378  29.272 -18.052  1.00  0.00     0.042 C
BRANCH  30  32
HETATM   32  C17 UNL     1     -42.584  28.765 -18.969  1.00  0.00     0.206 C
BRANCH  32  33
HETATM   33  O1  UNL     1     -42.181  28.398 -20.150  1.00  0.00    -0.338 OA
ATOM     34  H1  UNL     1     -42.873  28.179 -20.763  1.00  0.00     0.220 HD
ENDBRANCH  32  33
BRANCH  32  35
HETATM   35  N7  UNL     1     -43.786  29.352 -18.749  1.00  0.00    -0.427 NA
BRANCH  35  36
HETATM   36  C18 UNL     1     -45.044  29.966 -18.506  1.00  0.00     0.222 C
BRANCH  36  37
HETATM   37  C19 UNL     1     -45.685  30.529 -19.752  1.00  0.00     0.060 C
BRANCH  37  38
HETATM   38  C20 UNL     1     -44.621  31.304 -20.560  1.00  0.00     0.232 C
BRANCH  38  39
HETATM   39  N8  UNL     1     -44.441  30.539 -21.801  1.00  0.00    -0.079 N
ATOM     40  H83 UNL     1     -44.787  29.582 -21.747  1.00  0.00     0.274 HD
ATOM     41  H82 UNL     1     -45.048  30.843 -22.562  1.00  0.00     0.274 HD
ATOM     42  H81 UNL     1     -43.446  30.605 -22.017  1.00  0.00     0.274 HD
ENDBRANCH  38  39
ENDBRANCH  37  38
ENDBRANCH  36  37
ENDBRANCH  35  36
ENDBRANCH  32  35
ENDBRANCH  30  32
ENDBRANCH  28  30
ENDBRANCH  27  28
ENDBRANCH  26  27
ENDBRANCH  25  26
ENDBRANCH  20  25
ENDBRANCH  19  20
ENDBRANCH  18  19
ENDBRANCH  13  18
ENDBRANCH   9  10
ENDBRANCH   8   9
ENDBRANCH   7   8
ENDBRANCH   4   7
ENDBRANCH   3   4
TORSDOF 20
ENDMDL