MODEL 2
REMARK VINA RESULT: -7.888774897      2.915     11.980
REMARK  17 active torsions:
REMARK  status: ('A' for Active; 'I' for Inactive)
REMARK    1  A    between atoms: C2_2  and  C3_3
REMARK    2  A    between atoms: C3_3  and  C4_4
REMARK    3  A    between atoms: C4_4  and  C5_5
REMARK    4  A    between atoms: C5_5  and  C6_6
REMARK    5  A    between atoms: C6_6  and  C7_7
REMARK    6  A    between atoms: C7_7  and  N1_8
REMARK    7  A    between atoms: N2_12  and  N3_14
REMARK    8  A    between atoms: C11_19  and  N5_20
REMARK       I    between atoms: C12_22  and  N6_23
REMARK       I    between atoms: C12_22  and  N7_26
REMARK    9  A    between atoms: N7_26  and  C14_28
REMARK   10  A    between atoms: C14_28  and  C15_29
REMARK   11  A    between atoms: C15_29  and  C16_30
REMARK   12  A    between atoms: C16_30  and  N8_31
REMARK   13  A    between atoms: N8_31  and  C17_34
REMARK   14  A    between atoms: C17_34  and  C18_35
REMARK   15  A    between atoms: C18_35  and  C19_36
REMARK   16  A    between atoms: C19_36  and  N9_37
REMARK       I    between atoms: N9_37  and  C20_39
REMARK       I    between atoms: C20_39  and  N11_43
REMARK   17  A    between atoms: N11_43  and  C22_45
ROOT
HETATM    1  N5  UNL     1     -44.053  30.377 -19.330  1.00  0.00    -0.199 N
ATOM      2  H5  UNL     1     -44.548  30.949 -20.014  1.00  0.00     0.180 HD
HETATM    3  C12 UNL     1     -43.084  29.797 -19.864  1.00  0.00     0.675 C
HETATM    4  N6  UNL     1     -42.877  30.038 -21.260  1.00  0.00    -0.231 N
ATOM      5  H6  UNL     1     -42.261  29.433 -21.803  1.00  0.00     0.177 HD
HETATM    6  C13 UNL     1     -43.553  31.149 -21.891  1.00  0.00     0.165 C
HETATM    7  N7  UNL     1     -42.223  28.904 -19.185  1.00  0.00    -0.203 N
ATOM      8  H7  UNL     1     -42.618  27.973 -19.057  1.00  0.00     0.183 HD
ENDROOT
BRANCH   1   9
HETATM    9  C11 UNL     1     -44.662  30.476 -18.071  1.00  0.00     0.253 C
HETATM   10  N1  UNL     1     -44.112  31.463 -17.240  1.00  0.00    -0.346 N
HETATM   11  C8  UNL     1     -44.874  32.648 -17.247  1.00  0.00     0.071 C
HETATM   12  C9  UNL     1     -46.242  32.290 -17.803  1.00  0.00     0.103 C
HETATM   13  C10 UNL     1     -46.089  30.900 -18.304  1.00  0.00     0.052 C
HETATM   14  N2  UNL     1     -47.010  30.202 -18.832  1.00  0.00    -0.291 N
ATOM     15  H2  UNL     1     -46.805  29.254 -19.145  1.00  0.00     0.188 HD
BRANCH  10  16
HETATM   16  C7  UNL     1     -43.306  31.144 -16.154  1.00  0.00     0.065 C
BRANCH  16  17
HETATM   17  C6  UNL     1     -43.750  30.182 -15.129  1.00  0.00     0.045 C
BRANCH  17  18
HETATM   18  C5  UNL     1     -44.514  30.742 -13.970  1.00  0.00     0.005 C
BRANCH  18  19
HETATM   19  C4  UNL     1     -43.835  31.996 -13.455  1.00  0.00     0.000 C
BRANCH  19  20
HETATM   20  C3  UNL     1     -43.223  31.837 -12.098  1.00  0.00    -0.000 C
BRANCH  20  21
HETATM   21  C2  UNL     1     -44.200  31.790 -10.970  1.00  0.00    -0.005 C
HETATM   22  C1  UNL     1     -43.564  30.945  -9.866  1.00  0.00     0.005 C
ENDBRANCH  20  21
ENDBRANCH  19  20
ENDBRANCH  18  19
ENDBRANCH  17  18
ENDBRANCH  16  17
ENDBRANCH  10  16
BRANCH  14  23
HETATM   23  N3  UNL     1     -48.299  30.717 -18.989  1.00  0.00    -0.249 N
HETATM   24  N4  UNL     1     -49.212  30.397 -18.182  1.00  0.00    -0.331 N
ATOM     25  H42 UNL     1     -48.992  29.759 -17.417  1.00  0.00     0.178 HD
ATOM     26  H41 UNL     1     -50.153  30.772 -18.297  1.00  0.00     0.178 HD
ATOM     27  H3  UNL     1     -48.502  31.353 -19.760  1.00  0.00     0.207 HD
ENDBRANCH  14  23
ENDBRANCH   1   9
BRANCH   7  28
HETATM   28  C14 UNL     1     -40.932  29.045 -18.653  1.00  0.00     0.103 C
BRANCH  28  29
HETATM   29  C15 UNL     1     -40.541  28.588 -17.328  1.00  0.00     0.018 C
BRANCH  29  30
HETATM   30  C16 UNL     1     -40.769  27.225 -16.831  1.00  0.00     0.261 C
BRANCH  30  31
HETATM   31  N8  UNL     1     -41.267  27.141 -15.469  1.00  0.00    -0.072 N
ATOM     32  H82 UNL     1     -40.752  27.753 -14.836  1.00  0.00     0.277 HD
ATOM     33  H81 UNL     1     -42.188  27.569 -15.372  1.00  0.00     0.277 HD
BRANCH  31  34
HETATM   34  C17 UNL     1     -41.258  25.762 -15.018  1.00  0.00     0.234 C
BRANCH  34  35
HETATM   35  C18 UNL     1     -42.474  24.989 -15.388  1.00  0.00     0.048 C
BRANCH  35  36
HETATM   36  C19 UNL     1     -42.310  23.565 -14.925  1.00  0.00     0.139 C
BRANCH  36  37
HETATM   37  N9  UNL     1     -43.584  22.931 -14.778  1.00  0.00    -0.227 N
HETATM   38  C20 UNL     1     -43.914  22.023 -13.754  1.00  0.00     0.669 C
HETATM   39  N10 UNL     1     -43.508  20.806 -13.813  1.00  0.00    -0.231 N
HETATM   40  N11 UNL     1     -44.704  22.375 -12.607  1.00  0.00    -0.227 N
HETATM   41  C21 UNL     1     -43.812  19.813 -12.794  1.00  0.00     0.165 C
ATOM     42  H10 UNL     1     -42.945  20.521 -14.614  1.00  0.00     0.177 HD
ATOM     43  H11 UNL     1     -44.254  22.529 -11.706  1.00  0.00     0.177 HD
ATOM     44  H9  UNL     1     -44.304  23.152 -15.464  1.00  0.00     0.177 HD
BRANCH  40  45
HETATM   45  C22 UNL     1     -46.135  22.511 -12.733  1.00  0.00     0.133 C
HETATM   46  C23 UNL     1     -46.856  22.127 -11.477  1.00  0.00     0.027 C
ENDBRANCH  40  45
ENDBRANCH  36  37
ENDBRANCH  35  36
ENDBRANCH  34  35
ENDBRANCH  31  34
ENDBRANCH  30  31
ENDBRANCH  29  30
ENDBRANCH  28  29
ENDBRANCH   7  28
TORSDOF 17
ENDMDL