MODEL 3
REMARK VINA RESULT: -7.277933492      1.750      2.635
REMARK  18 active torsions:
REMARK  status: ('A' for Active; 'I' for Inactive)
REMARK    1  A    between atoms: C2_2  and  N1_3
REMARK    2  A    between atoms: N1_3  and  C4_5
REMARK    3  A    between atoms: N1_3  and  C6_7
REMARK    4  A    between atoms: C6_7  and  C7_8
REMARK    5  A    between atoms: C7_8  and  C8_9
REMARK    6  A    between atoms: C8_9  and  N2_10
REMARK    7  A    between atoms: N2_10  and  C9_11
REMARK    8  A    between atoms: C9_11  and  C10_12
REMARK    9  A    between atoms: C10_12  and  N3_13
REMARK   10  A    between atoms: N3_13  and  C11_16
REMARK   11  A    between atoms: C11_16  and  C12_17
REMARK   12  A    between atoms: C12_17  and  C13_18
REMARK   13  A    between atoms: C13_18  and  C14_19
REMARK   14  A    between atoms: C14_19  and  N4_20
REMARK   15  A    between atoms: N4_20  and  C15_23
REMARK   16  A    between atoms: C15_23  and  C16_24
REMARK   17  A    between atoms: C16_24  and  C17_25
REMARK   18  A    between atoms: C17_25  and  N5_26
ROOT
HETATM    1  N2  UNL     1     -43.642  30.655 -18.091  1.00  0.00    -0.004 N
HETATM    2  C19 UNL     1     -44.287  31.927 -18.067  1.00  0.00     0.372 C
HETATM    3  N8  UNL     1     -44.986  32.285 -19.310  1.00  0.00    -0.319 N
ATOM      4  H8  UNL     1     -44.778  33.129 -19.844  1.00  0.00     0.166 HD
HETATM    5  C20 UNL     1     -45.982  31.339 -19.697  1.00  0.00     0.319 C
HETATM    6  O1  UNL     1     -46.957  31.613 -20.447  1.00  0.00    -0.247 OA
HETATM    7  N9  UNL     1     -45.751  30.040 -19.137  1.00  0.00    -0.310 N
ATOM      8  H9  UNL     1     -46.510  29.399 -18.906  1.00  0.00     0.166 HD
HETATM    9  C21 UNL     1     -44.336  29.702 -18.922  1.00  0.00     0.204 C
HETATM   10  C22 UNL     1     -44.346  28.283 -18.424  1.00  0.00     0.071 C
HETATM   11  C23 UNL     1     -43.780  29.584 -20.350  1.00  0.00     0.071 C
ENDROOT
BRANCH   1  12
HETATM   12  C8  UNL     1     -43.499  30.144 -16.747  1.00  0.00     0.209 C
BRANCH  12  13
HETATM   13  C7  UNL     1     -43.657  30.934 -15.566  1.00  0.00     0.050 C
BRANCH  13  14
HETATM   14  C6  UNL     1     -44.227  30.716 -14.262  1.00  0.00     0.203 C
BRANCH  14  15
HETATM   15  N1  UNL     1     -45.172  31.591 -13.657  1.00  0.00    -0.052 N
HETATM   16  C3  UNL     1     -45.580  32.689 -14.526  1.00  0.00     0.278 C
BRANCH  15  17
HETATM   17  C2  UNL     1     -44.771  32.081 -12.392  1.00  0.00     0.238 C
HETATM   18  C1  UNL     1     -43.304  31.872 -12.039  1.00  0.00     0.035 C
ENDBRANCH  15  17
BRANCH  15  19
HETATM   19  C4  UNL     1     -46.438  30.812 -13.516  1.00  0.00     0.238 C
HETATM   20  C5  UNL     1     -46.772  30.424 -12.134  1.00  0.00     0.035 C
ENDBRANCH  15  19
ENDBRANCH  14  15
ENDBRANCH  13  14
ENDBRANCH  12  13
ENDBRANCH   1  12
BRANCH   1  21
HETATM   21  C9  UNL     1     -42.265  30.767 -18.600  1.00  0.00     0.275 C
BRANCH  21  22
HETATM   22  C10 UNL     1     -41.232  30.053 -17.827  1.00  0.00     0.260 C
BRANCH  22  23
HETATM   23  N3  UNL     1     -40.702  28.886 -18.599  1.00  0.00    -0.073 N
ATOM     24  H32 UNL     1     -41.179  28.719 -19.484  1.00  0.00     0.277 HD
ATOM     25  H31 UNL     1     -39.775  29.035 -18.998  1.00  0.00     0.277 HD
BRANCH  23  26
HETATM   26  C11 UNL     1     -40.776  27.787 -17.671  1.00  0.00     0.232 C
BRANCH  26  27
HETATM   27  C12 UNL     1     -40.635  28.076 -16.230  1.00  0.00     0.029 C
BRANCH  27  28
HETATM   28  C13 UNL     1     -41.621  27.329 -15.338  1.00  0.00     0.029 C
BRANCH  28  29
HETATM   29  C14 UNL     1     -42.297  26.286 -16.167  1.00  0.00     0.232 C
BRANCH  29  30
HETATM   30  N4  UNL     1     -42.870  25.176 -15.478  1.00  0.00    -0.075 N
ATOM     31  H42 UNL     1     -43.435  25.465 -14.679  1.00  0.00     0.277 HD
ATOM     32  H41 UNL     1     -43.606  24.722 -16.018  1.00  0.00     0.277 HD
BRANCH  30  33
HETATM   33  C15 UNL     1     -41.796  24.235 -15.093  1.00  0.00     0.234 C
BRANCH  33  34
HETATM   34  C16 UNL     1     -41.696  24.039 -13.615  1.00  0.00     0.047 C
BRANCH  34  35
HETATM   35  C17 UNL     1     -42.494  22.920 -13.038  1.00  0.00     0.123 C
BRANCH  35  36
HETATM   36  N5  UNL     1     -41.705  22.170 -12.089  1.00  0.00    -0.367 N
HETATM   37  C18 UNL     1     -41.549  20.921 -12.050  1.00  0.00     0.196 C
HETATM   38  N6  UNL     1     -42.168  20.052 -12.989  1.00  0.00    -0.067 NA
HETATM   39  N7  UNL     1     -40.693  20.397 -11.023  1.00  0.00    -0.067 NA
ATOM     40  H5  UNL     1     -41.223  22.711 -11.371  1.00  0.00     0.161 HD
ENDBRANCH  35  36
ENDBRANCH  34  35
ENDBRANCH  33  34
ENDBRANCH  30  33
ENDBRANCH  29  30
ENDBRANCH  28  29
ENDBRANCH  27  28
ENDBRANCH  26  27
ENDBRANCH  23  26
ENDBRANCH  22  23
ENDBRANCH  21  22
ENDBRANCH   1  21
TORSDOF 18
ENDMDL