MODEL 4
REMARK VINA RESULT: -8.501745228      4.024      6.130
REMARK  18 active torsions:
REMARK  status: ('A' for Active; 'I' for Inactive)
REMARK    1  A    between atoms: C2_2  and  C3_3
REMARK    2  A    between atoms: C3_3  and  C4_4
REMARK    3  A    between atoms: C4_4  and  C5_5
REMARK    4  A    between atoms: C5_5  and  C6_6
REMARK    5  A    between atoms: C6_6  and  C7_7
REMARK    6  A    between atoms: C7_7  and  N1_8
REMARK       I    between atoms: N1_8  and  C8_10
REMARK    7  A    between atoms: C8_10  and  C9_12
REMARK    8  A    between atoms: C17_20  and  C18_21
REMARK    9  A    between atoms: C18_21  and  N2_22
REMARK   10  A    between atoms: C18_21  and  N3_26
REMARK   11  A    between atoms: N3_26  and  C19_29
REMARK   12  A    between atoms: C19_29  and  C20_30
REMARK   13  A    between atoms: C20_30  and  C21_31
REMARK   14  A    between atoms: C21_31  and  C22_32
REMARK   15  A    between atoms: C22_32  and  N4_33
REMARK       I    between atoms: N4_33  and  C23_35
REMARK   16  A    between atoms: C23_35  and  C24_37
REMARK   17  A    between atoms: C24_37  and  N5_38
REMARK   18  A    between atoms: N5_38  and  N6_40
ROOT
HETATM    1  C18 UNL     1     -42.235  25.421 -15.103  1.00  0.00     0.385 C
ENDROOT
BRANCH   1   2
HETATM    2  C17 UNL     1     -41.826  26.193 -16.309  1.00  0.00     0.053 C
HETATM    3  C12 UNL     1     -40.517  26.889 -16.196  1.00  0.00    -0.006 C
HETATM    4  C11 UNL     1     -40.217  27.570 -17.531  1.00  0.00     0.011 C
HETATM    5  C13 UNL     1     -40.563  28.129 -15.306  1.00  0.00     0.010 C
HETATM    6  C10 UNL     1     -41.355  28.608 -17.544  1.00  0.00     0.003 C
HETATM    7  C9  UNL     1     -42.566  27.813 -17.984  1.00  0.00     0.087 C
HETATM    8  C14 UNL     1     -41.566  28.972 -16.108  1.00  0.00    -0.009 C
HETATM    9  C16 UNL     1     -42.943  27.161 -16.650  1.00  0.00     0.007 C
HETATM   10  C15 UNL     1     -42.921  28.360 -15.729  1.00  0.00     0.011 C
BRANCH   7  11
HETATM   11  C8  UNL     1     -43.653  28.618 -18.546  1.00  0.00     0.222 C
HETATM   12  N1  UNL     1     -43.402  29.955 -18.924  1.00  0.00    -0.361 N
ATOM     13  H1  UNL     1     -42.460  30.323 -18.795  1.00  0.00     0.162 HD
HETATM   14  O1  UNL     1     -44.788  28.132 -18.691  1.00  0.00    -0.273 OA
BRANCH  12  15
HETATM   15  C7  UNL     1     -44.398  30.823 -19.478  1.00  0.00     0.122 C
BRANCH  15  16
HETATM   16  C6  UNL     1     -44.930  31.760 -18.452  1.00  0.00     0.020 C
BRANCH  16  17
HETATM   17  C5  UNL     1     -43.819  32.270 -17.580  1.00  0.00     0.002 C
BRANCH  17  18
HETATM   18  C4  UNL     1     -44.014  31.854 -16.157  1.00  0.00     0.000 C
BRANCH  18  19
HETATM   19  C3  UNL     1     -45.345  31.191 -15.995  1.00  0.00    -0.000 C
BRANCH  19  20
HETATM   20  C2  UNL     1     -45.587  30.733 -14.567  1.00  0.00    -0.005 C
HETATM   21  C1  UNL     1     -44.402  30.986 -13.685  1.00  0.00     0.005 C
ENDBRANCH  19  20
ENDBRANCH  18  19
ENDBRANCH  17  18
ENDBRANCH  16  17
ENDBRANCH  15  16
ENDBRANCH  12  15
ENDBRANCH   7  11
ENDBRANCH   1   2
BRANCH   1  22
HETATM   22  N2  UNL     1     -43.183  24.384 -15.534  1.00  0.00    -0.050 N
ATOM     23  H23 UNL     1     -44.127  24.743 -15.670  1.00  0.00     0.276 HD
ATOM     24  H22 UNL     1     -43.019  24.071 -16.491  1.00  0.00     0.276 HD
ATOM     25  H21 UNL     1     -43.141  23.623 -14.856  1.00  0.00     0.276 HD
ENDBRANCH   1  22
BRANCH   1  26
HETATM   26  N3  UNL     1     -41.147  24.853 -14.353  1.00  0.00    -0.046 N
ATOM     27  H32 UNL     1     -40.248  25.080 -14.779  1.00  0.00     0.279 HD
ATOM     28  H31 UNL     1     -41.028  25.329 -13.459  1.00  0.00     0.279 HD
BRANCH  26  29
HETATM   29  C19 UNL     1     -41.293  23.422 -14.170  1.00  0.00     0.235 C
BRANCH  29  30
HETATM   30  C20 UNL     1     -40.397  22.944 -13.051  1.00  0.00     0.029 C
BRANCH  30  31
HETATM   31  C21 UNL     1     -40.377  21.434 -12.958  1.00  0.00     0.021 C
BRANCH  31  32
HETATM   32  C22 UNL     1     -41.101  20.940 -11.732  1.00  0.00     0.122 C
BRANCH  32  33
HETATM   33  N4  UNL     1     -42.066  19.910 -12.066  1.00  0.00    -0.360 N
HETATM   34  C23 UNL     1     -43.422  20.210 -12.368  1.00  0.00     0.236 C
HETATM   35  O2  UNL     1     -43.771  21.422 -12.338  1.00  0.00    -0.272 OA
ATOM     36  H4  UNL     1     -41.762  18.937 -12.084  1.00  0.00     0.162 HD
BRANCH  34  37
HETATM   37  C24 UNL     1     -44.331  19.097 -12.696  1.00  0.00     0.243 C
BRANCH  37  38
HETATM   38  N5  UNL     1     -45.705  19.416 -12.470  1.00  0.00    -0.314 N
ATOM     39  H5  UNL     1     -46.234  18.842 -11.814  1.00  0.00     0.182 HD
BRANCH  38  40
HETATM   40  N6  UNL     1     -46.362  20.483 -13.106  1.00  0.00    -0.253 N
HETATM   41  N7  UNL     1     -46.775  21.510 -12.513  1.00  0.00    -0.331 N
ATOM     42  H72 UNL     1     -46.615  21.557 -11.507  1.00  0.00     0.178 HD
ATOM     43  H71 UNL     1     -47.252  22.284 -12.975  1.00  0.00     0.178 HD
ATOM     44  H6  UNL     1     -46.514  20.418 -14.113  1.00  0.00     0.207 HD
ENDBRANCH  38  40
ENDBRANCH  37  38
ENDBRANCH  34  37
ENDBRANCH  32  33
ENDBRANCH  31  32
ENDBRANCH  30  31
ENDBRANCH  29  30
ENDBRANCH  26  29
ENDBRANCH   1  26
TORSDOF 18
ENDMDL