MODEL 1
REMARK VINA RESULT: -8.109939501      0.000      0.000
REMARK  17 active torsions:
REMARK  status: ('A' for Active; 'I' for Inactive)
REMARK    1  A    between atoms: C3_3  and  C4_4
REMARK    2  A    between atoms: C4_4  and  N1_5
REMARK       I    between atoms: N1_5  and  C5_7
REMARK       I    between atoms: C5_7  and  N2_8
REMARK    3  A    between atoms: N3_11  and  C6_13
REMARK    4  A    between atoms: C6_13  and  C7_14
REMARK    5  A    between atoms: C7_14  and  C8_15
REMARK    6  A    between atoms: C8_15  and  C9_16
REMARK    7  A    between atoms: C9_16  and  N4_17
REMARK    8  A    between atoms: N6_21  and  C12_22
REMARK    9  A    between atoms: C12_22  and  C13_23
REMARK   10  A    between atoms: C13_23  and  C14_24
REMARK       I    between atoms: C14_24  and  N7_26
REMARK   11  A    between atoms: N7_26  and  C15_27
REMARK   12  A    between atoms: C15_27  and  C16_28
REMARK   13  A    between atoms: C16_28  and  C17_29
REMARK   14  A    between atoms: C17_29  and  N8_30
REMARK   15  A    between atoms: N8_30  and  C18_32
REMARK   16  A    between atoms: C18_32  and  C19_33
REMARK   17  A    between atoms: C19_33  and  C20_34
ROOT
HETATM    1  C1  UNL     1     -40.202  20.411 -11.859  1.00  0.00     0.012 C
HETATM    2  C2  UNL     1     -41.254  20.077 -12.353  1.00  0.00    -0.116 C
HETATM    3  C3  UNL     1     -42.491  19.659 -12.976  1.00  0.00     0.113 C
ENDROOT
BRANCH   3   4
HETATM    4  C4  UNL     1     -43.708  20.414 -12.577  1.00  0.00     0.150 C
BRANCH   4   5
HETATM    5  N1  UNL     1     -43.556  21.840 -12.798  1.00  0.00    -0.226 N
HETATM    6  C5  UNL     1     -43.624  22.503 -14.022  1.00  0.00     0.667 C
HETATM    7  N2  UNL     1     -44.716  22.244 -14.765  1.00  0.00    -0.235 N
HETATM    8  N3  UNL     1     -42.676  23.322 -14.566  1.00  0.00    -0.227 N
ATOM      9  H22 UNL     1     -45.424  21.632 -14.359  1.00  0.00     0.174 HD
ATOM     10  H21 UNL     1     -44.766  22.728 -15.661  1.00  0.00     0.174 HD
ATOM     11  H3  UNL     1     -42.792  23.630 -15.530  1.00  0.00     0.177 HD
ATOM     12  H1  UNL     1     -43.383  22.416 -11.974  1.00  0.00     0.177 HD
BRANCH   8  13
HETATM   13  C6  UNL     1     -41.484  23.783 -13.810  1.00  0.00     0.138 C
BRANCH  13  14
HETATM   14  C7  UNL     1     -40.815  24.858 -14.642  1.00  0.00     0.022 C
BRANCH  14  15
HETATM   15  C8  UNL     1     -41.787  25.721 -15.360  1.00  0.00     0.030 C
BRANCH  15  16
HETATM   16  C9  UNL     1     -41.347  27.143 -15.421  1.00  0.00     0.239 C
BRANCH  16  17
HETATM   17  N4  UNL     1     -42.265  27.980 -16.170  1.00  0.00    -0.038 N
HETATM   18  C10 UNL     1     -42.913  28.996 -15.418  1.00  0.00     0.257 C
HETATM   19  C11 UNL     1     -43.078  30.288 -16.156  1.00  0.00     0.170 C
HETATM   20  N5  UNL     1     -43.212  30.189 -17.577  1.00  0.00    -0.043 NA
HETATM   21  N6  UNL     1     -42.922  28.924 -18.105  1.00  0.00     0.037 N
HETATM   22  C22 UNL     1     -43.957  28.020 -17.741  1.00  0.00     0.290 C
HETATM   23  C24 UNL     1     -41.703  28.497 -17.374  1.00  0.00     0.496 C
HETATM   24  C23 UNL     1     -43.310  27.105 -16.697  1.00  0.00     0.269 C
BRANCH  21  25
HETATM   25  C12 UNL     1     -42.550  29.010 -19.465  1.00  0.00     0.273 C
BRANCH  25  26
HETATM   26  C13 UNL     1     -42.707  30.302 -20.181  1.00  0.00     0.148 C
BRANCH  26  27
HETATM   27  C14 UNL     1     -43.938  30.131 -21.080  1.00  0.00     0.288 C
HETATM   28  O1  UNL     1     -44.986  30.470 -20.651  1.00  0.00    -0.258 OA
HETATM   29  N7  UNL     1     -43.595  29.558 -22.359  1.00  0.00    -0.415 NA
BRANCH  29  30
HETATM   30  C15 UNL     1     -43.297  29.049 -23.496  1.00  0.00     0.227 C
BRANCH  30  31
HETATM   31  C16 UNL     1     -42.986  30.131 -24.543  1.00  0.00     0.078 C
BRANCH  31  32
HETATM   32  C17 UNL     1     -42.318  29.647 -25.757  1.00  0.00     0.062 C
BRANCH  32  33
HETATM   33  N8  UNL     1     -42.578  30.101 -27.030  1.00  0.00    -0.382 N
ATOM     34  H8  UNL     1     -43.172  29.530 -27.631  1.00  0.00     0.163 HD
BRANCH  33  35
HETATM   35  C18 UNL     1     -42.074  31.306 -27.551  1.00  0.00     0.060 C
BRANCH  35  36
HETATM   36  C19 UNL     1     -42.206  31.404 -29.071  1.00  0.00     0.044 C
BRANCH  36  37
HETATM   37  C20 UNL     1     -42.388  32.897 -29.357  1.00  0.00     0.001 C
HETATM   38  C21 UNL     1     -41.052  33.561 -29.382  1.00  0.00     0.005 C
ENDBRANCH  36  37
ENDBRANCH  35  36
ENDBRANCH  33  35
ENDBRANCH  32  33
ENDBRANCH  31  32
ENDBRANCH  30  31
ENDBRANCH  29  30
ENDBRANCH  26  27
ENDBRANCH  25  26
ENDBRANCH  21  25
ENDBRANCH  16  17
ENDBRANCH  15  16
ENDBRANCH  14  15
ENDBRANCH  13  14
ENDBRANCH   8  13
ENDBRANCH   4   5
ENDBRANCH   3   4
TORSDOF 17
ENDMDL