MODEL 1
REMARK VINA RESULT: -7.401098653      0.000      0.000
REMARK  19 active torsions:
REMARK  status: ('A' for Active; 'I' for Inactive)
REMARK    1  A    between atoms: C2_2  and  C3_3
REMARK    2  A    between atoms: C3_3  and  N1_4
REMARK       I    between atoms: C4_6  and  N2_7
REMARK       I    between atoms: C4_6  and  N5_12
REMARK    3  A    between atoms: N5_12  and  C6_14
REMARK    4  A    between atoms: C6_14  and  C7_15
REMARK    5  A    between atoms: C7_15  and  C8_16
REMARK    6  A    between atoms: C8_16  and  C9_17
REMARK    7  A    between atoms: C9_17  and  N6_18
REMARK    8  A    between atoms: N6_18  and  C10_19
REMARK    9  A    between atoms: C10_19  and  C11_20
REMARK   10  A    between atoms: C11_20  and  N7_21
REMARK   11  A    between atoms: N7_21  and  C12_23
REMARK   12  A    between atoms: C12_23  and  C13_25
REMARK   13  A    between atoms: C13_25  and  N8_26
REMARK   14  A    between atoms: N8_26  and  C14_29
REMARK   15  A    between atoms: C14_29  and  C15_30
REMARK   16  A    between atoms: C15_30  and  C16_31
REMARK   17  A    between atoms: C16_31  and  C17_32
REMARK   18  A    between atoms: C17_32  and  C18_33
REMARK   19  A    between atoms: C18_33  and  N9_34
ROOT
HETATM    1  N6  UNL     1     -42.915  29.258 -17.094  1.00  0.00    -0.066 N
HETATM    2  C19 UNL     1     -41.496  29.210 -17.124  1.00  0.00     0.237 C
HETATM    3  C20 UNL     1     -40.996  29.491 -18.497  1.00  0.00     0.029 C
HETATM    4  C21 UNL     1     -42.194  29.277 -19.364  1.00  0.00     0.029 C
HETATM    5  C22 UNL     1     -43.277  28.792 -18.448  1.00  0.00     0.237 C
ENDROOT
BRANCH   1   6
HETATM    6  C9  UNL     1     -43.510  30.525 -16.921  1.00  0.00     0.237 C
BRANCH   6   7
HETATM    7  C8  UNL     1     -43.895  30.895 -15.524  1.00  0.00     0.029 C
BRANCH   7   8
HETATM    8  C7  UNL     1     -45.373  31.241 -15.534  1.00  0.00     0.022 C
BRANCH   8   9
HETATM    9  C6  UNL     1     -46.012  31.046 -14.192  1.00  0.00     0.138 C
BRANCH   9  10
HETATM   10  N5  UNL     1     -44.988  30.769 -13.221  1.00  0.00    -0.226 N
HETATM   11  C4  UNL     1     -45.033  31.274 -11.888  1.00  0.00     0.676 C
HETATM   12  N1  UNL     1     -45.118  30.428 -10.926  1.00  0.00    -0.226 N
HETATM   13  N2  UNL     1     -44.991  32.646 -11.584  1.00  0.00    -0.166 N
ATOM     14  H1  UNL     1     -45.148  29.439 -11.173  1.00  0.00     0.177 HD
HETATM   15  C5  UNL     1     -44.021  33.443 -11.837  1.00  0.00     0.215 C
ATOM     16  H2  UNL     1     -45.808  33.044 -11.119  1.00  0.00     0.186 HD
HETATM   17  N3  UNL     1     -44.158  34.809 -11.453  1.00  0.00    -0.066 NA
HETATM   18  N4  UNL     1     -42.822  33.051 -12.474  1.00  0.00    -0.066 NA
ATOM     19  H5  UNL     1     -44.197  30.187 -13.496  1.00  0.00     0.177 HD
BRANCH  12  20
HETATM   20  C3  UNL     1     -45.176  30.758  -9.538  1.00  0.00     0.137 C
BRANCH  20  21
HETATM   21  C2  UNL     1     -43.940  30.288  -8.784  1.00  0.00     0.016 C
HETATM   22  C1  UNL     1     -42.916  31.392  -8.673  1.00  0.00     0.006 C
ENDBRANCH  20  21
ENDBRANCH  12  20
ENDBRANCH   9  10
ENDBRANCH   8   9
ENDBRANCH   7   8
ENDBRANCH   6   7
ENDBRANCH   1   6
BRANCH   1  23
HETATM   23  C10 UNL     1     -43.476  28.205 -16.231  1.00  0.00     0.257 C
BRANCH  23  24
HETATM   24  C11 UNL     1     -43.362  26.849 -16.815  1.00  0.00     0.148 C
BRANCH  24  25
HETATM   25  N7  UNL     1     -43.255  25.865 -15.758  1.00  0.00    -0.381 N
ATOM     26  H7  UNL     1     -44.088  25.700 -15.193  1.00  0.00     0.160 HD
BRANCH  25  27
HETATM   27  C12 UNL     1     -42.112  25.116 -15.440  1.00  0.00     0.099 C
HETATM   28  S1  UNL     1     -40.644  25.847 -15.518  1.00  0.00    -0.064 SA
BRANCH  27  29
HETATM   29  C13 UNL     1     -42.228  23.695 -15.022  1.00  0.00     0.301 C
BRANCH  29  30
HETATM   30  N8  UNL     1     -43.585  23.221 -15.085  1.00  0.00    -0.069 N
ATOM     31  H82 UNL     1     -44.244  23.985 -14.930  1.00  0.00     0.277 HD
ATOM     32  H81 UNL     1     -43.838  22.973 -16.042  1.00  0.00     0.277 HD
BRANCH  30  33
HETATM   33  C14 UNL     1     -43.848  22.135 -14.192  1.00  0.00     0.232 C
BRANCH  33  34
HETATM   34  C15 UNL     1     -42.606  21.433 -13.689  1.00  0.00     0.027 C
BRANCH  34  35
HETATM   35  C16 UNL     1     -42.947  20.077 -13.127  1.00  0.00     0.003 C
BRANCH  35  36
HETATM   36  C17 UNL     1     -41.832  19.478 -12.312  1.00  0.00     0.027 C
BRANCH  36  37
HETATM   37  C18 UNL     1     -40.624  20.364 -12.208  1.00  0.00     0.229 C
BRANCH  37  38
HETATM   38  N9  UNL     1     -40.472  20.795 -10.829  1.00  0.00    -0.079 N
ATOM     39  H93 UNL     1     -40.197  20.031 -10.211  1.00  0.00     0.274 HD
ATOM     40  H92 UNL     1     -39.653  21.388 -10.696  1.00  0.00     0.274 HD
ATOM     41  H91 UNL     1     -41.334  21.249 -10.526  1.00  0.00     0.274 HD
ENDBRANCH  37  38
ENDBRANCH  36  37
ENDBRANCH  35  36
ENDBRANCH  34  35
ENDBRANCH  33  34
ENDBRANCH  30  33
ENDBRANCH  29  30
ENDBRANCH  27  29
ENDBRANCH  25  27
ENDBRANCH  24  25
ENDBRANCH  23  24
ENDBRANCH   1  23
TORSDOF 19
ENDMDL