MODEL 1
REMARK VINA RESULT: -7.764200965      0.000      0.000
REMARK  18 active torsions:
REMARK  status: ('A' for Active; 'I' for Inactive)
REMARK    1  A    between atoms: C2_2  and  C3_3
REMARK    2  A    between atoms: C3_3  and  N1_4
REMARK    3  A    between atoms: N2_7  and  C6_8
REMARK    4  A    between atoms: C6_8  and  C7_9
REMARK    5  A    between atoms: C7_9  and  C8_10
REMARK    6  A    between atoms: C8_10  and  C9_11
REMARK    7  A    between atoms: C9_11  and  N3_12
REMARK    8  A    between atoms: N3_12  and  C10_15
REMARK    9  A    between atoms: C10_15  and  C11_16
REMARK   10  A    between atoms: C11_16  and  C12_17
REMARK   11  A    between atoms: C12_17  and  N4_18
REMARK       I    between atoms: N4_18  and  C13_20
REMARK       I    between atoms: C13_20  and  N6_24
REMARK   12  A    between atoms: N6_24  and  C14_26
REMARK   13  A    between atoms: C14_26  and  C15_27
REMARK   14  A    between atoms: C15_27  and  C16_28
REMARK   15  A    between atoms: C16_28  and  C17_29
REMARK   16  A    between atoms: C17_29  and  N7_30
REMARK   17  A    between atoms: N7_30  and  S1_32
REMARK   18  A    between atoms: S1_32  and  N8_33
ROOT
HETATM    1  C12 UNL     1     -41.104  22.957 -13.141  1.00  0.00     0.139 C
ENDROOT
BRANCH   1   2
HETATM    2  C11 UNL     1     -41.869  22.657 -14.434  1.00  0.00     0.048 C
BRANCH   2   3
HETATM    3  C10 UNL     1     -41.716  23.828 -15.372  1.00  0.00     0.234 C
BRANCH   3   4
HETATM    4  N3  UNL     1     -42.885  24.661 -15.345  1.00  0.00    -0.075 N
ATOM      5  H32 UNL     1     -43.329  24.618 -14.427  1.00  0.00     0.277 HD
ATOM      6  H31 UNL     1     -43.624  24.253 -15.917  1.00  0.00     0.277 HD
BRANCH   4   7
HETATM    7  C9  UNL     1     -42.662  26.010 -15.719  1.00  0.00     0.232 C
BRANCH   7   8
HETATM    8  C8  UNL     1     -41.230  26.423 -15.811  1.00  0.00     0.029 C
BRANCH   8   9
HETATM    9  C7  UNL     1     -40.960  27.860 -16.037  1.00  0.00     0.029 C
BRANCH   9  10
HETATM   10  C6  UNL     1     -41.027  28.360 -17.427  1.00  0.00     0.237 C
BRANCH  10  11
HETATM   11  N2  UNL     1     -42.141  29.280 -17.594  1.00  0.00    -0.062 N
HETATM   12  C5  UNL     1     -42.701  29.689 -16.321  1.00  0.00     0.266 C
HETATM   13  C4  UNL     1     -44.084  30.232 -16.537  1.00  0.00     0.271 C
HETATM   14  N1  UNL     1     -44.100  30.803 -17.923  1.00  0.00    -0.042 N
HETATM   15  C19 UNL     1     -42.842  31.493 -18.024  1.00  0.00     0.271 C
HETATM   16  C21 UNL     1     -44.240  29.652 -18.764  1.00  0.00     0.271 C
HETATM   17  C18 UNL     1     -41.812  30.430 -18.413  1.00  0.00     0.266 C
HETATM   18  C20 UNL     1     -43.249  28.593 -18.288  1.00  0.00     0.266 C
BRANCH  14  19
HETATM   19  C3  UNL     1     -45.218  31.686 -17.934  1.00  0.00     0.202 C
BRANCH  19  20
HETATM   20  C2  UNL     1     -45.013  33.112 -17.799  1.00  0.00     0.015 C
HETATM   21  C1  UNL     1     -45.867  34.061 -17.516  1.00  0.00     0.013 C
ENDBRANCH  19  20
ENDBRANCH  14  19
ENDBRANCH  10  11
ENDBRANCH   9  10
ENDBRANCH   8   9
ENDBRANCH   7   8
ENDBRANCH   4   7
ENDBRANCH   3   4
ENDBRANCH   2   3
ENDBRANCH   1   2
BRANCH   1  22
HETATM   22  N4  UNL     1     -41.711  22.283 -12.021  1.00  0.00    -0.227 N
HETATM   23  C13 UNL     1     -41.255  20.994 -11.662  1.00  0.00     0.667 C
HETATM   24  N5  UNL     1     -40.254  20.793 -10.901  1.00  0.00    -0.235 N
HETATM   25  N6  UNL     1     -41.973  19.860 -12.188  1.00  0.00    -0.227 N
ATOM     26  H52 UNL     1     -39.746  21.595 -10.529  1.00  0.00     0.174 HD
ATOM     27  H51 UNL     1     -39.924  19.863 -10.643  1.00  0.00     0.174 HD
ATOM     28  H6  UNL     1     -42.273  19.829 -13.162  1.00  0.00     0.177 HD
ATOM     29  H4  UNL     1     -42.461  22.731 -11.493  1.00  0.00     0.177 HD
BRANCH  25  30
HETATM   30  C14 UNL     1     -42.251  18.771 -11.285  1.00  0.00     0.138 C
BRANCH  30  31
HETATM   31  C15 UNL     1     -42.958  17.692 -12.020  1.00  0.00     0.022 C
BRANCH  31  32
HETATM   32  C16 UNL     1     -44.165  18.052 -12.769  1.00  0.00     0.022 C
BRANCH  32  33
HETATM   33  C17 UNL     1     -45.304  18.657 -12.079  1.00  0.00     0.133 C
BRANCH  33  34
HETATM   34  N7  UNL     1     -46.037  19.647 -12.773  1.00  0.00    -0.303 N
ATOM     35  H7  UNL     1     -46.579  19.523 -13.628  1.00  0.00     0.173 HD
BRANCH  34  36
HETATM   36  S1  UNL     1     -45.823  21.140 -11.859  1.00  0.00     0.312 S
HETATM   37  O1  UNL     1     -45.633  20.741 -10.431  1.00  0.00    -0.183 OA
HETATM   38  O2  UNL     1     -44.591  21.826 -12.406  1.00  0.00    -0.183 OA
BRANCH  36  39
HETATM   39  N8  UNL     1     -47.230  22.079 -12.073  1.00  0.00    -0.312 N
ATOM     40  H82 UNL     1     -47.348  22.818 -12.765  1.00  0.00     0.170 HD
ATOM     41  H81 UNL     1     -47.917  21.763 -11.388  1.00  0.00     0.170 HD
ENDBRANCH  36  39
ENDBRANCH  34  36
ENDBRANCH  33  34
ENDBRANCH  32  33
ENDBRANCH  31  32
ENDBRANCH  30  31
ENDBRANCH  25  30
ENDBRANCH   1  22
TORSDOF 18
ENDMDL