MODEL 4
REMARK VINA RESULT: -7.551931254      1.897      2.344
REMARK  18 active torsions:
REMARK  status: ('A' for Active; 'I' for Inactive)
REMARK    1  A    between atoms: N1_1  and  C1_5
REMARK    2  A    between atoms: C1_5  and  C2_6
REMARK    3  A    between atoms: C2_6  and  C3_7
REMARK    4  A    between atoms: C3_7  and  C4_8
REMARK    5  A    between atoms: C4_8  and  N2_9
REMARK    6  A    between atoms: N2_9  and  C5_12
REMARK    7  A    between atoms: C5_12  and  C6_13
REMARK    8  A    between atoms: C6_13  and  C7_14
REMARK    9  A    between atoms: C7_14  and  C8_15
REMARK   10  A    between atoms: C8_15  and  N3_16
REMARK   11  A    between atoms: N3_16  and  C9_19
REMARK   12  A    between atoms: C9_19  and  C10_20
REMARK   13  A    between atoms: C10_20  and  N4_21
REMARK   14  A    between atoms: N5_24  and  C13_25
REMARK   15  A    between atoms: C13_25  and  C14_26
REMARK   16  A    between atoms: C14_26  and  C15_27
REMARK   17  A    between atoms: C15_27  and  N6_28
REMARK   18  A    between atoms: C20_36  and  C21_37
ROOT
HETATM    1  N4  UNL     1      23.233   3.036  13.828  1.00  0.00    -0.052 N
HETATM    2  C11 UNL     1      22.202   3.051  14.800  1.00  0.00     0.266 C
HETATM    3  C12 UNL     1      20.890   2.705  14.104  1.00  0.00     0.265 C
HETATM    4  N5  UNL     1      21.148   2.010  12.887  1.00  0.00    -0.061 N
HETATM    5  C17 UNL     1      22.074   0.915  13.284  1.00  0.00     0.265 C
HETATM    6  C18 UNL     1      23.399   1.610  13.460  1.00  0.00     0.266 C
HETATM    7  C19 UNL     1      21.926   2.763  11.907  1.00  0.00     0.276 C
HETATM    8  C20 UNL     1      22.908   3.700  12.597  1.00  0.00     0.251 C
ENDROOT
BRANCH   1   9
HETATM    9  C10 UNL     1      24.555   3.399  14.289  1.00  0.00     0.266 C
BRANCH   9  10
HETATM   10  C9  UNL     1      25.549   3.490  13.185  1.00  0.00     0.260 C
BRANCH  10  11
HETATM   11  N3  UNL     1      26.643   2.578  13.413  1.00  0.00    -0.074 N
ATOM     12  H32 UNL     1      27.408   2.753  12.762  1.00  0.00     0.277 HD
ATOM     13  H31 UNL     1      26.398   1.631  13.126  1.00  0.00     0.277 HD
BRANCH  11  14
HETATM   14  C8  UNL     1      27.101   2.604  14.767  1.00  0.00     0.232 C
BRANCH  14  15
HETATM   15  C7  UNL     1      28.386   3.291  15.013  1.00  0.00     0.029 C
BRANCH  15  16
HETATM   16  C6  UNL     1      28.360   4.709  15.424  1.00  0.00     0.029 C
BRANCH  16  17
HETATM   17  C5  UNL     1      28.267   5.722  14.330  1.00  0.00     0.232 C
BRANCH  17  18
HETATM   18  N2  UNL     1      29.430   6.563  14.267  1.00  0.00    -0.075 N
ATOM     19  H22 UNL     1      29.304   7.314  13.587  1.00  0.00     0.277 HD
ATOM     20  H21 UNL     1      30.213   6.077  13.829  1.00  0.00     0.277 HD
BRANCH  18  21
HETATM   21  C4  UNL     1      29.791   7.077  15.536  1.00  0.00     0.232 C
BRANCH  21  22
HETATM   22  C3  UNL     1      30.814   8.161  15.432  1.00  0.00     0.029 C
BRANCH  22  23
HETATM   23  C2  UNL     1      31.410   8.277  14.090  1.00  0.00     0.029 C
BRANCH  23  24
HETATM   24  C1  UNL     1      32.875   8.064  13.943  1.00  0.00     0.229 C
BRANCH  24  25
HETATM   25  N1  UNL     1      33.059   6.598  13.774  1.00  0.00    -0.079 N
ATOM     26  H13 UNL     1      32.502   6.040  14.421  1.00  0.00     0.274 HD
ATOM     27  H12 UNL     1      32.651   6.232  12.914  1.00  0.00     0.274 HD
ATOM     28  H11 UNL     1      34.062   6.431  13.852  1.00  0.00     0.274 HD
ENDBRANCH  24  25
ENDBRANCH  23  24
ENDBRANCH  22  23
ENDBRANCH  21  22
ENDBRANCH  18  21
ENDBRANCH  17  18
ENDBRANCH  16  17
ENDBRANCH  15  16
ENDBRANCH  14  15
ENDBRANCH  11  14
ENDBRANCH  10  11
ENDBRANCH   9  10
ENDBRANCH   1   9
BRANCH   8  29
HETATM   29  C21 UNL     1      22.284   5.014  12.725  1.00  0.00    -0.009 A
HETATM   30  C22 UNL     1      22.701   6.149  13.384  1.00  0.00     0.027 A
HETATM   31  C23 UNL     1      21.777   7.151  13.196  1.00  0.00     0.088 A
HETATM   32  N9  UNL     1      20.789   6.674  12.434  1.00  0.00    -0.375 N
HETATM   33  C24 UNL     1      21.094   5.371  12.145  1.00  0.00     0.096 A
ATOM     34  H9  UNL     1      19.961   7.184  12.127  1.00  0.00     0.164 HD
ENDBRANCH   8  29
BRANCH   4  35
HETATM   35  C13 UNL     1      20.054   1.359  12.267  1.00  0.00     0.239 C
BRANCH  35  36
HETATM   36  C14 UNL     1      18.754   1.338  12.975  1.00  0.00     0.048 C
BRANCH  36  37
HETATM   37  C15 UNL     1      18.080  -0.036  12.806  1.00  0.00     0.123 C
BRANCH  37  38
HETATM   38  N6  UNL     1      17.155  -0.326  13.861  1.00  0.00    -0.367 N
HETATM   39  C16 UNL     1      15.901  -0.147  13.690  1.00  0.00     0.196 C
HETATM   40  N7  UNL     1      15.428   0.343  12.449  1.00  0.00    -0.067 NA
HETATM   41  N8  UNL     1      15.007  -0.445  14.732  1.00  0.00    -0.067 NA
ATOM     42  H6  UNL     1      17.499  -0.677  14.755  1.00  0.00     0.161 HD
ENDBRANCH  37  38
ENDBRANCH  36  37
ENDBRANCH  35  36
ENDBRANCH   4  35
TORSDOF 18
ENDMDL