MODEL 5
REMARK VINA RESULT: -7.523847308      2.619      3.759
REMARK  18 active torsions:
REMARK  status: ('A' for Active; 'I' for Inactive)
REMARK    1  A    between atoms: N1_2  and  C4_5
REMARK    2  A    between atoms: C4_5  and  C5_6
REMARK    3  A    between atoms: C5_6  and  C6_7
REMARK    4  A    between atoms: C6_7  and  C7_8
REMARK    5  A    between atoms: C7_8  and  C8_9
REMARK    6  A    between atoms: C8_9  and  N2_10
REMARK    7  A    between atoms: N3_13  and  C11_14
REMARK    8  A    between atoms: C11_14  and  C12_15
REMARK    9  A    between atoms: C12_15  and  C13_16
REMARK   10  A    between atoms: C13_16  and  C14_17
REMARK   11  A    between atoms: C14_17  and  N4_18
REMARK       I    between atoms: N4_18  and  C15_20
REMARK       I    between atoms: C15_20  and  N5_22
REMARK   12  A    between atoms: N5_22  and  C16_24
REMARK   13  A    between atoms: C16_24  and  C17_25
REMARK   14  A    between atoms: C17_25  and  C18_26
REMARK   15  A    between atoms: C18_26  and  N6_27
REMARK   16  A    between atoms: N6_27  and  C19_29
REMARK   17  A    between atoms: C19_29  and  C20_30
REMARK   18  A    between atoms: C23_37  and  O2_38
ROOT
HETATM    1  C12 UNL     1      27.446   2.974  14.784  1.00  0.00     0.030 C
ENDROOT
BRANCH   1   2
HETATM    2  C11 UNL     1      26.255   3.795  15.141  1.00  0.00     0.243 C
BRANCH   2   3
HETATM    3  N3  UNL     1      25.034   3.175  14.759  1.00  0.00    -0.011 N
HETATM    4  C10 UNL     1      24.044   3.058  15.792  1.00  0.00     0.270 C
HETATM    5  C9  UNL     1      22.761   2.829  14.978  1.00  0.00     0.270 C
HETATM    6  N2  UNL     1      23.178   2.925  13.613  1.00  0.00    -0.011 N
HETATM    7  C22 UNL     1      23.907   1.748  13.271  1.00  0.00     0.270 C
HETATM    8  C23 UNL     1      24.284   3.897  13.731  1.00  0.00     0.531 C
HETATM    9  C21 UNL     1      25.184   1.894  14.106  1.00  0.00     0.270 C
BRANCH   6  10
HETATM   10  C8  UNL     1      22.198   3.348  12.679  1.00  0.00     0.243 C
BRANCH  10  11
HETATM   11  C7  UNL     1      21.054   4.078  13.301  1.00  0.00     0.028 C
BRANCH  11  12
HETATM   12  C6  UNL     1      20.961   5.446  12.645  1.00  0.00     0.003 C
BRANCH  12  13
HETATM   13  C5  UNL     1      21.028   6.576  13.647  1.00  0.00     0.028 C
BRANCH  13  14
HETATM   14  C4  UNL     1      19.883   6.534  14.619  1.00  0.00     0.236 C
BRANCH  14  15
HETATM   15  N1  UNL     1      20.178   7.123  15.885  1.00  0.00    -0.079 N
HETATM   16  C1  UNL     1      19.033   7.424  16.686  1.00  0.00     0.271 C
HETATM   17  C2  UNL     1      20.986   8.323  15.785  1.00  0.00     0.271 C
HETATM   18  C3  UNL     1      20.978   6.144  16.635  1.00  0.00     0.271 C
ENDBRANCH  14  15
ENDBRANCH  13  14
ENDBRANCH  12  13
ENDBRANCH  11  12
ENDBRANCH  10  11
ENDBRANCH   6  10
BRANCH   8  19
HETATM   19  O2  UNL     1      24.988   3.973  12.532  1.00  0.00    -0.348 OA
ATOM     20  H2  UNL     1      25.907   3.779  12.678  1.00  0.00     0.214 HD
ENDBRANCH   8  19
ENDBRANCH   2   3
ENDBRANCH   1   2
BRANCH   1  21
HETATM   21  C13 UNL     1      28.609   3.891  14.374  1.00  0.00     0.021 C
BRANCH  21  22
HETATM   22  C14 UNL     1      28.119   5.301  14.195  1.00  0.00     0.124 C
BRANCH  22  23
HETATM   23  N4  UNL     1      29.099   6.317  14.374  1.00  0.00    -0.343 N
HETATM   24  C15 UNL     1      29.337   6.896  15.643  1.00  0.00     0.316 C
HETATM   25  O1  UNL     1      28.715   6.561  16.681  1.00  0.00    -0.247 OA
HETATM   26  N5  UNL     1      30.333   7.921  15.788  1.00  0.00    -0.343 N
ATOM     27  H5  UNL     1      30.855   8.229  14.967  1.00  0.00     0.164 HD
ATOM     28  H4  UNL     1      29.640   6.635  13.570  1.00  0.00     0.164 HD
BRANCH  26  29
HETATM   29  C16 UNL     1      30.611   8.523  17.060  1.00  0.00     0.129 C
BRANCH  29  30
HETATM   30  C17 UNL     1      31.978   8.012  17.573  1.00  0.00     0.064 C
BRANCH  30  31
HETATM   31  C18 UNL     1      33.059   8.793  16.912  1.00  0.00     0.062 C
BRANCH  31  32
HETATM   32  N6  UNL     1      33.815   8.091  15.969  1.00  0.00    -0.376 N
ATOM     33  H6  UNL     1      34.340   7.256  16.231  1.00  0.00     0.164 HD
BRANCH  32  34
HETATM   34  C19 UNL     1      33.828   8.569  14.664  1.00  0.00     0.132 C
BRANCH  34  35
HETATM   35  C20 UNL     1      33.152   7.789  13.605  1.00  0.00     0.125 C
HETATM   36  N7  UNL     1      33.797   6.929  12.956  1.00  0.00    -0.387 N
ATOM     37  H72 UNL     1      34.774   6.755  13.193  1.00  0.00     0.157 HD
ATOM     38  H71 UNL     1      33.331   6.391  12.226  1.00  0.00     0.157 HD
HETATM   39  N8  UNL     1      31.781   8.034  13.273  1.00  0.00    -0.082 NA
ENDBRANCH  34  35
ENDBRANCH  32  34
ENDBRANCH  31  32
ENDBRANCH  30  31
ENDBRANCH  29  30
ENDBRANCH  26  29
ENDBRANCH  22  23
ENDBRANCH  21  22
ENDBRANCH   1  21
TORSDOF 18
ENDMDL