MODEL 3
REMARK VINA RESULT: -6.418369315      2.644     10.488
REMARK  22 active torsions:
REMARK  status: ('A' for Active; 'I' for Inactive)
REMARK    1  A    between atoms: N1_2  and  C3_4
REMARK    2  A    between atoms: N1_2  and  C9_15
REMARK    3  A    between atoms: C3_4  and  C4_5
REMARK    4  A    between atoms: C5_6  and  C6_7
REMARK    5  A    between atoms: C7_8  and  C8_9
REMARK    6  A    between atoms: C8_9  and  O1_13
REMARK    7  A    between atoms: C9_15  and  C10_16
REMARK    8  A    between atoms: C10_16  and  C11_17
REMARK    9  A    between atoms: C11_17  and  N3_18
REMARK       I    between atoms: N3_18  and  C12_20
REMARK       I    between atoms: C12_20  and  N4_22
REMARK   10  A    between atoms: N4_22  and  C13_24
REMARK   11  A    between atoms: C13_24  and  C14_25
REMARK   12  A    between atoms: C14_25  and  C15_26
REMARK   13  A    between atoms: C15_26  and  C16_27
REMARK   14  A    between atoms: C16_27  and  C17_28
REMARK   15  A    between atoms: C17_28  and  N5_29
REMARK   16  A    between atoms: N5_29  and  C18_31
REMARK   17  A    between atoms: C18_31  and  C19_32
REMARK   18  A    between atoms: C19_32  and  N6_33
REMARK   19  A    between atoms: N6_33  and  C22_36
REMARK   20  A    between atoms: C22_36  and  C23_37
REMARK   21  A    between atoms: C23_37  and  C24_38
REMARK   22  A    between atoms: C24_38  and  N7_39
ROOT
HETATM    1  N3  UNL     1      23.162   6.566  13.563  1.00  0.00    -0.343 N
ATOM      2  H3  UNL     1      23.723   7.301  13.993  1.00  0.00     0.164 HD
HETATM    3  C12 UNL     1      23.778   5.350  13.255  1.00  0.00     0.316 C
HETATM    4  O2  UNL     1      23.173   4.404  12.722  1.00  0.00    -0.247 OA
HETATM    5  N4  UNL     1      25.180   5.195  13.570  1.00  0.00    -0.343 N
ATOM      6  H4  UNL     1      25.688   5.960  14.012  1.00  0.00     0.164 HD
ENDROOT
BRANCH   1   7
HETATM    7  C11 UNL     1      21.783   6.826  13.306  1.00  0.00     0.126 C
BRANCH   7   8
HETATM    8  C10 UNL     1      21.019   7.369  14.457  1.00  0.00     0.048 C
BRANCH   8   9
HETATM    9  C9  UNL     1      21.195   6.703  15.764  1.00  0.00     0.239 C
BRANCH   9  10
HETATM   10  N1  UNL     1      20.030   6.248  16.457  1.00  0.00    -0.065 N
HETATM   11  C1  UNL     1      18.871   6.622  15.617  1.00  0.00     0.273 C
HETATM   12  C2  UNL     1      19.857   6.974  17.722  1.00  0.00     0.273 C
BRANCH  10  13
HETATM   13  C3  UNL     1      19.935   4.858  16.724  1.00  0.00     0.330 C
BRANCH  13  14
HETATM   14  C4  UNL     1      19.989   4.117  15.435  1.00  0.00    -0.065 C
HETATM   15  C5  UNL     1      20.014   3.529  14.379  1.00  0.00    -0.013 C
BRANCH  15  16
HETATM   16  C6  UNL     1      20.019   2.855  13.137  1.00  0.00    -0.006 C
HETATM   17  C7  UNL     1      20.032   2.298  12.066  1.00  0.00    -0.009 C
BRANCH  17  18
HETATM   18  C8  UNL     1      20.061   1.658  10.784  1.00  0.00     0.191 C
HETATM   19  N2  UNL     1      20.868   1.981   9.834  1.00  0.00    -0.373 N
ATOM     20  H22 UNL     1      21.527   2.739  10.007  1.00  0.00     0.158 HD
ATOM     21  H21 UNL     1      20.888   1.525   8.922  1.00  0.00     0.158 HD
BRANCH  18  22
HETATM   22  O1  UNL     1      19.163   0.627  10.550  1.00  0.00    -0.340 OA
ATOM     23  H1  UNL     1      19.470  -0.265  10.661  1.00  0.00     0.220 HD
ENDBRANCH  18  22
ENDBRANCH  17  18
ENDBRANCH  15  16
ENDBRANCH  13  14
ENDBRANCH  10  13
ENDBRANCH   9  10
ENDBRANCH   8   9
ENDBRANCH   7   8
ENDBRANCH   1   7
BRANCH   5  24
HETATM   24  C13 UNL     1      25.867   3.963  13.263  1.00  0.00     0.124 C
BRANCH  24  25
HETATM   25  C14 UNL     1      25.972   3.143  14.533  1.00  0.00     0.020 C
BRANCH  25  26
HETATM   26  C15 UNL     1      27.339   2.561  14.686  1.00  0.00     0.007 C
BRANCH  26  27
HETATM   27  C16 UNL     1      28.225   3.497  15.443  1.00  0.00     0.044 C
BRANCH  27  28
HETATM   28  C17 UNL     1      29.419   3.939  14.665  1.00  0.00     0.060 C
BRANCH  28  29
HETATM   29  N5  UNL     1      29.571   5.284  14.389  1.00  0.00    -0.381 N
ATOM     30  H5  UNL     1      28.866   5.722  13.796  1.00  0.00     0.164 HD
BRANCH  29  31
HETATM   31  C18 UNL     1      30.609   6.094  14.852  1.00  0.00     0.087 C
BRANCH  31  32
HETATM   32  C19 UNL     1      30.422   7.570  14.879  1.00  0.00     0.281 C
BRANCH  32  33
HETATM   33  N6  UNL     1      30.593   8.039  16.288  1.00  0.00    -0.070 N
HETATM   34  C20 UNL     1      30.982   9.410  16.260  1.00  0.00     0.272 C
HETATM   35  C21 UNL     1      31.703   7.251  16.795  1.00  0.00     0.272 C
BRANCH  33  36
HETATM   36  C22 UNL     1      29.424   7.718  17.033  1.00  0.00     0.238 C
BRANCH  36  37
HETATM   37  C23 UNL     1      29.597   7.082  18.358  1.00  0.00     0.055 C
BRANCH  37  38
HETATM   38  C24 UNL     1      29.118   7.911  19.520  1.00  0.00     0.231 C
BRANCH  38  39
HETATM   39  N7  UNL     1      30.186   8.860  19.872  1.00  0.00    -0.079 N
ATOM     40  H73 UNL     1      31.119   8.481  19.713  1.00  0.00     0.274 HD
ATOM     41  H72 UNL     1      30.246   9.646  19.225  1.00  0.00     0.274 HD
ATOM     42  H71 UNL     1      30.039   9.155  20.837  1.00  0.00     0.274 HD
ENDBRANCH  38  39
ENDBRANCH  37  38
ENDBRANCH  36  37
ENDBRANCH  33  36
ENDBRANCH  32  33
ENDBRANCH  31  32
ENDBRANCH  29  31
ENDBRANCH  28  29
ENDBRANCH  27  28
ENDBRANCH  26  27
ENDBRANCH  25  26
ENDBRANCH  24  25
ENDBRANCH   5  24
TORSDOF 22
ENDMDL