MODEL 1
REMARK VINA RESULT: -7.509272777      0.000      0.000
REMARK  18 active torsions:
REMARK  status: ('A' for Active; 'I' for Inactive)
REMARK    1  A    between atoms: C2_2  and  C3_3
REMARK    2  A    between atoms: C3_3  and  C4_4
REMARK    3  A    between atoms: C4_4  and  C5_5
REMARK       I    between atoms: C5_5  and  N1_7
REMARK    4  A    between atoms: N1_7  and  C6_9
REMARK    5  A    between atoms: C6_9  and  C7_10
REMARK    6  A    between atoms: C7_10  and  C8_11
REMARK    7  A    between atoms: C8_11  and  N2_12
REMARK       I    between atoms: N2_12  and  C9_14
REMARK       I    between atoms: C9_14  and  N3_16
REMARK    8  A    between atoms: N3_16  and  C10_18
REMARK    9  A    between atoms: C10_18  and  C11_19
REMARK   10  A    between atoms: C11_19  and  N4_22
REMARK   11  A    between atoms: N4_22  and  C14_25
REMARK   12  A    between atoms: C14_25  and  C15_26
REMARK   13  A    between atoms: C15_26  and  N5_27
REMARK   14  A    between atoms: N5_27  and  C18_30
REMARK   15  A    between atoms: C18_30  and  C19_31
REMARK   16  A    between atoms: C19_31  and  C20_32
REMARK   17  A    between atoms: C20_32  and  N6_33
REMARK       I    between atoms: N6_33  and  C21_35
REMARK   18  A    between atoms: C21_35  and  C22_37
ROOT
HETATM    1  C11 UNL     1      24.843   2.810  14.447  1.00  0.00     0.150 C
HETATM    2  C12 UNL     1      24.085   1.690  13.635  1.00  0.00     0.052 C
HETATM    3  C13 UNL     1      24.356   2.644  15.828  1.00  0.00     0.052 C
ENDROOT
BRANCH   1   4
HETATM    4  C10 UNL     1      26.269   2.495  14.161  1.00  0.00     0.103 C
BRANCH   4   5
HETATM    5  N3  UNL     1      27.300   3.070  14.916  1.00  0.00    -0.320 N
HETATM    6  C9  UNL     1      27.752   4.386  15.036  1.00  0.00     0.319 C
HETATM    7  N2  UNL     1      28.868   4.718  15.874  1.00  0.00    -0.343 N
HETATM    8  O2  UNL     1      27.214   5.319  14.431  1.00  0.00    -0.247 OA
ATOM      9  H2  UNL     1      29.341   3.969  16.379  1.00  0.00     0.164 HD
ATOM     10  H3  UNL     1      27.818   2.401  15.487  1.00  0.00     0.169 HD
BRANCH   7  11
HETATM   11  C8  UNL     1      29.348   6.072  16.030  1.00  0.00     0.126 C
BRANCH  11  12
HETATM   12  C7  UNL     1      30.860   6.170  16.008  1.00  0.00     0.039 C
BRANCH  12  13
HETATM   13  C6  UNL     1      31.428   5.763  14.681  1.00  0.00     0.124 C
BRANCH  13  14
HETATM   14  N1  UNL     1      32.633   6.528  14.436  1.00  0.00    -0.361 N
HETATM   15  C5  UNL     1      32.527   7.744  13.683  1.00  0.00     0.217 C
HETATM   16  O1  UNL     1      31.399   8.076  13.282  1.00  0.00    -0.274 OA
ATOM     17  H1  UNL     1      33.535   6.210  14.790  1.00  0.00     0.162 HD
BRANCH  15  18
HETATM   18  C4  UNL     1      33.766   8.510  13.442  1.00  0.00     0.103 C
BRANCH  18  19
HETATM   19  C3  UNL     1      33.892   9.715  14.320  1.00  0.00     0.009 C
BRANCH  19  20
HETATM   20  C2  UNL     1      34.599   9.452  15.623  1.00  0.00    -0.004 C
HETATM   21  C1  UNL     1      33.535   9.465  16.727  1.00  0.00     0.005 C
ENDBRANCH  19  20
ENDBRANCH  18  19
ENDBRANCH  15  18
ENDBRANCH  13  14
ENDBRANCH  12  13
ENDBRANCH  11  12
ENDBRANCH   7  11
ENDBRANCH   4   5
ENDBRANCH   1   4
BRANCH   1  22
HETATM   22  N4  UNL     1      24.389   4.023  13.854  1.00  0.00    -0.061 N
ATOM     23  H42 UNL     1      24.977   4.807  14.138  1.00  0.00     0.278 HD
ATOM     24  H41 UNL     1      24.575   4.027  12.851  1.00  0.00     0.278 HD
BRANCH  22  25
HETATM   25  C14 UNL     1      23.023   4.300  14.113  1.00  0.00     0.261 C
BRANCH  25  26
HETATM   26  C15 UNL     1      22.294   4.851  12.897  1.00  0.00     0.264 C
BRANCH  26  27
HETATM   27  N5  UNL     1      20.845   4.654  13.131  1.00  0.00    -0.073 N
HETATM   28  C16 UNL     1      20.716   3.770  14.325  1.00  0.00     0.272 C
HETATM   29  C17 UNL     1      20.355   5.938  13.536  1.00  0.00     0.272 C
BRANCH  27  30
HETATM   30  C18 UNL     1      20.271   3.967  12.064  1.00  0.00     0.238 C
BRANCH  30  31
HETATM   31  C19 UNL     1      21.050   3.141  11.137  1.00  0.00     0.047 C
BRANCH  31  32
HETATM   32  C20 UNL     1      20.467   1.845  10.709  1.00  0.00     0.124 C
BRANCH  32  33
HETATM   33  N6  UNL     1      19.867   1.195  11.889  1.00  0.00    -0.359 N
HETATM   34  C21 UNL     1      18.675   0.443  11.783  1.00  0.00     0.250 C
HETATM   35  O3  UNL     1      18.124   0.331  10.654  1.00  0.00    -0.271 OA
ATOM     36  H6  UNL     1      20.320   1.290  12.798  1.00  0.00     0.162 HD
BRANCH  34  37
HETATM   37  C22 UNL     1      18.081  -0.205  12.984  1.00  0.00     0.302 A
HETATM   38  C23 UNL     1      17.263   0.537  13.924  1.00  0.00     0.276 A
HETATM   39  N7  UNL     1      16.637  -0.365  12.980  1.00  0.00    -0.058 N
ATOM     40  H72 UNL     1      15.903  -0.278  12.278  1.00  0.00     0.278 HD
ATOM     41  H71 UNL     1      15.998  -1.157  13.054  1.00  0.00     0.278 HD
ENDBRANCH  34  37
ENDBRANCH  32  33
ENDBRANCH  31  32
ENDBRANCH  30  31
ENDBRANCH  27  30
ENDBRANCH  26  27
ENDBRANCH  25  26
ENDBRANCH  22  25
ENDBRANCH   1  22
TORSDOF 18
ENDMDL