MODEL 5
REMARK VINA RESULT: -8.130582586      6.112     10.093
REMARK  19 active torsions:
REMARK  status: ('A' for Active; 'I' for Inactive)
REMARK    1  A    between atoms: C2_2  and  C3_3
REMARK    2  A    between atoms: C3_3  and  C4_4
REMARK    3  A    between atoms: C4_4  and  C5_5
REMARK    4  A    between atoms: C4_4  and  N6_31
REMARK    5  A    between atoms: C5_5  and  N1_6
REMARK       I    between atoms: N1_6  and  C6_8
REMARK    6  A    between atoms: N3_10  and  C7_12
REMARK    7  A    between atoms: C7_12  and  C8_13
REMARK    8  A    between atoms: C8_13  and  C9_14
REMARK    9  A    between atoms: C9_14  and  C10_15
REMARK   10  A    between atoms: C10_15  and  C11_16
REMARK   11  A    between atoms: C11_16  and  N4_17
REMARK   12  A    between atoms: N4_17  and  C12_18
REMARK   13  A    between atoms: C12_18  and  C13_19
REMARK   14  A    between atoms: C13_19  and  C14_20
REMARK   15  A    between atoms: C19_25  and  N5_26
REMARK       I    between atoms: N6_31  and  C21_33
REMARK   16  A    between atoms: C21_33  and  C22_35
REMARK   17  A    between atoms: C22_35  and  N7_36
REMARK   18  A    between atoms: N7_36  and  C23_38
REMARK   19  A    between atoms: N8_39  and  N9_41
ROOT
HETATM    1  N1  UNL     1      32.124   5.933  14.428  1.00  0.00    -0.363 N
ATOM      2  H1  UNL     1      32.406   5.126  13.872  1.00  0.00     0.162 HD
HETATM    3  C6  UNL     1      32.444   7.257  13.974  1.00  0.00     0.184 C
HETATM    4  N2  UNL     1      31.451   8.049  13.309  1.00  0.00    -0.064 NA
HETATM    5  N3  UNL     1      33.608   7.711  14.175  1.00  0.00    -0.365 N
ATOM      6  H3  UNL     1      34.250   7.083  14.659  1.00  0.00     0.162 HD
ENDROOT
BRANCH   1   7
HETATM    7  C5  UNL     1      31.409   5.738  15.658  1.00  0.00     0.147 C
BRANCH   7   8
HETATM    8  C4  UNL     1      30.030   6.171  15.781  1.00  0.00     0.102 C
BRANCH   8   9
HETATM    9  C3  UNL     1      29.387   6.711  16.957  1.00  0.00     0.026 C
BRANCH   9  10
HETATM   10  C2  UNL     1      30.022   7.315  18.118  1.00  0.00    -0.002 C
HETATM   11  C1  UNL     1      29.335   7.219  19.451  1.00  0.00     0.005 C
ENDBRANCH   9  10
ENDBRANCH   8   9
BRANCH   8  12
HETATM   12  N6  UNL     1      29.207   4.962  15.409  1.00  0.00    -0.353 N
HETATM   13  C21 UNL     1      28.206   5.005  14.434  1.00  0.00     0.235 C
HETATM   14  O1  UNL     1      27.975   6.082  13.834  1.00  0.00    -0.272 OA
ATOM     15  H6  UNL     1      29.387   4.078  15.888  1.00  0.00     0.163 HD
BRANCH  13  16
HETATM   16  C22 UNL     1      27.410   3.821  14.088  1.00  0.00     0.223 C
BRANCH  16  17
HETATM   17  N7  UNL     1      26.053   3.823  14.572  1.00  0.00    -0.376 N
ATOM     18  H7  UNL     1      25.853   3.574  15.540  1.00  0.00     0.160 HD
BRANCH  17  19
HETATM   19  C23 UNL     1      24.994   4.175  13.692  1.00  0.00     0.194 C
HETATM   20  N8  UNL     1      24.900   5.357  13.170  1.00  0.00    -0.283 N
ATOM     21  H8  UNL     1      25.613   6.048  13.406  1.00  0.00     0.189 HD
BRANCH  20  22
HETATM   22  N9  UNL     1      23.888   5.731  12.315  1.00  0.00    -0.248 N
HETATM   23  N10 UNL     1      22.933   6.493  12.618  1.00  0.00    -0.331 N
ATOM     24 2H10 UNL     1      22.924   6.851  13.573  1.00  0.00     0.178 HD
ATOM     25 1H10 UNL     1      22.183   6.769  11.985  1.00  0.00     0.178 HD
ATOM     26  H9  UNL     1      23.914   5.362  11.364  1.00  0.00     0.207 HD
ENDBRANCH  20  22
ENDBRANCH  17  19
ENDBRANCH  16  17
ENDBRANCH  13  16
ENDBRANCH   8  12
ENDBRANCH   7   8
ENDBRANCH   1   7
BRANCH   5  27
HETATM   27  C7  UNL     1      34.145   8.990  13.813  1.00  0.00     0.122 C
BRANCH  27  28
HETATM   28  C8  UNL     1      35.336   8.911  12.921  1.00  0.00     0.020 C
BRANCH  28  29
HETATM   29  C9  UNL     1      34.959   8.613  11.484  1.00  0.00     0.003 C
BRANCH  29  30
HETATM   30  C10 UNL     1      35.555   9.690  10.569  1.00  0.00     0.028 C
BRANCH  30  31
HETATM   31  C11 UNL     1      36.888   9.160  10.115  1.00  0.00     0.237 C
BRANCH  31  32
HETATM   32  N4  UNL     1      37.977  10.085  10.235  1.00  0.00    -0.065 N
HETATM   33  C17 UNL     1      39.219   9.303  10.287  1.00  0.00     0.239 C
HETATM   34  C18 UNL     1      40.223  10.268  10.822  1.00  0.00     0.062 C
HETATM   35  C19 UNL     1      39.442  11.145  11.747  1.00  0.00     0.211 C
HETATM   36  C20 UNL     1      37.965  10.873  11.434  1.00  0.00     0.270 C
BRANCH  32  37
HETATM   37  C12 UNL     1      38.120  10.964   9.099  1.00  0.00     0.238 C
BRANCH  37  38
HETATM   38  C13 UNL     1      37.996  10.322   7.761  1.00  0.00     0.032 C
BRANCH  38  39
HETATM   39  C14 UNL     1      39.009  10.882   6.770  1.00  0.00    -0.021 C
HETATM   40  C15 UNL     1      40.076  11.692   7.438  1.00  0.00     0.009 C
HETATM   41  C16 UNL     1      39.622   9.694   6.055  1.00  0.00     0.009 C
ENDBRANCH  38  39
ENDBRANCH  37  38
ENDBRANCH  32  37
BRANCH  35  42
HETATM   42  N5  UNL     1      39.773  12.535  11.579  1.00  0.00    -0.073 N
ATOM     43  H53 UNL     1      39.153  12.985  10.906  1.00  0.00     0.274 HD
ATOM     44  H52 UNL     1      39.530  13.077  12.409  1.00  0.00     0.274 HD
ATOM     45  H51 UNL     1      40.752  12.665  11.326  1.00  0.00     0.274 HD
ENDBRANCH  35  42
ENDBRANCH  31  32
ENDBRANCH  30  31
ENDBRANCH  29  30
ENDBRANCH  28  29
ENDBRANCH  27  28
ENDBRANCH   5  27
TORSDOF 19
ENDMDL