MODEL 3
REMARK VINA RESULT: -7.513894026      2.377      3.049
REMARK  18 active torsions:
REMARK  status: ('A' for Active; 'I' for Inactive)
REMARK    1  A    between atoms: C2_2  and  C3_3
REMARK    2  A    between atoms: C2_2  and  C14_23
REMARK    3  A    between atoms: C3_3  and  N1_4
REMARK    4  A    between atoms: N1_4  and  C6_7
REMARK    5  A    between atoms: C6_7  and  C7_8
REMARK    6  A    between atoms: C7_8  and  N2_9
REMARK       I    between atoms: N2_9  and  C8_11
REMARK       I    between atoms: C8_11  and  N3_13
REMARK    7  A    between atoms: N3_13  and  C9_15
REMARK    8  A    between atoms: C9_15  and  C10_16
REMARK    9  A    between atoms: C10_16  and  C11_17
REMARK   10  A    between atoms: C11_17  and  C12_18
REMARK       I    between atoms: C12_18  and  N4_20
REMARK       I    between atoms: C14_23  and  N5_25
REMARK   11  A    between atoms: N5_25  and  C15_26
REMARK   12  A    between atoms: C15_26  and  C16_27
REMARK   13  A    between atoms: C16_27  and  C17_28
REMARK   14  A    between atoms: C17_28  and  N6_29
REMARK   15  A    between atoms: N6_29  and  C18_31
REMARK   16  A    between atoms: C18_31  and  C19_35
REMARK   17  A    between atoms: C19_35  and  C20_36
REMARK   18  A    between atoms: C19_35  and  C22_38
ROOT
HETATM    1  C3  UNL     1      29.007   3.805  14.227  1.00  0.00     0.219 C
ENDROOT
BRANCH   1   2
HETATM    2  C2  UNL     1      27.685   3.220  14.412  1.00  0.00     0.060 C
HETATM    3  C1  UNL     1      27.502   2.321  15.326  1.00  0.00     0.032 C
BRANCH   2   4
HETATM    4  C14 UNL     1      26.462   3.503  13.592  1.00  0.00     0.321 C
HETATM    5  O3  UNL     1      26.607   4.602  12.953  1.00  0.00    -0.251 OA
HETATM    6  N5  UNL     1      25.442   2.662  13.646  1.00  0.00    -0.411 NA
BRANCH   6   7
HETATM    7  C15 UNL     1      24.270   1.855  13.615  1.00  0.00     0.223 C
BRANCH   7   8
HETATM    8  C16 UNL     1      23.478   2.086  14.921  1.00  0.00     0.053 C
BRANCH   8   9
HETATM    9  C17 UNL     1      23.176   3.599  15.014  1.00  0.00     0.123 C
BRANCH   9  10
HETATM   10  N6  UNL     1      22.525   4.042  13.858  1.00  0.00    -0.380 N
ATOM     11  H6  UNL     1      21.736   3.475  13.549  1.00  0.00     0.160 HD
BRANCH  10  12
HETATM   12  C18 UNL     1      22.816   5.172  13.064  1.00  0.00     0.074 C
HETATM   13  N7  UNL     1      23.805   5.405  12.408  1.00  0.00    -0.389 N
ATOM     14  H72 UNL     1      24.599   4.773  12.504  1.00  0.00     0.157 HD
ATOM     15  H71 UNL     1      24.015   6.221  11.834  1.00  0.00     0.157 HD
BRANCH  12  16
HETATM   16  C19 UNL     1      21.622   6.122  12.919  1.00  0.00     0.052 C
BRANCH  16  17
HETATM   17  C20 UNL     1      21.811   7.382  13.634  1.00  0.00     0.008 C
HETATM   18  C21 UNL     1      21.386   7.513  15.046  1.00  0.00     0.006 C
ENDBRANCH  16  17
BRANCH  16  19
HETATM   19  C22 UNL     1      20.452   5.330  13.524  1.00  0.00     0.008 C
HETATM   20  C23 UNL     1      19.214   5.554  12.702  1.00  0.00     0.006 C
ENDBRANCH  16  19
ENDBRANCH  12  16
ENDBRANCH  10  12
ENDBRANCH   9  10
ENDBRANCH   8   9
ENDBRANCH   7   8
ENDBRANCH   6   7
ENDBRANCH   2   4
ENDBRANCH   1   2
BRANCH   1  21
HETATM   21  N1  UNL     1      29.421   4.923  14.978  1.00  0.00    -0.049 N
HETATM   22  C4  UNL     1      29.132   6.195  14.290  1.00  0.00     0.278 C
HETATM   23  C5  UNL     1      29.021   5.037  16.338  1.00  0.00     0.278 C
BRANCH  21  24
HETATM   24  C6  UNL     1      30.907   4.808  15.008  1.00  0.00     0.286 C
BRANCH  24  25
HETATM   25  C7  UNL     1      31.678   6.024  15.141  1.00  0.00     0.093 C
BRANCH  25  26
HETATM   26  N2  UNL     1      32.861   6.221  14.431  1.00  0.00    -0.321 N
HETATM   27  C8  UNL     1      32.943   7.381  13.504  1.00  0.00     0.319 C
HETATM   28  O1  UNL     1      31.951   8.025  13.235  1.00  0.00    -0.247 OA
HETATM   29  N3  UNL     1      34.241   7.608  13.052  1.00  0.00    -0.343 N
ATOM     30  H3  UNL     1      34.953   6.974  13.415  1.00  0.00     0.164 HD
ATOM     31  H2  UNL     1      33.651   5.585  14.544  1.00  0.00     0.169 HD
BRANCH  29  32
HETATM   32  C9  UNL     1      34.705   8.607  12.152  1.00  0.00     0.125 C
BRANCH  32  33
HETATM   33  C10 UNL     1      34.860   9.949  12.896  1.00  0.00     0.029 C
BRANCH  33  34
HETATM   34  C11 UNL     1      35.855   9.817  13.966  1.00  0.00     0.104 C
BRANCH  34  35
HETATM   35  C12 UNL     1      37.233  10.230  13.647  1.00  0.00     0.217 C
HETATM   36  O2  UNL     1      37.410  10.839  12.590  1.00  0.00    -0.274 OA
HETATM   37  N4  UNL     1      38.309   9.921  14.564  1.00  0.00    -0.365 N
HETATM   38  C13 UNL     1      39.641  10.375  14.266  1.00  0.00     0.149 C
ATOM     39  H4  UNL     1      38.125   9.386  15.413  1.00  0.00     0.161 HD
ENDBRANCH  34  35
ENDBRANCH  33  34
ENDBRANCH  32  33
ENDBRANCH  29  32
ENDBRANCH  25  26
ENDBRANCH  24  25
ENDBRANCH  21  24
ENDBRANCH   1  21
TORSDOF 18
ENDMDL