MODEL 5
REMARK VINA RESULT: -7.400758986      1.305      2.237
REMARK  20 active torsions:
REMARK  status: ('A' for Active; 'I' for Inactive)
REMARK    1  A    between atoms: C3_3  and  C4_4
REMARK    2  A    between atoms: C4_4  and  C5_5
REMARK    3  A    between atoms: C5_5  and  C6_6
REMARK    4  A    between atoms: C6_6  and  N1_7
REMARK    5  A    between atoms: N1_7  and  C7_9
REMARK    6  A    between atoms: C7_9  and  C8_10
REMARK    7  A    between atoms: C8_10  and  N2_11
REMARK    8  A    between atoms: C13_18  and  C14_19
REMARK    9  A    between atoms: C14_19  and  C15_20
REMARK   10  A    between atoms: C15_20  and  N4_21
REMARK   11  A    between atoms: C15_20  and  C22_31
REMARK   12  A    between atoms: N4_21  and  C16_24
REMARK   13  A    between atoms: C16_24  and  C17_25
REMARK   14  A    between atoms: C17_25  and  C18_26
REMARK   15  A    between atoms: C18_26  and  N5_27
REMARK   16  A    between atoms: C22_31  and  N7_35
REMARK   17  A    between atoms: N7_35  and  C23_37
REMARK   18  A    between atoms: C23_37  and  C24_38
REMARK   19  A    between atoms: C24_38  and  C25_39
REMARK   20  A    between atoms: C25_39  and  N8_40
ROOT
HETATM    1  C15 UNL     1      22.459   3.702  13.968  1.00  0.00     0.257 C
ENDROOT
BRANCH   1   2
HETATM    2  C14 UNL     1      23.589   4.024  13.087  1.00  0.00     0.098 C
BRANCH   2   3
HETATM    3  C13 UNL     1      24.943   4.137  13.598  1.00  0.00     0.018 A
HETATM    4  C2  UNL     1      25.777   3.256  14.218  1.00  0.00    -0.032 A
HETATM    5  C1  UNL     1      25.616   1.781  14.485  1.00  0.00     0.050 C
HETATM    6  C3  UNL     1      26.976   3.894  14.561  1.00  0.00    -0.035 A
HETATM    7  C12 UNL     1      26.821   5.193  14.118  1.00  0.00     0.095 A
HETATM    8  N3  UNL     1      25.622   5.331  13.553  1.00  0.00    -0.368 N
ATOM      9  H3  UNL     1      25.261   6.195  13.146  1.00  0.00     0.165 HD
BRANCH   6  10
HETATM   10  C4  UNL     1      28.179   3.375  15.212  1.00  0.00     0.042 C
BRANCH  10  11
HETATM   11  C5  UNL     1      29.420   3.830  14.487  1.00  0.00     0.024 C
BRANCH  11  12
HETATM   12  C6  UNL     1      30.385   4.425  15.540  1.00  0.00     0.114 C
BRANCH  12  13
HETATM   13  N1  UNL     1      31.582   4.761  14.826  1.00  0.00    -0.420 N
ATOM     14  H1  UNL     1      31.892   4.236  14.008  1.00  0.00     0.153 HD
BRANCH  13  15
HETATM   15  C7  UNL     1      32.314   5.880  15.337  1.00  0.00     0.141 C
BRANCH  15  16
HETATM   16  C8  UNL     1      31.598   6.431  16.553  1.00  0.00     0.255 C
BRANCH  16  17
HETATM   17  N2  UNL     1      31.253   7.808  16.474  1.00  0.00    -0.077 N
HETATM   18  C9  UNL     1      32.027   8.644  17.370  1.00  0.00     0.271 C
HETATM   19  C10 UNL     1      29.861   7.961  16.910  1.00  0.00     0.271 C
HETATM   20  C11 UNL     1      31.295   8.355  15.129  1.00  0.00     0.271 C
ENDBRANCH  16  17
ENDBRANCH  15  16
ENDBRANCH  13  15
ENDBRANCH  12  13
ENDBRANCH  11  12
ENDBRANCH  10  11
ENDBRANCH   6  10
ENDBRANCH   2   3
ENDBRANCH   1   2
BRANCH   1  21
HETATM   21  N4  UNL     1      22.108   2.265  13.777  1.00  0.00    -0.064 N
ATOM     22  H42 UNL     1      22.635   1.681  14.426  1.00  0.00     0.278 HD
ATOM     23  H41 UNL     1      21.160   2.084  14.107  1.00  0.00     0.278 HD
BRANCH  21  24
HETATM   24  C16 UNL     1      22.265   1.795  12.459  1.00  0.00     0.235 C
BRANCH  24  25
HETATM   25  C17 UNL     1      20.967   1.736  11.679  1.00  0.00     0.055 C
BRANCH  25  26
HETATM   26  C18 UNL     1      19.878   1.024  12.410  1.00  0.00     0.237 C
BRANCH  26  27
HETATM   27  N5  UNL     1      18.600   1.572  11.989  1.00  0.00    -0.079 N
HETATM   28  C19 UNL     1      18.846   2.695  11.064  1.00  0.00     0.271 C
HETATM   29  C20 UNL     1      17.948   0.553  11.188  1.00  0.00     0.271 C
HETATM   30  C21 UNL     1      17.755   1.972  13.076  1.00  0.00     0.271 C
ENDBRANCH  26  27
ENDBRANCH  25  26
ENDBRANCH  24  25
ENDBRANCH  21  24
ENDBRANCH   1  21
BRANCH   1  31
HETATM   31  C22 UNL     1      22.456   3.912  15.388  1.00  0.00     0.102 C
HETATM   32  N6  UNL     1      22.924   3.189  16.292  1.00  0.00    -0.387 N
ATOM     33  H62 UNL     1      23.357   2.321  15.978  1.00  0.00     0.157 HD
ATOM     34  H61 UNL     1      22.922   3.339  17.302  1.00  0.00     0.157 HD
BRANCH  31  35
HETATM   35  N7  UNL     1      21.839   5.151  15.836  1.00  0.00    -0.378 N
ATOM     36  H7  UNL     1      22.125   5.538  16.735  1.00  0.00     0.160 HD
BRANCH  35  37
HETATM   37  C23 UNL     1      20.848   5.854  15.072  1.00  0.00     0.122 C
BRANCH  37  38
HETATM   38  C24 UNL     1      21.329   7.238  14.732  1.00  0.00     0.047 C
BRANCH  38  39
HETATM   39  C25 UNL     1      22.000   7.277  13.370  1.00  0.00     0.231 C
BRANCH  39  40
HETATM   40  N8  UNL     1      21.093   6.882  12.302  1.00  0.00    -0.079 N
ATOM     41  H83 UNL     1      21.468   6.096  11.770  1.00  0.00     0.274 HD
ATOM     42  H82 UNL     1      20.254   6.438  12.675  1.00  0.00     0.274 HD
ATOM     43  H81 UNL     1      20.857   7.663  11.690  1.00  0.00     0.274 HD
ENDBRANCH  39  40
ENDBRANCH  38  39
ENDBRANCH  37  38
ENDBRANCH  35  37
ENDBRANCH  31  35
ENDBRANCH   1  31
TORSDOF 20
ENDMDL