MODEL 3
REMARK VINA RESULT: -7.385381369      2.888      4.567
REMARK  19 active torsions:
REMARK  status: ('A' for Active; 'I' for Inactive)
REMARK    1  A    between atoms: C3_3  and  C4_4
REMARK    2  A    between atoms: C6_11  and  N3_12
REMARK    3  A    between atoms: N3_12  and  C7_14
REMARK    4  A    between atoms: N4_15  and  C8_16
REMARK    5  A    between atoms: N4_15  and  C11_19
REMARK    6  A    between atoms: C8_16  and  C9_17
REMARK    7  A    between atoms: C11_19  and  C12_20
REMARK    8  A    between atoms: C12_20  and  N5_21
REMARK    9  A    between atoms: N5_21  and  C14_24
REMARK   10  A    between atoms: C14_24  and  C15_25
REMARK   11  A    between atoms: C15_25  and  N6_26
REMARK   12  A    between atoms: N6_26  and  C16_28
REMARK   13  A    between atoms: C16_28  and  O3_29
REMARK   14  A    between atoms: N7_31  and  C17_33
REMARK   15  A    between atoms: C17_33  and  C18_34
REMARK   16  A    between atoms: C18_34  and  C19_35
REMARK   17  A    between atoms: C19_35  and  N8_36
REMARK   18  A    between atoms: N8_36  and  C20_38
REMARK   19  A    between atoms: C20_38  and  C21_39
ROOT
HETATM    1  C1  UNL     1      20.996   7.051  15.789  1.00  0.00     0.097 C
HETATM    2  C2  UNL     1      21.321   7.030  14.608  1.00  0.00    -0.181 C
HETATM    3  C3  UNL     1      21.698   7.038  13.201  1.00  0.00     0.140 C
ENDROOT
BRANCH   3   4
HETATM    4  C4  UNL     1      21.879   5.674  12.680  1.00  0.00     0.068 A
HETATM    5  N1  UNL     1      21.042   5.138  11.740  1.00  0.00    -0.308 N
HETATM    6  C5  UNL     1      21.483   3.909  11.481  1.00  0.00     0.326 A
ATOM      7  H1  UNL     1      20.233   5.593  11.317  1.00  0.00     0.170 HD
HETATM    8  O1  UNL     1      20.926   3.145  10.651  1.00  0.00    -0.247 OA
HETATM    9  N2  UNL     1      22.582   3.669  12.243  1.00  0.00    -0.293 N
HETATM   10  C6  UNL     1      22.845   4.754  12.997  1.00  0.00     0.134 A
ATOM     11  H2  UNL     1      23.122   2.803  12.245  1.00  0.00     0.172 HD
BRANCH  10  12
HETATM   12  N3  UNL     1      23.882   4.924  13.942  1.00  0.00    -0.337 N
ATOM     13  H3  UNL     1      23.612   5.226  14.879  1.00  0.00     0.168 HD
BRANCH  12  14
HETATM   14  C7  UNL     1      25.266   4.714  13.704  1.00  0.00     0.184 C
HETATM   15  N4  UNL     1      25.940   3.655  13.764  1.00  0.00    -0.355 N
BRANCH  15  16
HETATM   16  C8  UNL     1      25.498   2.362  14.083  1.00  0.00     0.064 C
BRANCH  16  17
HETATM   17  C9  UNL     1      24.791   2.061  15.341  1.00  0.00     0.040 C
HETATM   18  C10 UNL     1      23.332   1.680  15.135  1.00  0.00     0.010 C
ENDBRANCH  16  17
ENDBRANCH  15  16
BRANCH  15  19
HETATM   19  C11 UNL     1      27.418   3.781  13.610  1.00  0.00     0.165 C
BRANCH  19  20
HETATM   20  C12 UNL     1      28.074   3.975  14.952  1.00  0.00     0.331 C
BRANCH  20  21
HETATM   21  N5  UNL     1      29.183   4.879  14.840  1.00  0.00     0.012 N
HETATM   22  C13 UNL     1      29.320   5.483  16.186  1.00  0.00     0.356 C
HETATM   23  O2  UNL     1      28.861   5.864  13.953  1.00  0.00    -0.065 OA
BRANCH  21  24
HETATM   24  C14 UNL     1      30.448   4.348  14.473  1.00  0.00     0.331 C
BRANCH  24  25
HETATM   25  C15 UNL     1      31.493   5.176  15.183  1.00  0.00     0.159 C
BRANCH  25  26
HETATM   26  N6  UNL     1      32.517   5.719  14.341  1.00  0.00    -0.354 N
ATOM     27  H6  UNL     1      33.292   5.152  13.998  1.00  0.00     0.163 HD
BRANCH  26  28
HETATM   28  C16 UNL     1      32.387   7.126  14.005  1.00  0.00     0.212 C
HETATM   29  N7  UNL     1      33.441   7.820  14.172  1.00  0.00    -0.356 N
ATOM     30  H7  UNL     1      34.250   7.305  14.520  1.00  0.00     0.163 HD
BRANCH  28  31
HETATM   31  O3  UNL     1      31.238   7.686  13.544  1.00  0.00    -0.333 OA
ATOM     32  H3  UNL     1      30.515   7.942  14.105  1.00  0.00     0.220 HD
ENDBRANCH  28  31
BRANCH  29  33
HETATM   33  C17 UNL     1      33.659   9.227  13.942  1.00  0.00     0.128 C
BRANCH  33  34
HETATM   34  C18 UNL     1      35.088   9.398  13.521  1.00  0.00     0.064 C
BRANCH  34  35
HETATM   35  C19 UNL     1      35.479  10.533  12.687  1.00  0.00     0.057 C
BRANCH  35  36
HETATM   36  N8  UNL     1      35.795  10.358  11.343  1.00  0.00    -0.402 N
ATOM     37  H8  UNL     1      36.590  10.871  10.962  1.00  0.00     0.158 HD
BRANCH  36  38
HETATM   38  C20 UNL     1      35.077   9.515  10.487  1.00  0.00     0.118 C
BRANCH  38  39
HETATM   39  C21 UNL     1      36.080   8.803   9.561  1.00  0.00     0.015 C
HETATM   40  C22 UNL     1      36.082   9.402   8.199  1.00  0.00     0.006 C
ENDBRANCH  38  39
ENDBRANCH  36  38
ENDBRANCH  35  36
ENDBRANCH  34  35
ENDBRANCH  33  34
ENDBRANCH  29  33
ENDBRANCH  26  28
ENDBRANCH  25  26
ENDBRANCH  24  25
ENDBRANCH  21  24
ENDBRANCH  20  21
ENDBRANCH  19  20
ENDBRANCH  15  19
ENDBRANCH  12  14
ENDBRANCH  10  12
ENDBRANCH   3   4
TORSDOF 19
ENDMDL