MODEL 5
REMARK VINA RESULT: -7.283271259      1.408      1.838
REMARK  19 active torsions:
REMARK  status: ('A' for Active; 'I' for Inactive)
REMARK    1  A    between atoms: C2_2  and  C3_3
REMARK    2  A    between atoms: C3_3  and  C4_4
REMARK    3  A    between atoms: C4_4  and  C5_5
REMARK    4  A    between atoms: C5_5  and  N1_6
REMARK    5  A    between atoms: C9_12  and  C10_13
REMARK    6  A    between atoms: C10_13  and  C11_14
REMARK    7  A    between atoms: C11_14  and  N3_15
REMARK    8  A    between atoms: N3_15  and  C12_16
REMARK    9  A    between atoms: C12_16  and  C13_17
REMARK   10  A    between atoms: C13_17  and  C14_18
REMARK   11  A    between atoms: C14_18  and  N4_19
REMARK   12  A    between atoms: N4_19  and  C15_21
REMARK   13  A    between atoms: C15_21  and  C16_22
REMARK   14  A    between atoms: C16_22  and  N5_23
REMARK       I    between atoms: N5_23  and  C17_25
REMARK   15  A    between atoms: N7_27  and  C18_29
REMARK   16  A    between atoms: C18_29  and  C19_30
REMARK   17  A    between atoms: C19_30  and  C20_31
REMARK   18  A    between atoms: C20_31  and  C21_32
REMARK   19  A    between atoms: C21_32  and  N8_33
ROOT
HETATM    1  C12 UNL     1      25.969   2.501  14.680  1.00  0.00     0.253 C
ENDROOT
BRANCH   1   2
HETATM    2  N3  UNL     1      24.617   2.894  14.226  1.00  0.00     0.030 N
HETATM    3  C22 UNL     1      23.820   3.077  15.428  1.00  0.00     0.376 C
HETATM    4  N9  UNL     1      23.359   1.721  15.174  1.00  0.00    -0.312 N
HETATM    5  C23 UNL     1      23.902   1.759  13.844  1.00  0.00     0.418 C
ATOM      6  H9  UNL     1      22.854   1.024  15.720  1.00  0.00     0.165 HD
HETATM    7  O1  UNL     1      23.702   1.000  12.868  1.00  0.00    -0.239 OA
BRANCH   2   8
HETATM    8  C11 UNL     1      24.704   4.024  13.390  1.00  0.00     0.259 C
BRANCH   8   9
HETATM    9  C10 UNL     1      23.592   4.476  12.562  1.00  0.00     0.105 C
BRANCH   9  10
HETATM   10  C9  UNL     1      22.517   5.303  13.200  1.00  0.00     0.089 A
HETATM   11  N1  UNL     1      21.213   4.982  13.197  1.00  0.00    -0.321 N
HETATM   12  C6  UNL     1      20.556   5.952  13.903  1.00  0.00     0.122 A
HETATM   13  C7  UNL     1      21.485   6.847  14.322  1.00  0.00     0.022 A
HETATM   14  C8  UNL     1      21.205   8.087  15.137  1.00  0.00     0.069 C
HETATM   15  N2  UNL     1      22.682   6.439  13.886  1.00  0.00    -0.348 N
ATOM     16  H2  UNL     1      23.570   6.914  14.049  1.00  0.00     0.167 HD
BRANCH  11  17
HETATM   17  C5  UNL     1      20.525   3.905  12.550  1.00  0.00     0.093 C
BRANCH  17  18
HETATM   18  C4  UNL     1      20.343   2.600  13.183  1.00  0.00    -0.009 C
BRANCH  18  19
HETATM   19  C3  UNL     1      20.314   1.325  12.475  1.00  0.00     0.028 C
BRANCH  19  20
HETATM   20  C2  UNL     1      19.125   0.446  12.532  1.00  0.00    -0.001 C
HETATM   21  C1  UNL     1      18.313   0.564  11.214  1.00  0.00     0.005 C
ENDBRANCH  19  20
ENDBRANCH  18  19
ENDBRANCH  17  18
ENDBRANCH  11  17
ENDBRANCH   9  10
ENDBRANCH   8   9
ENDBRANCH   2   8
ENDBRANCH   1   2
BRANCH   1  22
HETATM   22  C13 UNL     1      26.789   3.693  15.088  1.00  0.00     0.048 C
BRANCH  22  23
HETATM   23  C14 UNL     1      28.249   3.234  15.023  1.00  0.00     0.120 C
BRANCH  23  24
HETATM   24  N4  UNL     1      28.999   4.216  14.337  1.00  0.00    -0.401 N
ATOM     25  H4  UNL     1      29.862   3.966  13.854  1.00  0.00     0.158 HD
BRANCH  24  26
HETATM   26  C15 UNL     1      28.538   5.543  14.332  1.00  0.00     0.075 C
BRANCH  26  27
HETATM   27  C16 UNL     1      29.525   6.606  14.685  1.00  0.00     0.166 C
BRANCH  27  28
HETATM   28  N5  UNL     1      30.207   6.324  15.903  1.00  0.00    -0.360 N
HETATM   29  C17 UNL     1      30.175   7.107  17.071  1.00  0.00     0.184 C
HETATM   30  N6  UNL     1      28.953   7.376  17.779  1.00  0.00    -0.064 NA
HETATM   31  N7  UNL     1      31.266   7.594  17.555  1.00  0.00    -0.365 N
ATOM     32  H7  UNL     1      31.217   8.160  18.402  1.00  0.00     0.162 HD
ATOM     33  H5  UNL     1      30.771   5.474  15.931  1.00  0.00     0.162 HD
BRANCH  31  34
HETATM   34  C18 UNL     1      32.549   7.368  16.947  1.00  0.00     0.122 C
BRANCH  34  35
HETATM   35  C19 UNL     1      33.222   8.606  16.460  1.00  0.00     0.021 C
BRANCH  35  36
HETATM   36  C20 UNL     1      33.767   8.594  15.085  1.00  0.00     0.029 C
BRANCH  36  37
HETATM   37  C21 UNL     1      32.850   8.253  13.970  1.00  0.00     0.229 C
BRANCH  37  38
HETATM   38  N8  UNL     1      33.192   6.874  13.549  1.00  0.00    -0.079 N
ATOM     39  H83 UNL     1      33.925   6.839  12.841  1.00  0.00     0.274 HD
ATOM     40  H82 UNL     1      33.682   6.342  14.267  1.00  0.00     0.274 HD
ATOM     41  H81 UNL     1      32.320   6.437  13.248  1.00  0.00     0.274 HD
ENDBRANCH  37  38
ENDBRANCH  36  37
ENDBRANCH  35  36
ENDBRANCH  34  35
ENDBRANCH  31  34
ENDBRANCH  27  28
ENDBRANCH  26  27
ENDBRANCH  24  26
ENDBRANCH  23  24
ENDBRANCH  22  23
ENDBRANCH   1  22
TORSDOF 19
ENDMDL