MODEL 1
REMARK VINA RESULT: -7.221273583      0.000      0.000
REMARK  18 active torsions:
REMARK  status: ('A' for Active; 'I' for Inactive)
REMARK    1  A    between atoms: C2_2  and  C3_3
REMARK    2  A    between atoms: C3_3  and  N1_4
REMARK       I    between atoms: N1_4  and  C4_6
REMARK       I    between atoms: C4_6  and  N2_8
REMARK    3  A    between atoms: N2_8  and  C5_10
REMARK    4  A    between atoms: C5_10  and  C6_11
REMARK    5  A    between atoms: C6_11  and  C7_12
REMARK    6  A    between atoms: C7_12  and  N3_13
REMARK    7  A    between atoms: N3_13  and  C8_14
REMARK    8  A    between atoms: C8_14  and  C9_15
REMARK       I    between atoms: C9_15  and  N4_17
REMARK    9  A    between atoms: N4_17  and  C10_19
REMARK   10  A    between atoms: C10_19  and  C11_20
REMARK   11  A    between atoms: C11_20  and  N5_21
REMARK   12  A    between atoms: N5_21  and  C12_24
REMARK   13  A    between atoms: C12_24  and  C13_25
REMARK   14  A    between atoms: C13_25  and  C14_26
REMARK   15  A    between atoms: C14_26  and  C15_27
REMARK   16  A    between atoms: C15_27  and  N6_28
REMARK   17  A    between atoms: C19_35  and  N7_36
REMARK   18  A    between atoms: C20_38  and  C21_39
ROOT
HETATM    1  N3  UNL     1      30.407   6.265  15.384  1.00  0.00    -0.031 N
HETATM    2  C16 UNL     1      30.827   5.004  15.857  1.00  0.00     0.250 C
HETATM    3  C17 UNL     1      32.265   5.330  15.484  1.00  0.00     0.095 C
HETATM    4  C18 UNL     1      31.732   6.556  14.877  1.00  0.00     0.131 C
HETATM    5  C19 UNL     1      32.209   7.537  14.165  1.00  0.00     0.120 C
ENDROOT
BRANCH   1   6
HETATM    6  C7  UNL     1      29.850   7.290  16.160  1.00  0.00     0.246 C
BRANCH   6   7
HETATM    7  C6  UNL     1      29.767   7.254  17.621  1.00  0.00     0.048 C
BRANCH   7   8
HETATM    8  C5  UNL     1      30.480   8.342  18.331  1.00  0.00     0.126 C
BRANCH   8   9
HETATM    9  N2  UNL     1      31.910   8.367  17.986  1.00  0.00    -0.343 N
HETATM   10  C4  UNL     1      32.396   9.480  17.213  1.00  0.00     0.316 C
HETATM   11  N1  UNL     1      33.758   9.568  16.850  1.00  0.00    -0.343 N
HETATM   12  O1  UNL     1      31.602  10.384  16.855  1.00  0.00    -0.247 OA
ATOM     13  H1  UNL     1      34.396   8.829  17.144  1.00  0.00     0.164 HD
ATOM     14  H2  UNL     1      32.537   7.619  18.285  1.00  0.00     0.164 HD
BRANCH  11  15
HETATM   15  C3  UNL     1      34.272  10.662  16.083  1.00  0.00     0.124 C
BRANCH  15  16
HETATM   16  C2  UNL     1      35.685  10.502  15.615  1.00  0.00     0.015 C
HETATM   17  C1  UNL     1      36.182  11.890  15.237  1.00  0.00     0.006 C
ENDBRANCH  15  16
ENDBRANCH  11  15
ENDBRANCH   8   9
ENDBRANCH   7   8
ENDBRANCH   6   7
ENDBRANCH   1   6
BRANCH   1  18
HETATM   18  C8  UNL     1      29.483   6.028  14.232  1.00  0.00     0.346 C
BRANCH  18  19
HETATM   19  C9  UNL     1      28.463   5.068  14.659  1.00  0.00     0.244 C
HETATM   20  O2  UNL     1      27.460   5.399  15.339  1.00  0.00    -0.272 OA
HETATM   21  N4  UNL     1      28.556   3.667  14.321  1.00  0.00    -0.358 N
ATOM     22  H4  UNL     1      29.335   3.313  13.766  1.00  0.00     0.162 HD
BRANCH  21  23
HETATM   23  C10 UNL     1      27.527   2.791  14.783  1.00  0.00     0.150 C
BRANCH  23  24
HETATM   24  C11 UNL     1      26.503   2.595  13.682  1.00  0.00     0.251 C
BRANCH  24  25
HETATM   25  N5  UNL     1      25.218   2.326  14.260  1.00  0.00    -0.074 N
ATOM     26  H52 UNL     1      24.713   1.616  13.731  1.00  0.00     0.277 HD
ATOM     27  H51 UNL     1      25.304   1.830  15.147  1.00  0.00     0.277 HD
BRANCH  25  28
HETATM   28  C12 UNL     1      24.446   3.521  14.401  1.00  0.00     0.232 C
BRANCH  28  29
HETATM   29  C13 UNL     1      24.690   4.464  13.269  1.00  0.00     0.029 C
BRANCH  29  30
HETATM   30  C14 UNL     1      23.399   4.743  12.551  1.00  0.00     0.029 C
BRANCH  30  31
HETATM   31  C15 UNL     1      22.521   5.615  13.394  1.00  0.00     0.229 C
BRANCH  31  32
HETATM   32  N6  UNL     1      23.128   6.895  13.666  1.00  0.00    -0.079 N
ATOM     33  H63 UNL     1      23.277   7.029  14.666  1.00  0.00     0.274 HD
ATOM     34  H62 UNL     1      24.099   6.917  13.354  1.00  0.00     0.274 HD
ATOM     35  H61 UNL     1      22.594   7.666  13.265  1.00  0.00     0.274 HD
ENDBRANCH  31  32
ENDBRANCH  30  31
ENDBRANCH  29  30
ENDBRANCH  28  29
ENDBRANCH  25  28
ENDBRANCH  24  25
ENDBRANCH  23  24
ENDBRANCH  21  23
ENDBRANCH  18  19
ENDBRANCH   1  18
BRANCH   5  36
HETATM   36  N7  UNL     1      33.578   7.622  13.770  1.00  0.00    -0.377 N
HETATM   37  C20 UNL     1      33.961   8.533  12.961  1.00  0.00     0.065 C
ATOM     38  H7  UNL     1      34.254   6.951  14.135  1.00  0.00     0.164 HD
BRANCH  37  39
HETATM   39  C21 UNL     1      35.309   8.771  12.450  1.00  0.00     0.024 C
HETATM   40  C22 UNL     1      35.601   8.246  11.065  1.00  0.00     0.010 C
HETATM   41  C23 UNL     1      35.128   9.591  10.533  1.00  0.00     0.001 C
HETATM   42  C24 UNL     1      35.499  10.159  11.909  1.00  0.00     0.010 C
ENDBRANCH  37  39
ENDBRANCH   5  36
TORSDOF 18
ENDMDL