MODEL 3
REMARK VINA RESULT: -7.769686713      1.338      1.403
REMARK  5 active torsions:
REMARK  status: ('A' for Active; 'I' for Inactive)
REMARK    1  A    between atoms: N2_14  and  C13_16
REMARK    2  A    between atoms: C13_16  and  C14_17
REMARK    3  A    between atoms: C14_17  and  C15_18
REMARK    4  A    between atoms: C15_18  and  N3_19
REMARK    5  A    between atoms: C16_21  and  C17_23
ROOT
HETATM    1  C1  UNL     1      10.614  36.019  75.534  1.00  0.00     0.011 C
HETATM    2  C2  UNL     1       9.666  35.192  76.419  1.00  0.00     0.005 C
HETATM    3  C3  UNL     1      10.163  35.368  77.825  1.00  0.00     0.010 C
HETATM    4  C4  UNL     1       9.523  34.540  78.864  1.00  0.00    -0.012 C
HETATM    5  C5  UNL     1       8.344  35.203  79.543  1.00  0.00     0.015 C
HETATM    6  C6  UNL     1       7.308  35.092  78.415  1.00  0.00    -0.029 C
HETATM    7  C7  UNL     1       5.953  35.366  79.035  1.00  0.00     0.016 C
HETATM    8  C8  UNL     1       7.605  36.167  77.452  1.00  0.00     0.035 C
HETATM    9  C9  UNL     1       8.295  35.731  76.192  1.00  0.00     0.058 C
HETATM   10  C10 UNL     1       8.279  36.893  75.276  1.00  0.00     0.070 C
HETATM   11  N1  UNL     1       8.270  37.793  74.545  1.00  0.00    -0.196 NA
HETATM   12  C11 UNL     1       7.406  34.685  75.554  1.00  0.00     0.078 C
HETATM   13  C12 UNL     1       7.427  33.504  76.497  1.00  0.00    -0.007 C
HETATM   14  N2  UNL     1       7.397  32.383  75.962  1.00  0.00    -0.396 N
ATOM     15  H2  UNL     1       7.361  32.464  74.946  1.00  0.00     0.159 HD
HETATM   16  C20 UNL     1       7.487  33.679  77.947  1.00  0.00     0.002 C
HETATM   17  C21 UNL     1       6.460  32.770  78.591  1.00  0.00     0.022 C
HETATM   18  C22 UNL     1       8.901  33.265  78.369  1.00  0.00     0.020 C
ENDROOT
BRANCH  14  19
HETATM   19  C13 UNL     1       7.398  31.063  76.353  1.00  0.00     0.121 C
BRANCH  19  20
HETATM   20  C14 UNL     1       7.619  30.218  75.079  1.00  0.00     0.039 C
BRANCH  20  21
HETATM   21  C15 UNL     1       8.434  31.026  74.103  1.00  0.00     0.122 C
BRANCH  21  22
HETATM   22  N3  UNL     1       9.740  30.409  74.018  1.00  0.00    -0.376 N
HETATM   23  C16 UNL     1      10.732  30.963  74.564  1.00  0.00     0.146 C
HETATM   24  N4  UNL     1      10.611  32.177  75.263  1.00  0.00    -0.080 NA
ATOM     25  H3  UNL     1       9.857  29.528  73.518  1.00  0.00     0.160 HD
BRANCH  23  26
HETATM   26  C17 UNL     1      12.061  30.337  74.478  1.00  0.00     0.115 A
HETATM   27  N5  UNL     1      13.124  30.736  73.794  1.00  0.00    -0.357 N
HETATM   28  C18 UNL     1      14.219  30.053  73.838  1.00  0.00     0.096 A
ATOM     29  H5  UNL     1      13.077  31.586  73.231  1.00  0.00     0.166 HD
HETATM   30  C19 UNL     1      14.233  28.915  74.611  1.00  0.00     0.069 A
HETATM   31  S1  UNL     1      12.641  28.907  75.232  1.00  0.00    -0.080 SA
ENDBRANCH  23  26
ENDBRANCH  21  22
ENDBRANCH  20  21
ENDBRANCH  19  20
ENDBRANCH  14  19
TORSDOF 5
ENDMDL