MODEL 2
REMARK VINA RESULT: -7.801844611      0.074      2.479
REMARK  6 active torsions:
REMARK  status: ('A' for Active; 'I' for Inactive)
REMARK    1  A    between atoms: O1_2  and  C2_3
REMARK    2  A    between atoms: C4_5  and  C5_6
REMARK       I    between atoms: C5_6  and  N1_8
REMARK    3  A    between atoms: C6_10  and  N2_12
REMARK    4  A    between atoms: N2_12  and  C7_14
REMARK    5  A    between atoms: C17_24  and  O3_25
REMARK    6  A    between atoms: C19_27  and  O4_28
ROOT
HETATM    1  C5  UNL     1       5.480  35.668  80.028  1.00  0.00     0.257 C
HETATM    2  O2  UNL     1       5.617  35.077  81.151  1.00  0.00    -0.267 OA
HETATM    3  N1  UNL     1       6.396  35.449  78.972  1.00  0.00    -0.303 N
ATOM      4  H1  UNL     1       7.253  36.001  78.918  1.00  0.00     0.171 HD
HETATM    5  C6  UNL     1       6.151  34.558  78.084  1.00  0.00     0.154 C
HETATM    6  S1  UNL     1       4.647  33.614  78.211  1.00  0.00    -0.013 SA
ENDROOT
BRANCH   1   7
HETATM    7  C4  UNL     1       4.370  36.589  79.799  1.00  0.00     0.037 A
HETATM    8  C3  UNL     1       4.551  37.794  79.144  1.00  0.00     0.057 A
HETATM    9  C2  UNL     1       3.489  38.624  78.950  1.00  0.00     0.105 A
HETATM   10  C19 UNL     1       2.219  38.285  79.400  1.00  0.00     0.135 A
HETATM   11  C17 UNL     1       2.029  37.090  80.052  1.00  0.00     0.105 A
HETATM   12  C16 UNL     1       3.113  36.249  80.247  1.00  0.00     0.057 A
BRANCH   9  13
HETATM   13  O1  UNL     1       3.681  39.818  78.299  1.00  0.00    -0.353 OA
HETATM   14  C1  UNL     1       4.241  40.936  78.937  1.00  0.00     0.210 C
ENDBRANCH   9  13
BRANCH  10  15
HETATM   15  O4  UNL     1       1.111  39.096  79.227  1.00  0.00    -0.351 OA
HETATM   16  C20 UNL     1       0.860  40.080  80.222  1.00  0.00     0.210 C
ENDBRANCH  10  15
BRANCH  11  17
HETATM   17  O3  UNL     1       0.796  36.739  80.500  1.00  0.00    -0.353 OA
HETATM   18  C18 UNL     1       0.393  35.503  80.990  1.00  0.00     0.210 C
ENDBRANCH  11  17
ENDBRANCH   1   7
BRANCH   5  19
HETATM   19  N2  UNL     1       7.024  34.288  77.002  1.00  0.00    -0.365 N
ATOM     20  H2  UNL     1       6.794  33.519  76.372  1.00  0.00     0.162 HD
BRANCH  19  21
HETATM   21  C7  UNL     1       8.228  35.052  76.748  1.00  0.00     0.083 C
HETATM   22  C8  UNL     1       9.173  34.237  75.982  1.00  0.00     0.025 C
HETATM   23  C9  UNL     1      10.623  34.534  76.148  1.00  0.00     0.002 C
HETATM   24  C10 UNL     1      11.059  35.919  75.866  1.00  0.00     0.000 C
HETATM   25  C11 UNL     1      10.583  36.422  74.522  1.00  0.00     0.000 C
HETATM   26  C12 UNL     1       9.898  37.746  74.606  1.00  0.00     0.000 C
HETATM   27  C13 UNL     1       8.458  37.747  74.239  1.00  0.00     0.000 C
HETATM   28  C14 UNL     1       7.675  36.571  74.793  1.00  0.00     0.002 C
HETATM   29  C15 UNL     1       7.855  36.392  76.246  1.00  0.00     0.025 C
ENDBRANCH  19  21
ENDBRANCH   5  19
TORSDOF 6
ENDMDL