MODEL 2
REMARK VINA RESULT: -7.572860731      0.913      1.661
REMARK  6 active torsions:
REMARK  status: ('A' for Active; 'I' for Inactive)
REMARK    1  A    between atoms: C2_2  and  C3_3
REMARK    2  A    between atoms: C3_3  and  C4_4
REMARK    3  A    between atoms: C4_4  and  C5_5
REMARK    4  A    between atoms: C5_5  and  C6_6
REMARK    5  A    between atoms: C14_15  and  O2_16
REMARK    6  A    between atoms: C22_27  and  O5_28
ROOT
HETATM    1  C6  UNL     1       7.957  33.167  80.914  1.00  0.00     0.050 C
HETATM    2  C7  UNL     1       8.899  33.121  79.681  1.00  0.00     0.045 C
HETATM    3  C8  UNL     1       8.817  34.356  78.849  1.00  0.00     0.161 C
HETATM    4  O1  UNL     1       9.352  34.236  77.548  1.00  0.00    -0.345 OA
HETATM    5  C9  UNL     1       9.036  35.238  76.626  1.00  0.00     0.082 A
HETATM    6  C10 UNL     1       9.675  36.023  75.781  1.00  0.00    -0.022 A
HETATM    7  C11 UNL     1      11.173  36.021  75.571  1.00  0.00     0.051 C
HETATM    8  C12 UNL     1       8.734  36.891  75.089  1.00  0.00    -0.023 A
HETATM    9  C13 UNL     1       9.161  37.901  74.061  1.00  0.00     0.051 C
HETATM   10  C14 UNL     1       7.525  36.614  75.527  1.00  0.00     0.078 A
HETATM   11  C15 UNL     1       7.608  35.571  76.503  1.00  0.00     0.179 A
HETATM   12  C16 UNL     1       6.820  34.372  76.001  1.00  0.00     0.285 C
HETATM   13  O3  UNL     1       6.906  33.499  75.115  1.00  0.00    -0.263 OA
HETATM   14  O4  UNL     1       5.917  34.668  76.989  1.00  0.00    -0.304 OA
HETATM   15  C17 UNL     1       6.831  35.517  77.720  1.00  0.00     0.128 C
HETATM   16  C18 UNL     1       6.015  36.684  78.184  1.00  0.00     0.043 C
HETATM   17  C19 UNL     1       5.376  36.569  79.491  1.00  0.00     0.003 C
HETATM   18  C20 UNL     1       4.890  35.262  79.998  1.00  0.00     0.006 C
HETATM   19  C21 UNL     1       5.884  34.704  81.056  1.00  0.00     0.069 C
HETATM   20  C22 UNL     1       6.604  33.544  80.543  1.00  0.00     0.166 C
HETATM   21  O6  UNL     1       6.617  33.713  79.134  1.00  0.00    -0.344 OA
HETATM   22  C23 UNL     1       7.420  34.844  78.901  1.00  0.00     0.192 C
ENDROOT
BRANCH   1  23
HETATM   23  C5  UNL     1       8.683  33.790  82.026  1.00  0.00     0.010 C
BRANCH  23  24
HETATM   24  C4  UNL     1       8.748  33.018  83.317  1.00  0.00     0.001 C
BRANCH  24  25
HETATM   25  C3  UNL     1       8.402  31.547  83.130  1.00  0.00    -0.000 C
BRANCH  25  26
HETATM   26  C2  UNL     1       9.628  30.684  83.155  1.00  0.00    -0.005 C
HETATM   27  C1  UNL     1       9.926  30.078  81.801  1.00  0.00     0.005 C
ENDBRANCH  25  26
ENDBRANCH  24  25
ENDBRANCH  23  24
ENDBRANCH   1  23
BRANCH  20  28
HETATM   28  O5  UNL     1       5.706  32.436  80.665  1.00  0.00    -0.365 OA
ATOM     29  H5  UNL     1       5.326  32.396  81.534  1.00  0.00     0.213 HD
ENDBRANCH  20  28
BRANCH  10  30
HETATM   30  O2  UNL     1       6.429  37.327  75.010  1.00  0.00    -0.363 OA
ATOM     31  H2  UNL     1       6.585  38.107  74.492  1.00  0.00     0.217 HD
ENDBRANCH  10  30
TORSDOF 6
ENDMDL