MODEL 2
REMARK VINA RESULT: -6.712629843      2.046      2.882
REMARK  6 active torsions:
REMARK  status: ('A' for Active; 'I' for Inactive)
REMARK    1  A    between atoms: C2_2  and  C3_3
REMARK    2  A    between atoms: C3_3  and  N1_4
REMARK    3  A    between atoms: C4_5  and  O1_6
REMARK    4  A    between atoms: C5_8  and  C6_9
REMARK    5  A    between atoms: C6_9  and  C7_10
REMARK       I    between atoms: C7_10  and  N2_12
REMARK    6  A    between atoms: N2_12  and  C8_14
ROOT
HETATM    1  C7  UNL     1       8.882  32.135  77.730  1.00  0.00     0.222 C
HETATM    2  O2  UNL     1       7.925  31.386  78.026  1.00  0.00    -0.273 OA
HETATM    3  N2  UNL     1       9.701  31.813  76.633  1.00  0.00    -0.356 N
ATOM      4  H2  UNL     1      10.483  32.420  76.389  1.00  0.00     0.162 HD
ENDROOT
BRANCH   3   5
HETATM    5  C8  UNL     1       9.447  30.642  75.856  1.00  0.00     0.084 C
HETATM    6  C9  UNL     1      10.536  29.591  76.118  1.00  0.00     0.026 C
HETATM    7  C10 UNL     1      11.773  30.063  75.387  1.00  0.00     0.013 C
HETATM    8  C11 UNL     1      11.620  29.745  73.937  1.00  0.00    -0.010 C
HETATM    9  C12 UNL     1      10.146  29.813  73.590  1.00  0.00     0.013 C
HETATM   10  C14 UNL     1      12.361  30.726  73.046  1.00  0.00     0.282 C
HETATM   11  C17 UNL     1      12.191  28.372  73.662  1.00  0.00    -0.001 C
HETATM   12  C13 UNL     1       9.439  30.898  74.372  1.00  0.00     0.026 C
HETATM   13  N3  UNL     1      13.160  30.054  72.043  1.00  0.00     0.089 N
HETATM   14  C15 UNL     1      12.360  29.070  71.311  1.00  0.00     0.273 C
HETATM   15  C19 UNL     1      14.267  29.318  72.625  1.00  0.00     0.273 C
HETATM   16  C16 UNL     1      11.820  28.003  72.221  1.00  0.00     0.036 C
HETATM   17  C18 UNL     1      13.692  28.440  73.713  1.00  0.00     0.036 C
ENDBRANCH   3   5
BRANCH   1  18
HETATM   18  C6  UNL     1       9.139  33.349  78.539  1.00  0.00     0.153 C
BRANCH  18  19
HETATM   19  C5  UNL     1       8.198  34.454  78.117  1.00  0.00     0.045 A
HETATM   20  C4  UNL     1       8.083  35.026  76.874  1.00  0.00     0.158 A
HETATM   21  N1  UNL     1       7.191  35.980  76.733  1.00  0.00    -0.309 N
HETATM   22  C20 UNL     1       6.463  36.329  77.788  1.00  0.00     0.147 A
HETATM   23  S1  UNL     1       7.030  35.304  79.019  1.00  0.00    -0.060 SA
HETATM   24  S2  UNL     1       5.284  37.494  77.864  1.00  0.00    -0.052 SA
BRANCH  20  25
HETATM   25  O1  UNL     1       8.936  34.548  75.828  1.00  0.00    -0.345 OA
ATOM     26  H1  UNL     1       9.755  34.956  75.570  1.00  0.00     0.219 HD
ENDBRANCH  20  25
BRANCH  21  27
HETATM   27  C3  UNL     1       7.000  36.656  75.418  1.00  0.00     0.159 C
BRANCH  27  28
HETATM   28  C2  UNL     1       8.112  37.562  75.112  1.00  0.00    -0.017 C
HETATM   29  C1  UNL     1       8.623  37.585  73.894  1.00  0.00     0.008 C
ENDBRANCH  27  28
ENDBRANCH  21  27
ENDBRANCH  18  19
ENDBRANCH   1  18
TORSDOF 6
ENDMDL