MODEL 4
REMARK VINA RESULT: -5.557290288      2.256      3.006
REMARK  11 active torsions:
REMARK  status: ('A' for Active; 'I' for Inactive)
REMARK    1  A    between atoms: C2_2  and  C3_3
REMARK    2  A    between atoms: C3_3  and  C4_4
REMARK    3  A    between atoms: C4_4  and  C5_5
REMARK    4  A    between atoms: C5_5  and  C6_6
REMARK    5  A    between atoms: C6_6  and  C7_7
REMARK    6  A    between atoms: C8_8  and  C9_9
REMARK    7  A    between atoms: C9_9  and  C10_10
REMARK    8  A    between atoms: N3_18  and  N4_19
REMARK    9  A    between atoms: N4_19  and  C14_21
REMARK   10  A    between atoms: C14_21  and  N5_23
REMARK   11  A    between atoms: N5_23  and  C15_25
ROOT
HETATM    1  C10 UNL     1       9.409  33.857  77.770  1.00  0.00     0.010 C
HETATM    2  C11 UNL     1       9.123  32.823  77.032  1.00  0.00     0.075 C
HETATM    3  S1  UNL     1       7.697  31.699  77.327  1.00  0.00    -0.046 SA
HETATM    4  C12 UNL     1       7.580  31.190  75.615  1.00  0.00     0.183 C
HETATM    5  N1  UNL     1       6.530  30.776  75.040  1.00  0.00    -0.272 N
ATOM      6  H1  UNL     1       6.612  30.520  74.056  1.00  0.00     0.180 HD
HETATM    7  C13 UNL     1       5.287  30.639  75.618  1.00  0.00     0.183 C
HETATM    8  N2  UNL     1       4.253  30.506  76.103  1.00  0.00    -0.172 NA
HETATM    9  N3  UNL     1       8.885  31.368  75.119  1.00  0.00    -0.193 N
HETATM   10  C19 UNL     1       9.708  32.221  75.852  1.00  0.00     0.285 C
HETATM   11  O1  UNL     1      10.929  32.483  75.526  1.00  0.00    -0.265 OA
ENDROOT
BRANCH   9  12
HETATM   12  N4  UNL     1       9.318  30.715  73.931  1.00  0.00    -0.265 N
ATOM     13  H4  UNL     1       9.152  31.175  73.037  1.00  0.00     0.190 HD
BRANCH  12  14
HETATM   14  C14 UNL     1       9.967  29.463  73.929  1.00  0.00     0.187 C
HETATM   15  S2  UNL     1       9.597  28.322  75.065  1.00  0.00    -0.040 SA
BRANCH  14  16
HETATM   16  N5  UNL     1      10.958  29.144  72.953  1.00  0.00    -0.358 N
ATOM     17  H5  UNL     1      10.702  28.566  72.152  1.00  0.00     0.162 HD
BRANCH  16  18
HETATM   18  C15 UNL     1      12.320  29.623  73.073  1.00  0.00     0.021 C
HETATM   19  C16 UNL     1      13.204  28.661  72.272  1.00  0.00     0.037 C
HETATM   20  C17 UNL     1      12.779  29.611  74.526  1.00  0.00     0.037 C
HETATM   21  C18 UNL     1      12.492  31.026  72.549  1.00  0.00     0.037 C
ENDBRANCH  16  18
ENDBRANCH  14  16
ENDBRANCH  12  14
ENDBRANCH   9  12
BRANCH   1  22
HETATM   22  C9  UNL     1      10.521  34.797  77.601  1.00  0.00     0.122 C
BRANCH  22  23
HETATM   23  C8  UNL     1      10.333  35.662  76.406  1.00  0.00    -0.103 C
HETATM   24  C7  UNL     1      10.192  36.383  75.444  1.00  0.00    -0.106 C
BRANCH  24  25
HETATM   25  C6  UNL     1      10.042  37.270  74.289  1.00  0.00     0.094 C
BRANCH  25  26
HETATM   26  C5  UNL     1       8.728  38.061  74.478  1.00  0.00     0.012 C
BRANCH  26  27
HETATM   27  C4  UNL     1       7.614  37.063  74.575  1.00  0.00     0.001 C
BRANCH  27  28
HETATM   28  C3  UNL     1       6.789  37.084  75.794  1.00  0.00    -0.000 C
BRANCH  28  29
HETATM   29  C2  UNL     1       6.492  35.824  76.509  1.00  0.00    -0.005 C
HETATM   30  C1  UNL     1       6.150  34.628  75.701  1.00  0.00     0.005 C
ENDBRANCH  28  29
ENDBRANCH  27  28
ENDBRANCH  26  27
ENDBRANCH  25  26
ENDBRANCH  24  25
ENDBRANCH  22  23
ENDBRANCH   1  22
TORSDOF 11
ENDMDL