MODEL 4
REMARK VINA RESULT: -7.303696211      0.880      1.111
REMARK  6 active torsions:
REMARK  status: ('A' for Active; 'I' for Inactive)
REMARK    1  A    between atoms: O1_2  and  C2_3
REMARK    2  A    between atoms: C6_10  and  O3_11
REMARK    3  A    between atoms: C11_17  and  C12_18
REMARK    4  A    between atoms: C12_18  and  C14_20
REMARK    5  A    between atoms: C14_20  and  C15_21
REMARK    6  A    between atoms: C15_21  and  C16_22
ROOT
HETATM    1  C2  UNL     1       8.800  33.664  80.726  1.00  0.00     0.137 C
HETATM    2  N1  UNL     1       8.125  34.675  80.332  1.00  0.00    -0.247 N
ATOM      3  H1  UNL     1       7.867  35.414  80.986  1.00  0.00     0.196 HD
HETATM    4  O2  UNL     1       7.766  34.744  79.058  1.00  0.00    -0.267 OA
HETATM    5  C3  UNL     1       7.516  33.644  78.190  1.00  0.00     0.097 C
HETATM    6  C4  UNL     1       6.263  32.994  78.615  1.00  0.00     0.044 C
HETATM    7  C5  UNL     1       5.986  31.551  78.845  1.00  0.00     0.035 C
HETATM    8  C6  UNL     1       5.830  30.636  77.584  1.00  0.00     0.123 C
HETATM    9  C7  UNL     1       6.566  31.049  76.467  1.00  0.00     0.028 A
HETATM   10  C8  UNL     1       6.671  31.321  75.099  1.00  0.00     0.001 A
HETATM   11  C9  UNL     1       7.107  32.766  74.723  1.00  0.00     0.006 C
HETATM   12  C10 UNL     1       6.673  33.814  75.736  1.00  0.00     0.008 C
HETATM   13  C11 UNL     1       7.528  34.317  76.806  1.00  0.00     0.027 C
HETATM   14  C17 UNL     1       7.689  30.533  75.796  1.00  0.00    -0.034 A
HETATM   15  C18 UNL     1       7.715  29.019  75.541  1.00  0.00     0.016 C
HETATM   16  C19 UNL     1       8.948  31.205  76.301  1.00  0.00     0.010 C
HETATM   17  C20 UNL     1       8.947  31.498  77.755  1.00  0.00     0.009 C
HETATM   18  C21 UNL     1       8.768  32.818  78.342  1.00  0.00     0.031 C
HETATM   19  C22 UNL     1       9.155  32.629  79.792  1.00  0.00     0.093 C
ENDROOT
BRANCH  13  20
HETATM   20  C12 UNL     1       7.457  35.839  76.846  1.00  0.00    -0.011 C
HETATM   21  C13 UNL     1       6.111  36.434  76.688  1.00  0.00     0.010 C
BRANCH  20  22
HETATM   22  C14 UNL     1       8.545  36.493  76.055  1.00  0.00     0.015 C
BRANCH  22  23
HETATM   23  C15 UNL     1       7.943  37.527  75.158  1.00  0.00     0.113 C
BRANCH  23  24
HETATM   24  C16 UNL     1       8.818  37.769  73.960  1.00  0.00     0.172 C
HETATM   25  O4  UNL     1       8.255  37.891  72.843  1.00  0.00    -0.648 OA
HETATM   26  O5  UNL     1      10.175  37.859  74.045  1.00  0.00    -0.648 OA
ENDBRANCH  23  24
ENDBRANCH  22  23
ENDBRANCH  20  22
ENDBRANCH  13  20
BRANCH   1  27
HETATM   27  O1  UNL     1       9.197  33.554  82.065  1.00  0.00    -0.343 OA
HETATM   28  C1  UNL     1       9.214  34.773  82.824  1.00  0.00     0.211 C
ENDBRANCH   1  27
BRANCH   8  29
HETATM   29  O3  UNL     1       4.482  30.468  77.259  1.00  0.00    -0.395 OA
ATOM     30  H3  UNL     1       4.363  30.451  76.316  1.00  0.00     0.210 HD
ENDBRANCH   8  29
TORSDOF 6
ENDMDL