MODEL 3
REMARK VINA RESULT: -8.024979028      6.352     11.889
REMARK  6 active torsions:
REMARK  status: ('A' for Active; 'I' for Inactive)
REMARK    1  A    between atoms: N1_2  and  C2_4
REMARK    2  A    between atoms: C3_7  and  N3_8
REMARK    3  A    between atoms: N3_8  and  C4_10
REMARK    4  A    between atoms: C12_20  and  O1_21
REMARK    5  A    between atoms: O1_21  and  C13_22
REMARK    6  A    between atoms: C13_22  and  C14_23
ROOT
HETATM    1  C2  UNL     1       4.486  39.223  78.096  1.00  0.00     0.695 A
HETATM    2  N2  UNL     1       5.199  38.561  77.191  1.00  0.00    -0.022 N
ATOM      3  H2  UNL     1       5.593  39.064  76.396  1.00  0.00     0.203 HD
HETATM    4  C3  UNL     1       5.408  37.254  77.306  1.00  0.00     0.696 A
HETATM    5  N4  UNL     1       4.880  36.617  78.364  1.00  0.00    -0.154 N
ATOM      6  H4  UNL     1       5.041  35.614  78.451  1.00  0.00     0.188 HD
HETATM    7  C12 UNL     1       4.149  37.228  79.317  1.00  0.00     0.252 A
HETATM    8  N5  UNL     1       3.969  38.547  79.150  1.00  0.00    -0.154 N
ATOM      9  H5  UNL     1       3.422  39.059  79.843  1.00  0.00     0.188 HD
ENDROOT
BRANCH   7  10
HETATM   10  O1  UNL     1       3.614  36.534  80.404  1.00  0.00    -0.320 OA
BRANCH  10  11
HETATM   11  C13 UNL     1       2.271  36.112  80.311  1.00  0.00     0.188 C
BRANCH  11  12
HETATM   12  C14 UNL     1       1.324  36.964  81.081  1.00  0.00    -0.017 C
HETATM   13  C15 UNL     1       0.979  38.228  80.312  1.00  0.00     0.016 C
HETATM   14  C16 UNL     1      -0.104  38.990  81.003  1.00  0.00    -0.013 C
HETATM   15  C17 UNL     1      -1.344  38.168  81.209  1.00  0.00     0.009 C
HETATM   16  C21 UNL     1       0.401  39.419  82.376  1.00  0.00     0.009 C
HETATM   17  C18 UNL     1      -0.985  36.974  82.049  1.00  0.00    -0.013 C
HETATM   18  C19 UNL     1      -0.420  37.353  83.394  1.00  0.00     0.009 C
HETATM   19  C23 UNL     1       0.059  36.165  81.320  1.00  0.00     0.016 C
HETATM   20  C20 UNL     1       0.817  38.202  83.143  1.00  0.00    -0.013 C
HETATM   21  C22 UNL     1       1.852  37.387  82.421  1.00  0.00     0.016 C
ENDBRANCH  11  12
ENDBRANCH  10  11
ENDBRANCH   7  10
BRANCH   4  22
HETATM   22  N3  UNL     1       6.173  36.530  76.341  1.00  0.00    -0.221 N
ATOM     23  H3  UNL     1       6.052  36.782  75.360  1.00  0.00     0.178 HD
BRANCH  22  24
HETATM   24  C4  UNL     1       7.089  35.486  76.642  1.00  0.00     0.100 C
HETATM   25  C5  UNL     1       7.472  34.595  75.506  1.00  0.00     0.026 C
HETATM   26  C6  UNL     1       8.267  33.428  76.037  1.00  0.00     0.003 C
HETATM   27  C7  UNL     1       8.960  33.702  77.327  1.00  0.00     0.009 C
HETATM   28  C8  UNL     1       9.484  35.118  77.308  1.00  0.00    -0.046 C
HETATM   29  C9  UNL     1      10.257  35.308  78.618  1.00  0.00     0.015 C
HETATM   30  C10 UNL     1      10.449  35.357  76.192  1.00  0.00     0.015 C
HETATM   31  C11 UNL     1       8.343  36.072  77.217  1.00  0.00     0.034 C
ENDBRANCH  22  24
ENDBRANCH   4  22
BRANCH   1  32
HETATM   32  N1  UNL     1       4.280  40.510  77.981  1.00  0.00    -0.230 N
HETATM   33  C1  UNL     1       3.908  41.220  79.185  1.00  0.00     0.165 C
ATOM     34  H1  UNL     1       4.377  40.990  77.087  1.00  0.00     0.177 HD
ENDBRANCH   1  32
TORSDOF 6
ENDMDL