MODEL 2
REMARK VINA RESULT: -8.031772627      2.259      9.000
REMARK  7 active torsions:
REMARK  status: ('A' for Active; 'I' for Inactive)
REMARK    1  A    between atoms: C2_2  and  O1_3
REMARK    2  A    between atoms: C5_7  and  C6_8
REMARK    3  A    between atoms: C6_8  and  C7_9
REMARK    4  A    between atoms: C7_9  and  C8_10
REMARK    5  A    between atoms: C8_10  and  C9_11
REMARK    6  A    between atoms: C9_11  and  C10_12
REMARK    7  A    between atoms: C22_27  and  O5_29
ROOT
HETATM    1  C8  UNL     1       8.184  31.188  76.829  1.00  0.00     0.002 C
ENDROOT
BRANCH   1   2
HETATM    2  C7  UNL     1       8.719  30.158  75.919  1.00  0.00     0.000 C
BRANCH   2   3
HETATM    3  C6  UNL     1      10.169  30.214  75.570  1.00  0.00     0.005 C
BRANCH   3   4
HETATM    4  C5  UNL     1      10.574  30.675  74.215  1.00  0.00    -0.012 C
HETATM    5  C4  UNL     1      11.771  31.519  74.084  1.00  0.00     0.008 C
HETATM    6  C3  UNL     1      12.533  31.118  72.818  1.00  0.00     0.041 C
HETATM    7  C2  UNL     1      13.009  29.696  73.036  1.00  0.00     0.085 C
HETATM    8  C1  UNL     1      13.942  29.324  71.919  1.00  0.00     0.049 C
HETATM    9  C22 UNL     1      11.824  28.750  73.148  1.00  0.00     0.085 C
HETATM   10  C21 UNL     1      10.525  29.517  73.219  1.00  0.00     0.045 C
HETATM   11  C23 UNL     1      11.980  27.748  74.265  1.00  0.00     0.049 C
BRANCH   7  12
HETATM   12  O1  UNL     1      13.689  29.668  74.252  1.00  0.00    -0.387 OA
ATOM     13  H1  UNL     1      14.123  30.501  74.398  1.00  0.00     0.210 HD
ENDBRANCH   7  12
BRANCH   9  14
HETATM   14  O5  UNL     1      11.788  28.031  71.948  1.00  0.00    -0.387 OA
ATOM     15  H5  UNL     1      10.875  27.818  71.796  1.00  0.00     0.210 HD
ENDBRANCH   9  14
ENDBRANCH   3   4
ENDBRANCH   2   3
ENDBRANCH   1   2
BRANCH   1  16
HETATM   16  C9  UNL     1       9.148  31.776  77.814  1.00  0.00     0.032 C
BRANCH  16  17
HETATM   17  C10 UNL     1       8.929  33.201  78.092  1.00  0.00     0.125 C
HETATM   18  O2  UNL     1       9.892  33.814  78.832  1.00  0.00    -0.385 OA
HETATM   19  C11 UNL     1       9.678  35.139  79.086  1.00  0.00     0.168 C
HETATM   20  C12 UNL     1       8.401  35.688  78.560  1.00  0.00     0.032 C
HETATM   21  C13 UNL     1       8.104  35.274  77.141  1.00  0.00     0.001 C
HETATM   22  C14 UNL     1       8.803  34.018  76.789  1.00  0.00     0.019 C
HETATM   23  C20 UNL     1       8.330  36.419  76.214  1.00  0.00     0.028 C
HETATM   24  C15 UNL     1      10.139  34.162  76.172  1.00  0.00     0.008 C
HETATM   25  C16 UNL     1      10.319  35.332  75.279  1.00  0.00     0.015 C
HETATM   26  C17 UNL     1       9.763  36.614  75.805  1.00  0.00     0.092 C
HETATM   27  C18 UNL     1       9.572  37.523  74.616  1.00  0.00     0.263 C
HETATM   28  O3  UNL     1      10.269  38.518  74.287  1.00  0.00    -0.265 OA
HETATM   29  O4  UNL     1       8.452  37.017  73.968  1.00  0.00    -0.321 OA
HETATM   30  C19 UNL     1       7.654  36.262  74.875  1.00  0.00     0.184 C
ENDBRANCH  16  17
ENDBRANCH   1  16
TORSDOF 7
ENDMDL