MODEL 5
REMARK VINA RESULT: -7.703619635      3.254      4.665
REMARK  6 active torsions:
REMARK  status: ('A' for Active; 'I' for Inactive)
REMARK    1  A    between atoms: C2_2  and  C3_3
REMARK    2  A    between atoms: C6_6  and  N1_7
REMARK    3  A    between atoms: N1_7  and  C7_9
REMARK    4  A    between atoms: C9_11  and  C10_12
REMARK    5  A    between atoms: C11_17  and  C12_18
REMARK    6  A    between atoms: C15_25  and  N6_26
ROOT
HETATM    1  C7  UNL     1       6.260  34.211  78.048  1.00  0.00     0.119 A
HETATM    2  C8  UNL     1       5.291  35.094  78.425  1.00  0.00     0.082 A
HETATM    3  C9  UNL     1       5.273  36.410  78.034  1.00  0.00     0.098 A
HETATM    4  N5  UNL     1       6.257  36.859  77.237  1.00  0.00    -0.188 N
ATOM      5  H5  UNL     1       6.265  37.832  76.931  1.00  0.00     0.184 HD
HETATM    6  C15 UNL     1       7.230  36.019  76.843  1.00  0.00     0.682 A
HETATM    7  N7  UNL     1       7.235  34.738  77.234  1.00  0.00    -0.177 N
ATOM      8  H7  UNL     1       7.989  34.131  76.916  1.00  0.00     0.185 HD
ENDROOT
BRANCH   3   9
HETATM    9  C10 UNL     1       4.254  37.352  78.474  1.00  0.00     0.149 A
HETATM   10  N2  UNL     1       3.929  38.450  77.776  1.00  0.00    -0.282 N
HETATM   11  N3  UNL     1       2.963  39.071  78.418  1.00  0.00    -0.287 N
ATOM     12  H2  UNL     1       4.356  38.752  76.900  1.00  0.00     0.188 HD
HETATM   13  C11 UNL     1       2.668  38.373  79.526  1.00  0.00     0.101 A
ATOM     14  H3  UNL     1       2.514  39.939  78.124  1.00  0.00     0.188 HD
HETATM   15  N4  UNL     1       3.479  37.276  79.578  1.00  0.00    -0.328 N
ATOM     16  H4  UNL     1       3.495  36.553  80.296  1.00  0.00     0.169 HD
BRANCH  13  17
HETATM   17  C12 UNL     1       1.634  38.765  80.506  1.00  0.00     0.055 A
HETATM   18  C13 UNL     1       0.213  38.814  79.975  1.00  0.00     0.013 A
HETATM   19  C14 UNL     1       0.948  40.082  80.387  1.00  0.00     0.013 A
ENDBRANCH  13  17
ENDBRANCH   3   9
BRANCH   1  20
HETATM   20  N1  UNL     1       6.343  33.019  78.354  1.00  0.00    -0.371 N
ATOM     21  H1  UNL     1       6.465  32.928  79.363  1.00  0.00     0.161 HD
BRANCH  20  22
HETATM   22  C6  UNL     1       6.325  31.764  77.767  1.00  0.00     0.083 C
HETATM   23  C5  UNL     1       5.351  31.856  76.563  1.00  0.00     0.025 C
HETATM   24  C4  UNL     1       4.954  30.441  76.284  1.00  0.00     0.006 C
HETATM   25  C3  UNL     1       6.149  29.666  75.849  1.00  0.00    -0.015 C
HETATM   26  C22 UNL     1       7.472  30.281  76.086  1.00  0.00     0.006 C
HETATM   27  C21 UNL     1       7.602  31.135  77.323  1.00  0.00     0.025 C
BRANCH  25  28
HETATM   28  C2  UNL     1       5.995  28.260  76.443  1.00  0.00     0.000 C
HETATM   29  C1  UNL     1       4.690  27.720  75.844  1.00  0.00     0.005 C
ENDBRANCH  25  28
ENDBRANCH  20  22
ENDBRANCH   1  20
BRANCH   6  30
HETATM   30  N6  UNL     1       8.224  36.538  75.968  1.00  0.00    -0.218 N
HETATM   31  C16 UNL     1       7.767  37.391  74.898  1.00  0.00     0.141 C
HETATM   32  C17 UNL     1       8.816  37.629  73.831  1.00  0.00     0.020 C
HETATM   33  C18 UNL     1      10.175  37.790  74.450  1.00  0.00     0.003 C
HETATM   34  C19 UNL     1      10.531  36.458  75.079  1.00  0.00     0.020 C
HETATM   35  C20 UNL     1       9.596  36.190  76.208  1.00  0.00     0.141 C
ENDBRANCH   6  30
TORSDOF 6
ENDMDL