MODEL 5
REMARK VINA RESULT: -7.298560975      1.754      2.537
REMARK  6 active torsions:
REMARK  status: ('A' for Active; 'I' for Inactive)
REMARK    1  A    between atoms: C2_2  and  C4_4
REMARK    2  A    between atoms: C6_9  and  N2_10
REMARK       I    between atoms: N2_10  and  C7_12
REMARK       I    between atoms: C7_12  and  N3_14
REMARK    3  A    between atoms: N3_14  and  C8_16
REMARK    4  A    between atoms: C8_16  and  C9_17
REMARK    5  A    between atoms: C9_17  and  C10_18
REMARK    6  A    between atoms: N4_21  and  C13_22
ROOT
HETATM    1  N2  UNL     1       5.196  37.926  77.235  1.00  0.00    -0.289 N
ATOM      2  H2  UNL     1       5.473  38.216  76.297  1.00  0.00     0.172 HD
HETATM    3  C7  UNL     1       5.760  36.789  77.881  1.00  0.00     0.322 C
HETATM    4  O1  UNL     1       5.067  35.770  78.126  1.00  0.00    -0.247 OA
HETATM    5  N3  UNL     1       7.121  36.782  78.263  1.00  0.00    -0.343 N
ATOM      6  H3  UNL     1       7.702  37.600  78.073  1.00  0.00     0.164 HD
ENDROOT
BRANCH   1   7
HETATM    7  C6  UNL     1       4.285  38.580  77.943  1.00  0.00     0.155 A
HETATM    8  S1  UNL     1       4.268  40.211  78.420  1.00  0.00    -0.033 SA
HETATM    9  C5  UNL     1       2.743  40.200  79.287  1.00  0.00     0.112 A
HETATM   10  N1  UNL     1       1.946  41.013  79.974  1.00  0.00    -0.345 N
HETATM   11  C18 UNL     1       2.369  38.915  79.131  1.00  0.00     0.112 A
HETATM   12  C4  UNL     1       0.831  40.561  80.478  1.00  0.00     0.057 A
ATOM     13  H1  UNL     1       2.206  41.990  80.106  1.00  0.00     0.167 HD
HETATM   14  S2  UNL     1       0.847  38.926  80.001  1.00  0.00    -0.056 SA
HETATM   15  N5  UNL     1       3.168  38.099  78.442  1.00  0.00    -0.328 N
ATOM     16  H5  UNL     1       2.916  37.120  78.305  1.00  0.00     0.168 HD
BRANCH  12  17
HETATM   17  C2  UNL     1      -0.210  41.309  81.286  1.00  0.00     0.035 C
HETATM   18  C1  UNL     1      -0.313  40.756  82.689  1.00  0.00     0.016 C
HETATM   19  C3  UNL     1       0.228  42.758  81.286  1.00  0.00     0.016 C
ENDBRANCH  12  17
ENDBRANCH   1   7
BRANCH   5  20
HETATM   20  C8  UNL     1       7.697  35.638  78.914  1.00  0.00     0.125 C
BRANCH  20  21
HETATM   21  C9  UNL     1       8.697  34.918  78.065  1.00  0.00     0.024 C
BRANCH  21  22
HETATM   22  C10 UNL     1       8.624  33.427  78.143  1.00  0.00    -0.010 C
HETATM   23  C11 UNL     1       7.190  32.982  78.003  1.00  0.00     0.035 C
HETATM   24  C12 UNL     1       6.705  33.076  76.573  1.00  0.00     0.273 C
HETATM   25  N4  UNL     1       7.723  32.692  75.628  1.00  0.00     0.092 N
HETATM   26  C16 UNL     1       8.698  31.840  76.291  1.00  0.00     0.273 C
HETATM   27  C17 UNL     1       9.540  32.765  77.167  1.00  0.00     0.035 C
BRANCH  25  28
HETATM   28  C13 UNL     1       7.225  32.002  74.480  1.00  0.00     0.215 C
HETATM   29  C14 UNL     1       5.798  31.530  74.649  1.00  0.00     0.042 C
HETATM   30  C15 UNL     1       8.079  30.872  74.001  1.00  0.00     0.042 C
ENDBRANCH  25  28
ENDBRANCH  21  22
ENDBRANCH  20  21
ENDBRANCH   5  20
TORSDOF 6
ENDMDL