MODEL 3
REMARK VINA RESULT: -7.980574337      1.035      1.708
REMARK  6 active torsions:
REMARK  status: ('A' for Active; 'I' for Inactive)
REMARK    1  A    between atoms: O1_2  and  C2_3
REMARK    2  A    between atoms: C2_3  and  C3_4
REMARK    3  A    between atoms: C4_5  and  C5_6
REMARK    4  A    between atoms: C5_6  and  N1_7
REMARK    5  A    between atoms: N1_7  and  C6_10
REMARK    6  A    between atoms: C16_20  and  O2_21
ROOT
HETATM    1  C3  UNL     1       3.812  37.339  79.926  1.00  0.00     0.010 A
HETATM    2  C4  UNL     1       4.487  38.312  79.135  1.00  0.00     0.012 A
HETATM    3  C16 UNL     1       3.878  39.495  78.934  1.00  0.00     0.074 A
HETATM    4  C17 UNL     1       2.628  39.801  79.464  1.00  0.00     0.047 A
HETATM    5  C18 UNL     1       1.960  38.891  80.221  1.00  0.00    -0.021 A
HETATM    6  C19 UNL     1       2.582  37.651  80.437  1.00  0.00     0.086 A
HETATM    7  O3  UNL     1       1.791  36.797  81.216  1.00  0.00    -0.330 OA
HETATM    8  C20 UNL     1       0.409  36.643  80.963  1.00  0.00     0.225 C
HETATM    9 CL1  UNL     1      -0.286  35.666  82.279  1.00  0.00    -0.095 Cl
HETATM   10  C21 UNL     1      -0.289  37.970  80.813  1.00  0.00     0.053 C
HETATM   11  C22 UNL     1       0.639  39.133  80.824  1.00  0.00     0.045 C
ENDROOT
BRANCH   2  12
HETATM   12  C5  UNL     1       5.803  37.893  78.618  1.00  0.00     0.275 C
BRANCH  12  13
HETATM   13  N1  UNL     1       5.790  37.548  77.213  1.00  0.00    -0.062 N
ATOM     14  H12 UNL     1       4.874  37.226  76.902  1.00  0.00     0.278 HD
ATOM     15  H11 UNL     1       5.865  38.370  76.612  1.00  0.00     0.278 HD
BRANCH  13  16
HETATM   16  C6  UNL     1       6.842  36.571  76.950  1.00  0.00     0.127 C
HETATM   17  C7  UNL     1       7.529  36.758  75.642  1.00  0.00     0.043 C
HETATM   18  C8  UNL     1       8.708  35.809  75.575  1.00  0.00    -0.012 C
HETATM   19  C9  UNL     1       9.701  36.016  76.675  1.00  0.00     0.009 C
HETATM   20  C13 UNL     1       8.217  34.387  75.640  1.00  0.00     0.009 C
HETATM   21  C10 UNL     1       8.993  35.802  77.989  1.00  0.00    -0.012 C
HETATM   22  C11 UNL     1       8.423  34.403  78.097  1.00  0.00     0.009 C
HETATM   23  C15 UNL     1       7.858  36.767  78.069  1.00  0.00     0.043 C
HETATM   24  C12 UNL     1       7.490  34.200  76.948  1.00  0.00    -0.012 C
HETATM   25  C14 UNL     1       6.325  35.153  77.045  1.00  0.00     0.043 C
ENDBRANCH  13  16
ENDBRANCH  12  13
ENDBRANCH   2  12
BRANCH   1  26
HETATM   26  C2  UNL     1       4.417  36.022  80.068  1.00  0.00     0.209 C
BRANCH  26  27
HETATM   27  O1  UNL     1       5.083  35.823  81.242  1.00  0.00    -0.391 OA
HETATM   28  C1  UNL     1       6.252  35.061  81.072  1.00  0.00     0.201 C
ENDBRANCH  26  27
ENDBRANCH   1  26
BRANCH   3  29
HETATM   29  O2  UNL     1       4.529  40.459  78.158  1.00  0.00    -0.360 OA
ATOM     30  H2  UNL     1       5.064  41.110  78.597  1.00  0.00     0.217 HD
ENDBRANCH   3  29
TORSDOF 6
ENDMDL