MODEL 2
REMARK VINA RESULT: -6.708618224      0.762      1.106
REMARK  6 active torsions:
REMARK  status: ('A' for Active; 'I' for Inactive)
REMARK    1  A    between atoms: C2_2  and  C3_3
REMARK    2  A    between atoms: C4_5  and  C5_6
REMARK    3  A    between atoms: C6_10  and  C7_11
REMARK    4  A    between atoms: C8_14  and  O3_15
REMARK    5  A    between atoms: C16_24  and  C17_25
REMARK    6  A    between atoms: C17_25  and  C18_26
ROOT
HETATM    1  C3  UNL     1       7.161  33.874  77.587  1.00  0.00     0.138 C
HETATM    2  F1  UNL     1       6.523  34.042  76.362  1.00  0.00    -0.237 F
HETATM    3  C4  UNL     1       7.845  35.172  77.932  1.00  0.00     0.093 C
HETATM    4  C9  UNL     1       7.219  35.629  79.256  1.00  0.00     0.020 C
HETATM    5  C10 UNL     1       5.855  35.058  79.083  1.00  0.00    -0.001 C
HETATM    6  C11 UNL     1       4.970  35.188  80.259  1.00  0.00     0.006 C
HETATM    7  C12 UNL     1       3.615  34.601  79.827  1.00  0.00     0.006 C
HETATM    8  C13 UNL     1       3.964  33.180  79.492  1.00  0.00    -0.002 C
HETATM    9  C14 UNL     1       2.777  32.342  79.153  1.00  0.00     0.032 C
HETATM   10  C15 UNL     1       3.453  31.279  78.350  1.00  0.00    -0.023 C
HETATM   11  C16 UNL     1       4.614  31.694  77.846  1.00  0.00    -0.078 C
HETATM   12  C20 UNL     1       4.820  33.084  78.240  1.00  0.00     0.031 C
HETATM   13  C21 UNL     1       6.131  33.606  78.639  1.00  0.00     0.008 C
HETATM   14  C22 UNL     1       6.800  32.842  79.760  1.00  0.00     0.020 C
ENDROOT
BRANCH   3  15
HETATM   15  C5  UNL     1       7.662  36.240  76.944  1.00  0.00     0.119 A
HETATM   16  O1  UNL     1       6.696  37.093  76.729  1.00  0.00    -0.238 OA
HETATM   17  N1  UNL     1       6.966  37.873  75.725  1.00  0.00    -0.253 N
HETATM   18  C6  UNL     1       8.150  37.576  75.209  1.00  0.00     0.155 A
ATOM     19  H1  UNL     1       6.352  38.611  75.381  1.00  0.00     0.195 HD
HETATM   20  C8  UNL     1       8.631  36.515  75.982  1.00  0.00     0.132 A
BRANCH  18  21
HETATM   21  C7  UNL     1       8.868  38.172  74.085  1.00  0.00     0.286 C
HETATM   22  N2  UNL     1      10.194  38.641  74.248  1.00  0.00    -0.056 NA
HETATM   23  O2  UNL     1       8.317  38.272  72.960  1.00  0.00    -0.269 OA
ENDBRANCH  18  21
BRANCH  20  24
HETATM   24  O3  UNL     1       9.856  35.896  75.771  1.00  0.00    -0.356 OA
ATOM     25  H3  UNL     1      10.557  36.140  75.178  1.00  0.00     0.218 HD
ENDBRANCH  20  24
ENDBRANCH   3  15
BRANCH   1  26
HETATM   26  C2  UNL     1       8.261  32.876  77.514  1.00  0.00     0.007 C
HETATM   27  C1  UNL     1       8.808  32.452  76.400  1.00  0.00     0.010 C
ENDBRANCH   1  26
BRANCH  11  28
HETATM   28  C17 UNL     1       5.452  30.805  77.015  1.00  0.00     0.034 C
BRANCH  28  29
HETATM   29  C18 UNL     1       5.765  29.453  77.665  1.00  0.00    -0.000 C
HETATM   30  C19 UNL     1       7.085  29.426  78.363  1.00  0.00     0.005 C
ENDBRANCH  28  29
ENDBRANCH  11  28
TORSDOF 6
ENDMDL