MODEL 5
REMARK VINA RESULT: -7.859356794      3.864      6.383
REMARK  5 active torsions:
REMARK  status: ('A' for Active; 'I' for Inactive)
REMARK    1  A    between atoms: O1_2  and  C2_3
REMARK    2  A    between atoms: C6_8  and  N1_9
REMARK    3  A    between atoms: C9_13  and  C10_14
REMARK    4  A    between atoms: C10_14  and  N2_15
REMARK    5  A    between atoms: N2_15  and  C11_18
ROOT
HETATM    1  N1  UNL     1       8.952  33.758  76.410  1.00  0.00    -0.342 N
ATOM      2  H1  UNL     1       9.790  33.636  76.978  1.00  0.00     0.167 HD
HETATM    3  C7  UNL     1       8.615  32.823  75.587  1.00  0.00     0.108 A
HETATM    4  C8  UNL     1       9.376  31.680  75.480  1.00  0.00     0.075 A
HETATM    5  C9  UNL     1       9.004  30.690  74.596  1.00  0.00     0.039 A
HETATM    6  N3  UNL     1       7.883  30.912  73.870  1.00  0.00    -0.354 N
ATOM      7  H3  UNL     1       7.579  30.200  73.206  1.00  0.00     0.166 HD
HETATM    8  C21 UNL     1       7.157  32.031  73.989  1.00  0.00     0.182 A
HETATM    9  N4  UNL     1       7.503  33.008  74.844  1.00  0.00    -0.339 N
ATOM     10  H4  UNL     1       6.945  33.858  74.930  1.00  0.00     0.168 HD
ENDROOT
BRANCH   5  11
HETATM   11  C10 UNL     1       9.796  29.431  74.441  1.00  0.00     0.290 C
BRANCH  11  12
HETATM   12  N2  UNL     1      11.051  29.623  75.125  1.00  0.00    -0.061 N
ATOM     13  H22 UNL     1      11.022  30.458  75.710  1.00  0.00     0.278 HD
ATOM     14  H21 UNL     1      11.182  28.916  75.849  1.00  0.00     0.278 HD
BRANCH  12  15
HETATM   15  C11 UNL     1      12.182  29.660  74.234  1.00  0.00     0.127 C
HETATM   16  C12 UNL     1      13.355  28.933  74.802  1.00  0.00     0.043 C
HETATM   17  C13 UNL     1      14.571  29.099  73.911  1.00  0.00    -0.012 C
HETATM   18  C14 UNL     1      14.944  30.539  73.743  1.00  0.00     0.009 C
HETATM   19  C18 UNL     1      14.266  28.538  72.542  1.00  0.00     0.009 C
HETATM   20  C15 UNL     1      13.766  31.289  73.158  1.00  0.00    -0.012 C
HETATM   21  C16 UNL     1      13.379  30.736  71.797  1.00  0.00     0.009 C
HETATM   22  C20 UNL     1      12.564  31.119  74.058  1.00  0.00     0.043 C
HETATM   23  C17 UNL     1      13.063  29.271  71.991  1.00  0.00    -0.012 C
HETATM   24  C19 UNL     1      11.857  29.111  72.864  1.00  0.00     0.043 C
ENDBRANCH  12  15
ENDBRANCH  11  12
ENDBRANCH   5  11
BRANCH   1  25
HETATM   25  C6  UNL     1       8.194  34.952  76.552  1.00  0.00     0.037 A
HETATM   26  C5  UNL     1       7.244  35.006  77.549  1.00  0.00     0.053 A
HETATM   27  C4  UNL     1       6.489  36.145  77.722  1.00  0.00     0.038 A
HETATM   28  C3  UNL     1       6.685  37.249  76.886  1.00  0.00     0.060 A
HETATM   29 CL1  UNL     1       5.280  36.212  78.991  1.00  0.00    -0.084 Cl
HETATM   30  C2  UNL     1       7.624  37.212  75.889  1.00  0.00     0.071 A
HETATM   31  C22 UNL     1       8.365  36.050  75.745  1.00  0.00     0.066 A
BRANCH  30  32
HETATM   32  O1  UNL     1       7.869  38.277  75.021  1.00  0.00    -0.356 OA
HETATM   33  C1  UNL     1       9.036  38.444  74.289  1.00  0.00     0.210 C
ENDBRANCH  30  32
ENDBRANCH   1  25
TORSDOF 5
ENDMDL