MODEL 2
REMARK VINA RESULT: -7.016378920      3.594      7.124
REMARK  6 active torsions:
REMARK  status: ('A' for Active; 'I' for Inactive)
REMARK       I    between atoms: C1_2  and  N1_3
REMARK    1  A    between atoms: C1_2  and  C12_16
REMARK    2  A    between atoms: N1_3  and  C2_5
REMARK    3  A    between atoms: C12_16  and  C13_17
REMARK    4  A    between atoms: C12_16  and  N2_23
REMARK    5  A    between atoms: C21_28  and  C22_29
REMARK    6  A    between atoms: C22_29  and  O2_30
ROOT
HETATM    1  C12 UNL     1       8.705  33.269  75.695  1.00  0.00     0.089 C
ENDROOT
BRANCH   1   2
HETATM    2  C1  UNL     1       9.189  32.083  74.992  1.00  0.00     0.265 C
HETATM    3  O1  UNL     1       8.522  31.725  73.948  1.00  0.00    -0.266 OA
HETATM    4  N1  UNL     1      10.327  31.291  75.359  1.00  0.00    -0.350 N
ATOM      5  H1  UNL     1      10.866  31.567  76.180  1.00  0.00     0.163 HD
BRANCH   4   6
HETATM    6  C2  UNL     1      10.747  30.117  74.618  1.00  0.00     0.096 C
HETATM    7  C3  UNL     1      10.691  28.864  75.472  1.00  0.00     0.026 C
HETATM    8  C4  UNL     1      11.913  28.561  76.250  1.00  0.00     0.002 C
HETATM    9  C5  UNL     1      13.098  28.514  75.340  1.00  0.00     0.001 C
HETATM   10  C6  UNL     1      13.251  29.704  74.462  1.00  0.00     0.014 C
HETATM   11  C7  UNL     1      12.013  30.274  73.865  1.00  0.00     0.011 C
HETATM   12  C8  UNL     1      12.319  31.749  73.590  1.00  0.00     0.014 C
HETATM   13  C11 UNL     1      11.870  29.709  72.440  1.00  0.00     0.180 C
HETATM   14  C9  UNL     1      12.928  31.809  72.231  1.00  0.00     0.004 C
HETATM   15  C10 UNL     1      12.850  30.460  71.609  1.00  0.00     0.038 C
HETATM   16  F1  UNL     1      12.030  28.359  72.393  1.00  0.00    -0.249 F
ENDBRANCH   4   6
ENDBRANCH   1   2
BRANCH   1  17
HETATM   17  C13 UNL     1       9.778  33.958  76.559  1.00  0.00     0.042 C
HETATM   18  C14 UNL     1      10.414  35.036  75.720  1.00  0.00     0.011 C
HETATM   19  C15 UNL     1       9.720  36.350  75.739  1.00  0.00     0.001 C
HETATM   20  C16 UNL     1       9.214  36.739  77.107  1.00  0.00     0.000 C
HETATM   21  C17 UNL     1       9.816  35.801  78.139  1.00  0.00     0.001 C
HETATM   22  C18 UNL     1       9.197  34.456  77.843  1.00  0.00     0.011 C
ENDBRANCH   1  17
BRANCH   1  23
HETATM   23  N2  UNL     1       7.415  33.206  76.301  1.00  0.00    -0.306 N
HETATM   24  C19 UNL     1       7.035  32.156  77.101  1.00  0.00     0.188 A
HETATM   25  N3  UNL     1       5.788  32.313  77.550  1.00  0.00    -0.360 N
HETATM   26  C20 UNL     1       5.320  33.461  77.061  1.00  0.00     0.116 A
ATOM     27  H3  UNL     1       5.284  31.668  78.158  1.00  0.00     0.166 HD
HETATM   28  C21 UNL     1       6.343  34.019  76.279  1.00  0.00     0.056 A
BRANCH  28  29
HETATM   29  C22 UNL     1       6.242  35.294  75.575  1.00  0.00     0.223 C
BRANCH  29  30
HETATM   30  O2  UNL     1       6.014  36.321  76.530  1.00  0.00    -0.395 OA
ATOM     31  H2  UNL     1       6.231  35.986  77.392  1.00  0.00     0.209 HD
ENDBRANCH  29  30
ENDBRANCH  28  29
ENDBRANCH   1  23
TORSDOF 6
ENDMDL