MODEL 3
REMARK VINA RESULT: -6.712457386      2.211      4.799
REMARK  7 active torsions:
REMARK  status: ('A' for Active; 'I' for Inactive)
REMARK    1  A    between atoms: O1_2  and  C2_3
REMARK    2  A    between atoms: C7_8  and  O2_9
REMARK    3  A    between atoms: C9_11  and  O3_12
REMARK    4  A    between atoms: C10_14  and  C11_15
REMARK    5  A    between atoms: C11_15  and  C12_16
REMARK    6  A    between atoms: C15_20  and  C16_21
REMARK    7  A    between atoms: C16_21  and  O5_22
ROOT
HETATM    1  C2  UNL     1       5.405  32.791  77.279  1.00  0.00     0.102 A
HETATM    2  C3  UNL     1       5.687  33.946  77.976  1.00  0.00     0.048 A
HETATM    3  C4  UNL     1       6.234  35.089  77.371  1.00  0.00    -0.036 A
HETATM    4  C5  UNL     1       6.497  35.040  76.008  1.00  0.00    -0.019 A
HETATM    5  C6  UNL     1       6.221  33.907  75.313  1.00  0.00     0.050 A
HETATM    6  C7  UNL     1       5.675  32.773  75.929  1.00  0.00     0.102 A
HETATM    7  C9  UNL     1       7.149  36.240  75.364  1.00  0.00     0.156 C
HETATM    8  C10 UNL     1       8.247  36.677  76.286  1.00  0.00     0.027 C
HETATM    9  C14 UNL     1       7.749  37.008  77.633  1.00  0.00     0.024 C
HETATM   10  C15 UNL     1       6.537  36.281  78.120  1.00  0.00     0.077 C
ENDROOT
BRANCH  10  11
HETATM   11  C16 UNL     1       5.485  37.284  78.349  1.00  0.00     0.065 C
HETATM   12  C17 UNL     1       4.533  37.410  79.184  1.00  0.00     0.014 C
HETATM   13  C18 UNL     1       3.633  38.608  79.110  1.00  0.00     0.059 C
HETATM   14 BR1  UNL     1       4.140  36.183  80.550  1.00  0.00    -0.053 Br
BRANCH  11  15
HETATM   15  O5  UNL     1       5.575  38.369  77.391  1.00  0.00    -0.363 OA
ATOM     16  H5  UNL     1       4.732  38.787  77.265  1.00  0.00     0.217 HD
ENDBRANCH  11  15
ENDBRANCH  10  11
BRANCH   8  17
HETATM   17  C11 UNL     1       9.003  37.839  75.649  1.00  0.00     0.085 C
BRANCH  17  18
HETATM   18  C12 UNL     1      10.200  37.290  74.972  1.00  0.00     0.123 C
HETATM   19  C13 UNL     1      10.976  36.138  75.516  1.00  0.00     0.091 C
HETATM   20  O4  UNL     1      10.557  37.812  73.929  1.00  0.00    -0.298 OA
ENDBRANCH  17  18
ENDBRANCH   8  17
BRANCH   1  21
HETATM   21  O1  UNL     1       4.865  31.664  77.885  1.00  0.00    -0.353 OA
HETATM   22  C1  UNL     1       3.481  31.503  78.123  1.00  0.00     0.210 C
ENDBRANCH   1  21
BRANCH   7  23
HETATM   23  O3  UNL     1       6.279  37.222  74.993  1.00  0.00    -0.390 OA
ATOM     24  H3  UNL     1       6.648  37.872  74.407  1.00  0.00     0.210 HD
ENDBRANCH   7  23
BRANCH   6  25
HETATM   25  O2  UNL     1       5.428  31.679  75.161  1.00  0.00    -0.353 OA
HETATM   26  C8  UNL     1       6.168  31.171  74.109  1.00  0.00     0.210 C
ENDBRANCH   6  25
TORSDOF 7
ENDMDL