MODEL 4
REMARK VINA RESULT: -7.352852476      3.342      8.650
REMARK  8 active torsions:
REMARK  status: ('A' for Active; 'I' for Inactive)
REMARK    1  A    between atoms: C5_5  and  N1_6
REMARK    2  A    between atoms: N1_6  and  C6_8
REMARK    3  A    between atoms: C6_8  and  N2_10
REMARK    4  A    between atoms: N2_10  and  N3_12
REMARK    5  A    between atoms: N3_12  and  C7_14
REMARK    6  A    between atoms: C7_14  and  C8_15
REMARK    7  A    between atoms: C11_19  and  C12_20
REMARK    8  A    between atoms: C16_24  and  N4_25
ROOT
HETATM    1  N3  UNL     1       5.524  38.244  77.636  1.00  0.00    -0.262 N
ATOM      2  H3  UNL     1       6.282  38.885  77.872  1.00  0.00     0.197 HD
ENDROOT
BRANCH   1   3
HETATM    3  N2  UNL     1       4.257  38.784  77.844  1.00  0.00    -0.269 N
ATOM      4  H2  UNL     1       3.602  38.687  77.068  1.00  0.00     0.190 HD
BRANCH   3   5
HETATM    5  C6  UNL     1       3.765  39.440  78.972  1.00  0.00     0.187 C
HETATM    6  S1  UNL     1       4.266  41.040  79.102  1.00  0.00    -0.040 SA
BRANCH   5   7
HETATM    7  N1  UNL     1       2.930  38.923  79.948  1.00  0.00    -0.361 N
ATOM      8  H1  UNL     1       3.377  38.554  80.788  1.00  0.00     0.162 HD
BRANCH   7   9
HETATM    9  C5  UNL     1       1.524  38.856  79.895  1.00  0.00     0.088 C
HETATM   10  C4  UNL     1       1.029  40.046  80.753  1.00  0.00     0.026 C
HETATM   11  C3  UNL     1       1.102  39.386  82.131  1.00  0.00     0.007 C
HETATM   12  C2  UNL     1       0.399  38.071  81.867  1.00  0.00    -0.013 C
HETATM   13  C1  UNL     1      -1.097  38.316  81.889  1.00  0.00     0.010 C
HETATM   14  C17 UNL     1       0.878  37.656  80.500  1.00  0.00     0.008 C
HETATM   15  C18 UNL     1       1.740  36.439  80.594  1.00  0.00     0.012 C
ENDBRANCH   7   9
ENDBRANCH   5   7
ENDBRANCH   3   5
ENDBRANCH   1   3
BRANCH   1  16
HETATM   16  C7  UNL     1       5.901  37.200  77.245  1.00  0.00    -0.011 C
BRANCH  16  17
HETATM   17  C8  UNL     1       6.360  35.966  76.780  1.00  0.00     0.063 A
HETATM   18  C9  UNL     1       5.828  34.756  77.235  1.00  0.00     0.048 A
HETATM   19  C10 UNL     1       6.088  33.523  76.689  1.00  0.00     0.042 A
HETATM   20 CL1  UNL     1       5.392  32.046  77.320  1.00  0.00    -0.084 Cl
HETATM   21  C11 UNL     1       6.953  33.429  75.590  1.00  0.00    -0.030 A
HETATM   22  C15 UNL     1       7.476  34.588  75.139  1.00  0.00     0.047 A
HETATM   23  C16 UNL     1       7.221  35.842  75.683  1.00  0.00     0.123 A
BRANCH  21  24
HETATM   24  C12 UNL     1       7.271  32.143  74.980  1.00  0.00     0.020 A
HETATM   25  C13 UNL     1       6.283  31.521  74.010  1.00  0.00     0.010 A
HETATM   26  C14 UNL     1       7.666  31.987  73.555  1.00  0.00     0.010 A
ENDBRANCH  21  24
BRANCH  23  27
HETATM   27  N4  UNL     1       7.853  36.970  75.111  1.00  0.00    -0.114 N
HETATM   28  O1  UNL     1       8.930  37.418  75.601  1.00  0.00    -0.532 OA
HETATM   29  O2  UNL     1       7.353  37.621  74.024  1.00  0.00    -0.532 OA
ENDBRANCH  23  27
ENDBRANCH  16  17
ENDBRANCH   1  16
TORSDOF 8
ENDMDL