MODEL 2
REMARK VINA RESULT: -7.533224242      3.321      7.845
REMARK  7 active torsions:
REMARK  status: ('A' for Active; 'I' for Inactive)
REMARK    1  A    between atoms: N1_2  and  C2_3
REMARK    2  A    between atoms: N1_2  and  C17_20
REMARK    3  A    between atoms: C2_3  and  C3_4
REMARK    4  A    between atoms: N2_13  and  C11_14
REMARK    5  A    between atoms: C17_20  and  C18_21
REMARK    6  A    between atoms: C21_24  and  N3_25
REMARK    7  A    between atoms: C22_29  and  O1_30
ROOT
HETATM    1  C3  UNL     1       6.440  35.963  78.150  1.00  0.00     0.051 A
HETATM    2  C4  UNL     1       5.670  34.802  78.193  1.00  0.00     0.044 A
HETATM    3  C5  UNL     1       6.008  33.995  77.129  1.00  0.00    -0.007 A
HETATM    4  C6  UNL     1       5.563  32.749  76.699  1.00  0.00     0.015 A
HETATM    5  C7  UNL     1       6.092  32.157  75.567  1.00  0.00     0.025 A
HETATM    6  C8  UNL     1       7.069  32.818  74.869  1.00  0.00     0.036 A
HETATM    7 CL1  UNL     1       7.802  32.139  73.420  1.00  0.00    -0.084 Cl
HETATM    8  C9  UNL     1       7.507  34.056  75.302  1.00  0.00     0.054 A
HETATM    9  C10 UNL     1       6.990  34.675  76.439  1.00  0.00     0.047 A
HETATM   10  N2  UNL     1       7.236  35.862  77.072  1.00  0.00    -0.340 N
ENDROOT
BRANCH   1  11
HETATM   11  C2  UNL     1       6.395  37.074  79.098  1.00  0.00     0.119 C
BRANCH  11  12
HETATM   12  N1  UNL     1       5.217  37.847  79.078  1.00  0.00    -0.372 N
HETATM   13  C1  UNL     1       4.922  38.659  77.991  1.00  0.00     0.154 C
BRANCH  12  14
HETATM   14  C17 UNL     1       4.289  37.508  80.060  1.00  0.00     0.070 C
BRANCH  14  15
HETATM   15  C18 UNL     1       2.842  37.655  79.779  1.00  0.00     0.055 C
HETATM   16  C19 UNL     1       2.072  36.473  80.305  1.00  0.00     0.014 C
HETATM   17  C20 UNL     1       0.765  37.015  80.862  1.00  0.00     0.036 C
HETATM   18  C21 UNL     1       0.746  38.434  80.415  1.00  0.00     0.212 C
HETATM   19  C22 UNL     1       2.208  38.853  80.508  1.00  0.00     0.157 C
BRANCH  18  20
HETATM   20  N3  UNL     1      -0.041  39.295  81.259  1.00  0.00    -0.073 N
ATOM     21  H33 UNL     1      -0.269  38.829  82.137  1.00  0.00     0.274 HD
ATOM     22  H32 UNL     1       0.525  40.065  81.618  1.00  0.00     0.274 HD
ATOM     23  H31 UNL     1      -0.886  39.649  80.809  1.00  0.00     0.274 HD
ENDBRANCH  18  20
BRANCH  19  24
HETATM   24  O1  UNL     1       2.360  40.028  79.812  1.00  0.00    -0.393 OA
ATOM     25  H1  UNL     1       2.831  40.685  80.310  1.00  0.00     0.210 HD
ENDBRANCH  19  24
ENDBRANCH  14  15
ENDBRANCH  12  14
ENDBRANCH  11  12
ENDBRANCH   1  11
BRANCH  10  26
HETATM   26  C11 UNL     1       8.225  36.830  76.606  1.00  0.00     0.090 C
HETATM   27  C12 UNL     1       9.554  36.174  76.469  1.00  0.00     0.026 C
HETATM   28  C13 UNL     1      10.476  36.767  75.469  1.00  0.00     0.002 C
HETATM   29  C14 UNL     1       9.822  37.294  74.223  1.00  0.00     0.000 C
HETATM   30  C15 UNL     1       8.783  38.293  74.644  1.00  0.00     0.002 C
HETATM   31  C16 UNL     1       7.718  37.569  75.427  1.00  0.00     0.026 C
ENDBRANCH  10  26
TORSDOF 7
ENDMDL