MODEL 4
REMARK VINA RESULT: -7.954791927      1.369      1.805
REMARK  5 active torsions:
REMARK  status: ('A' for Active; 'I' for Inactive)
REMARK       I    between atoms: C1_2  and  N1_3
REMARK    1  A    between atoms: C1_2  and  C13_20
REMARK    2  A    between atoms: N1_3  and  C2_5
REMARK    3  A    between atoms: C13_20  and  N4_21
REMARK    4  A    between atoms: C13_20  and  C19_28
REMARK    5  A    between atoms: N4_21  and  C14_23
ROOT
HETATM    1  C2  UNL     1       5.606  37.276  78.638  1.00  0.00     0.059 A
HETATM    2  C3  UNL     1       5.214  38.467  78.088  1.00  0.00     0.034 A
HETATM    3  C4  UNL     1       4.092  39.128  78.511  1.00  0.00     0.034 A
HETATM    4  C5  UNL     1       3.331  38.584  79.521  1.00  0.00     0.064 A
HETATM    5  C6  UNL     1       3.671  37.397  80.112  1.00  0.00     0.085 A
HETATM    6  N2  UNL     1       2.754  37.077  81.077  1.00  0.00    -0.343 N
ATOM      7  H2  UNL     1       2.758  36.250  81.675  1.00  0.00     0.167 HD
HETATM    8  C7  UNL     1       1.833  38.086  81.080  1.00  0.00     0.084 A
HETATM    9  N3  UNL     1       2.184  38.979  80.150  1.00  0.00    -0.335 N
HETATM   10  C8  UNL     1       1.402  40.174  79.906  1.00  0.00     0.130 C
HETATM   11  C9  UNL     1       0.800  40.660  81.189  1.00  0.00     0.021 C
HETATM   12  C10 UNL     1       0.022  39.604  81.908  1.00  0.00     0.009 C
HETATM   13  C11 UNL     1       0.619  38.249  81.917  1.00  0.00     0.076 C
HETATM   14  C12 UNL     1       4.798  36.753  79.671  1.00  0.00     0.089 A
HETATM   15 CL1  UNL     1       5.277  35.220  80.409  1.00  0.00    -0.079 Cl
ENDROOT
BRANCH   1  16
HETATM   16  N1  UNL     1       6.739  36.537  78.225  1.00  0.00    -0.324 N
HETATM   17  C1  UNL     1       6.868  35.656  77.158  1.00  0.00     0.245 C
HETATM   18  O1  UNL     1       5.949  35.398  76.371  1.00  0.00    -0.271 OA
ATOM     19  H1  UNL     1       7.579  36.670  78.789  1.00  0.00     0.169 HD
BRANCH  17  20
HETATM   20  C13 UNL     1       8.192  34.940  76.896  1.00  0.00     0.174 C
BRANCH  20  21
HETATM   21  N4  UNL     1       8.784  35.581  75.778  1.00  0.00    -0.405 N
ATOM     22  H4  UNL     1       8.981  35.061  74.923  1.00  0.00     0.154 HD
BRANCH  21  23
HETATM   23  C14 UNL     1       9.096  36.959  75.875  1.00  0.00     0.077 C
HETATM   24  C15 UNL     1      10.436  37.186  75.210  1.00  0.00     0.024 C
HETATM   25  C16 UNL     1      10.213  38.209  74.129  1.00  0.00     0.002 C
HETATM   26  C17 UNL     1       8.738  38.095  73.821  1.00  0.00     0.002 C
HETATM   27  C18 UNL     1       8.124  37.875  75.179  1.00  0.00     0.024 C
ENDBRANCH  21  23
ENDBRANCH  20  21
BRANCH  20  28
HETATM   28  C19 UNL     1       7.863  33.494  76.646  1.00  0.00     0.017 A
HETATM   29  C20 UNL     1       7.307  32.583  77.675  1.00  0.00     0.007 A
HETATM   30  C21 UNL     1       8.719  32.432  77.320  1.00  0.00     0.007 A
ENDBRANCH  20  28
ENDBRANCH  17  20
ENDBRANCH   1  16
TORSDOF 5
ENDMDL