MODEL 2
REMARK VINA RESULT: -8.717047041      2.783      3.629
REMARK  5 active torsions:
REMARK  status: ('A' for Active; 'I' for Inactive)
REMARK       I    between atoms: C1_2  and  N1_3
REMARK    1  A    between atoms: C1_2  and  C14_17
REMARK    2  A    between atoms: N1_3  and  C2_5
REMARK    3  A    between atoms: C5_8  and  C6_9
REMARK    4  A    between atoms: C6_9  and  C7_10
REMARK    5  A    between atoms: C17_21  and  N2_22
ROOT
HETATM    1  O1  UNL     1       6.378  37.438  79.406  1.00  0.00    -0.267 OA
HETATM    2  C1  UNL     1       5.461  37.810  78.579  1.00  0.00     0.257 C
HETATM    3  N1  UNL     1       5.761  37.550  77.223  1.00  0.00    -0.352 N
ATOM      4  H1  UNL     1       5.107  37.803  76.482  1.00  0.00     0.163 HD
ENDROOT
BRANCH   2   5
HETATM    5  C14 UNL     1       4.291  38.424  79.141  1.00  0.00     0.097 A
HETATM    6  C15 UNL     1       3.954  39.749  78.947  1.00  0.00     0.136 A
HETATM    7  F1  UNL     1       4.740  40.580  78.213  1.00  0.00    -0.205 F
HETATM    8  C16 UNL     1       2.785  40.272  79.504  1.00  0.00     0.080 A
HETATM    9  C17 UNL     1       1.971  39.482  80.241  1.00  0.00     0.114 A
HETATM   10  C18 UNL     1       2.271  38.154  80.458  1.00  0.00     0.004 A
HETATM   11  C19 UNL     1       3.424  37.634  79.911  1.00  0.00     0.055 A
HETATM   12  C21 UNL     1       1.522  37.109  81.214  1.00  0.00     0.063 C
HETATM   13  N3  UNL     1       3.477  36.279  80.313  1.00  0.00    -0.388 N
HETATM   14  C20 UNL     1       2.112  35.843  80.617  1.00  0.00     0.124 C
ATOM     15  H3  UNL     1       4.318  35.707  80.380  1.00  0.00     0.159 HD
BRANCH   9  16
HETATM   16  N2  UNL     1       0.788  40.007  80.808  1.00  0.00    -0.115 N
HETATM   17  O2  UNL     1      -0.194  39.283  81.025  1.00  0.00    -0.532 OA
HETATM   18  O3  UNL     1       0.735  41.339  81.120  1.00  0.00    -0.532 OA
ENDBRANCH   9  16
ENDBRANCH   2   5
BRANCH   3  19
HETATM   19  C2  UNL     1       7.036  36.907  76.916  1.00  0.00     0.085 C
HETATM   20  C3  UNL     1       7.649  37.415  75.648  1.00  0.00     0.025 C
HETATM   21  C4  UNL     1       8.762  36.369  75.461  1.00  0.00     0.007 C
HETATM   22  C5  UNL     1       8.003  35.096  75.760  1.00  0.00    -0.012 C
HETATM   23  C13 UNL     1       6.864  35.436  76.642  1.00  0.00     0.029 C
BRANCH  22  24
HETATM   24  C6  UNL     1       8.837  33.933  76.081  1.00  0.00     0.009 C
BRANCH  24  25
HETATM   25  C7  UNL     1       8.624  32.649  75.396  1.00  0.00    -0.014 C
HETATM   26  C8  UNL     1       7.598  32.638  74.293  1.00  0.00     0.005 C
HETATM   27  C9  UNL     1       7.760  31.381  73.442  1.00  0.00     0.000 C
HETATM   28  C10 UNL     1       8.566  30.320  74.167  1.00  0.00     0.000 C
HETATM   29  C11 UNL     1       9.970  30.830  74.323  1.00  0.00     0.000 C
HETATM   30  C12 UNL     1       9.955  32.289  74.707  1.00  0.00     0.005 C
ENDBRANCH  24  25
ENDBRANCH  22  24
ENDBRANCH   3  19
TORSDOF 5
ENDMDL