MODEL 3
REMARK VINA RESULT: -6.929126449      2.442      5.184
REMARK  8 active torsions:
REMARK  status: ('A' for Active; 'I' for Inactive)
REMARK    1  A    between atoms: C13_13  and  C14_15
REMARK    2  A    between atoms: C14_15  and  O1_17
REMARK    3  A    between atoms: C14_15  and  C16_19
REMARK    4  A    between atoms: C16_19  and  C17_20
REMARK    5  A    between atoms: C17_20  and  C18_21
REMARK    6  A    between atoms: C19_22  and  O2_24
REMARK    7  A    between atoms: C21_26  and  O3_27
REMARK    8  A    between atoms: O3_27  and  C22_28
ROOT
HETATM    1  C1  UNL     1       4.107  32.899  78.825  1.00  0.00     0.017 C
HETATM    2  C2  UNL     1       5.296  32.553  78.419  1.00  0.00    -0.056 C
HETATM    3  C3  UNL     1       5.613  31.481  77.466  1.00  0.00     0.042 C
HETATM    4  C4  UNL     1       6.410  32.071  76.349  1.00  0.00     0.009 C
HETATM    5  C5  UNL     1       6.659  31.062  75.265  1.00  0.00    -0.043 C
HETATM    6  C6  UNL     1       7.471  29.880  75.627  1.00  0.00     0.015 C
HETATM    7  C7  UNL     1       5.251  30.509  74.943  1.00  0.00     0.015 C
HETATM    8  C8  UNL     1       7.142  31.662  73.996  1.00  0.00     0.009 C
HETATM    9  C9  UNL     1       7.531  33.092  74.267  1.00  0.00     0.002 C
HETATM   10  C10 UNL     1       8.365  33.174  75.563  1.00  0.00     0.013 C
HETATM   11  C11 UNL     1       7.653  32.846  76.781  1.00  0.00     0.003 C
HETATM   12  C12 UNL     1       8.516  31.943  77.695  1.00  0.00     0.019 C
HETATM   13  C13 UNL     1       7.189  33.941  77.737  1.00  0.00     0.171 C
HETATM   14  F1  UNL     1       6.018  34.425  77.033  1.00  0.00    -0.236 F
HETATM   15  C21 UNL     1       6.574  33.283  78.931  1.00  0.00     0.203 C
ENDROOT
BRANCH  13  16
HETATM   16  C14 UNL     1       8.029  35.126  77.910  1.00  0.00     0.094 C
HETATM   17  C15 UNL     1       7.201  36.366  78.365  1.00  0.00     0.049 C
BRANCH  16  18
HETATM   18  O1  UNL     1       9.101  35.085  78.744  1.00  0.00    -0.387 OA
ATOM     19  H1  UNL     1       9.411  34.253  79.081  1.00  0.00     0.210 HD
ENDBRANCH  16  18
BRANCH  16  20
HETATM   20  C16 UNL     1       8.494  35.663  76.546  1.00  0.00     0.044 C
BRANCH  20  21
HETATM   21  C17 UNL     1       8.304  37.119  76.315  1.00  0.00     0.032 C
BRANCH  21  22
HETATM   22  C18 UNL     1       7.932  37.478  74.926  1.00  0.00     0.005 C
HETATM   23  C19 UNL     1       8.751  37.990  74.057  1.00  0.00     0.035 C
HETATM   24  C20 UNL     1      10.161  38.278  74.356  1.00  0.00     0.075 C
BRANCH  23  25
HETATM   25  O2  UNL     1       8.278  38.283  72.776  1.00  0.00    -0.366 OA
ATOM     26  H2  UNL     1       8.374  37.631  72.092  1.00  0.00     0.217 HD
ENDBRANCH  23  25
ENDBRANCH  21  22
ENDBRANCH  20  21
ENDBRANCH  16  20
ENDBRANCH  13  16
BRANCH  15  27
HETATM   27  O3  UNL     1       6.124  34.125  79.908  1.00  0.00    -0.308 OA
BRANCH  27  28
HETATM   28  C22 UNL     1       6.663  34.170  81.210  1.00  0.00     0.255 C
HETATM   29  C23 UNL     1       5.798  34.432  82.379  1.00  0.00     0.126 C
HETATM   30  O4  UNL     1       7.903  33.971  81.273  1.00  0.00    -0.266 OA
ENDBRANCH  27  28
ENDBRANCH  15  27
TORSDOF 8
ENDMDL