MODEL 4
REMARK VINA RESULT: -8.132692656      1.683      4.009
REMARK  20 active torsions:
REMARK  status: ('A' for Active; 'I' for Inactive)
REMARK    1  A    between atoms: O1_2  and  C2_3
REMARK    2  A    between atoms: C2_3  and  C3_4
REMARK    3  A    between atoms: C3_4  and  O2_5
REMARK    4  A    between atoms: C3_4  and  C6_9
REMARK    5  A    between atoms: O2_5  and  C4_6
REMARK    6  A    between atoms: C6_9  and  O4_10
REMARK    7  A    between atoms: C6_9  and  C7_12
REMARK    8  A    between atoms: C7_12  and  C8_13
REMARK    9  A    between atoms: C7_12  and  C11_19
REMARK   10  A    between atoms: C8_13  and  O6_15
REMARK   11  A    between atoms: O6_15  and  C9_16
REMARK   12  A    between atoms: C11_19  and  O8_20
REMARK   13  A    between atoms: C11_19  and  C12_22
REMARK   14  A    between atoms: C13_24  and  N1_25
REMARK   15  A    between atoms: N1_25  and  C14_27
REMARK   16  A    between atoms: C14_27  and  O10_28
REMARK   17  A    between atoms: C14_27  and  C15_30
REMARK   18  A    between atoms: C16_31  and  N2_32
REMARK   19  A    between atoms: N2_32  and  C17_34
REMARK   20  A    between atoms: C24_50  and  O14_51
ROOT
HETATM    1  N1  UNL     1      17.737  -2.595  -0.531  1.00  0.00    -0.343 N
ATOM      2  H1  UNL     1      17.702  -2.888  -1.508  1.00  0.00     0.164 HD
ENDROOT
BRANCH   1   3
HETATM    3  C13 UNL     1      17.588  -3.595   0.480  1.00  0.00     0.233 C
HETATM    4  O9  UNL     1      18.211  -4.812   0.230  1.00  0.00    -0.348 OA
HETATM    5  C12 UNL     1      17.583  -5.577  -0.707  1.00  0.00     0.215 C
HETATM    6  S1  UNL     1      15.921  -4.888  -0.843  1.00  0.00    -0.130 SA
HETATM    7  C26 UNL     1      16.141  -3.895   0.745  1.00  0.00     0.130 C
BRANCH   5   8
HETATM    8  C11 UNL     1      18.313  -5.900  -1.908  1.00  0.00     0.173 C
BRANCH   8   9
HETATM    9  C7  UNL     1      17.369  -6.318  -3.079  1.00  0.00     0.149 C
BRANCH   9  10
HETATM   10  C6  UNL     1      17.529  -7.821  -3.300  1.00  0.00     0.166 C
BRANCH  10  11
HETATM   11  C3  UNL     1      16.642  -8.669  -2.439  1.00  0.00     0.185 C
BRANCH  11  12
HETATM   12  C2  UNL     1      15.191  -8.282  -2.364  1.00  0.00     0.202 C
BRANCH  12  13
HETATM   13  O1  UNL     1      14.662  -8.532  -3.675  1.00  0.00    -0.393 OA
HETATM   14  C1  UNL     1      13.894  -7.423  -4.061  1.00  0.00     0.201 C
ENDBRANCH  12  13
ENDBRANCH  11  12
BRANCH  11  15
HETATM   15  O2  UNL     1      16.678  -9.990  -3.094  1.00  0.00    -0.311 OA
BRANCH  15  16
HETATM   16  C4  UNL     1      17.201 -11.059  -2.369  1.00  0.00     0.255 C
HETATM   17  C5  UNL     1      16.265 -12.101  -1.898  1.00  0.00     0.126 C
HETATM   18  O3  UNL     1      18.431 -11.098  -2.156  1.00  0.00    -0.266 OA
ENDBRANCH  15  16
ENDBRANCH  11  15
ENDBRANCH  10  11
BRANCH  10  19
HETATM   19  O4  UNL     1      18.870  -8.101  -2.797  1.00  0.00    -0.392 OA
ATOM     20  H4  UNL     1      19.380  -8.248  -3.586  1.00  0.00     0.210 HD
ENDBRANCH  10  19
ENDBRANCH   9  10
BRANCH   9  21
HETATM   21  C8  UNL     1      17.730  -5.602  -4.303  1.00  0.00     0.275 C
HETATM   22  O5  UNL     1      17.377  -4.400  -4.575  1.00  0.00    -0.264 OA
BRANCH  21  23
HETATM   23  O6  UNL     1      18.514  -6.199  -5.306  1.00  0.00    -0.245 OA
BRANCH  23  24
HETATM   24  C9  UNL     1      19.864  -5.861  -5.435  1.00  0.00     0.262 C
HETATM   25  C10 UNL     1      20.293  -5.022  -6.557  1.00  0.00     0.126 C
HETATM   26  O7  UNL     1      20.705  -6.274  -4.596  1.00  0.00    -0.265 OA
ENDBRANCH  23  24
ENDBRANCH  21  23
ENDBRANCH   9  21
ENDBRANCH   8   9
BRANCH   8  27
HETATM   27  O8  UNL     1      19.163  -4.950  -2.440  1.00  0.00    -0.391 OA
ATOM     28  H8  UNL     1      20.040  -5.260  -2.248  1.00  0.00     0.210 HD
ENDBRANCH   8  27
ENDBRANCH   5   8
ENDBRANCH   1   3
BRANCH   1  29
HETATM   29  C14 UNL     1      17.928  -1.239  -0.257  1.00  0.00     0.153 C
BRANCH  29  30
HETATM   30  O10 UNL     1      18.842  -1.101   0.677  1.00  0.00    -0.345 OA
ATOM     31  H10 UNL     1      18.438  -1.170   1.534  1.00  0.00     0.219 HD
ENDBRANCH  29  30
BRANCH  29  32
HETATM   32  C15 UNL     1      17.321  -0.141  -0.777  1.00  0.00     0.082 A
HETATM   33  C16 UNL     1      17.317   1.241  -0.830  1.00  0.00     0.115 A
HETATM   34  C21 UNL     1      16.196   2.088  -1.475  1.00  0.00     0.214 A
HETATM   35  O12 UNL     1      15.925   3.303  -1.680  1.00  0.00    -0.287 OA
HETATM   36  C22 UNL     1      15.153   1.295  -1.993  1.00  0.00     0.281 A
HETATM   37  O13 UNL     1      15.708   0.457  -1.657  1.00  0.00    -0.326 OA
HETATM   38  C25 UNL     1      14.173   0.115  -2.463  1.00  0.00     0.222 A
HETATM   39  C23 UNL     1      16.027  -0.626  -1.432  1.00  0.00     0.124 A
HETATM   40  C24 UNL     1      14.925  -1.079  -1.988  1.00  0.00     0.149 A
HETATM   41  O15 UNL     1      13.299   0.739  -2.990  1.00  0.00    -0.287 OA
BRANCH  33  42
HETATM   42  N2  UNL     1      18.324   1.851  -0.081  1.00  0.00    -0.187 N
ATOM     43  H2  UNL     1      18.313   1.758   0.934  1.00  0.00     0.184 HD
BRANCH  42  44
HETATM   44  C17 UNL     1      19.356   2.591  -0.690  1.00  0.00     0.679 C
HETATM   45  N3  UNL     1      18.987   3.763  -1.113  1.00  0.00    -0.217 N
HETATM   46  C18 UNL     1      19.579   4.868  -1.769  1.00  0.00     0.241 C
ATOM     47  H3  UNL     1      18.000   3.933  -0.919  1.00  0.00     0.178 HD
HETATM   48  C19 UNL     1      20.800   4.559  -2.553  1.00  0.00     0.240 C
HETATM   49  O11 UNL     1      20.933   5.178  -3.635  1.00  0.00    -0.271 OA
HETATM   50  N4  UNL     1      21.847   3.660  -2.259  1.00  0.00    -0.321 N
HETATM   51  C20 UNL     1      21.783   2.597  -1.514  1.00  0.00     0.200 C
ATOM     52  H4  UNL     1      22.754   3.867  -2.678  1.00  0.00     0.169 HD
HETATM   53  N5  UNL     1      20.657   2.060  -0.804  1.00  0.00    -0.188 N
ATOM     54  H5  UNL     1      20.820   1.179  -0.317  1.00  0.00     0.185 HD
ENDBRANCH  42  44
ENDBRANCH  33  42
BRANCH  40  55
HETATM   55  O14 UNL     1      14.893  -2.422  -1.920  1.00  0.00    -0.355 OA
ATOM     56  H14 UNL     1      14.009  -2.736  -2.073  1.00  0.00     0.218 HD
ENDBRANCH  40  55
ENDBRANCH  29  32
ENDBRANCH   1  29
TORSDOF 20
ENDMDL