MODEL 3
REMARK VINA RESULT: -10.979800282      5.027      8.911
REMARK  12 active torsions:
REMARK  status: ('A' for Active; 'I' for Inactive)
REMARK    1  A    between atoms: C2_2  and  N1_3
REMARK    2  A    between atoms: C2_2  and  C14_29
REMARK    3  A    between atoms: N1_3  and  N2_4
REMARK       I    between atoms: N2_4  and  C3_6
REMARK    4  A    between atoms: C3_6  and  C4_8
REMARK    5  A    between atoms: C6_11  and  C7_12
REMARK    6  A    between atoms: C7_12  and  C8_14
REMARK    7  A    between atoms: C10_18  and  O3_19
REMARK    8  A    between atoms: O3_19  and  C11_20
REMARK    9  A    between atoms: C14_29  and  C16_31
REMARK       I    between atoms: C16_31  and  N8_33
REMARK       I    between atoms: N8_33  and  C17_35
REMARK   10  A    between atoms: C17_35  and  C18_37
REMARK   11  A    between atoms: C18_37  and  N9_38
REMARK   12  A    between atoms: C19_39  and  O7_40
ROOT
HETATM    1  C1  UNL     1      20.542   1.351  -0.582  1.00  0.00     0.083 C
HETATM    2  C2  UNL     1      19.022   1.354  -0.479  1.00  0.00     0.095 C
ENDROOT
BRANCH   2   3
HETATM    3  N1  UNL     1      18.323   0.445  -0.754  1.00  0.00    -0.331 NA
BRANCH   3   4
HETATM    4  N2  UNL     1      17.581  -0.526  -1.068  1.00  0.00    -0.198 N
HETATM    5  C3  UNL     1      17.535  -1.769  -0.327  1.00  0.00     0.297 C
HETATM    6  O1  UNL     1      18.274  -1.865   0.668  1.00  0.00    -0.263 OA
ATOM      7  H2  UNL     1      16.981  -0.430  -1.887  1.00  0.00     0.205 HD
BRANCH   5   8
HETATM    8  C4  UNL     1      16.636  -2.874  -0.760  1.00  0.00     0.110 A
HETATM    9  C5  UNL     1      15.420  -3.046  -0.144  1.00  0.00     0.087 A
HETATM   10  S1  UNL     1      14.804  -4.405  -0.976  1.00  0.00    -0.078 SA
HETATM   11  C6  UNL     1      16.107  -4.671  -2.040  1.00  0.00     0.128 A
HETATM   12  N7  UNL     1      16.952  -3.699  -1.701  1.00  0.00    -0.342 N
ATOM     13  H7  UNL     1      17.845  -3.606  -2.185  1.00  0.00     0.167 HD
BRANCH  11  14
HETATM   14  C7  UNL     1      16.319  -5.698  -3.086  1.00  0.00     0.240 C
HETATM   15  O2  UNL     1      17.361  -5.740  -3.757  1.00  0.00    -0.282 OA
BRANCH  14  16
HETATM   16  C8  UNL     1      15.246  -6.669  -3.301  1.00  0.00     0.148 A
HETATM   17  C9  UNL     1      14.999  -7.880  -2.704  1.00  0.00     0.133 A
HETATM   18  N3  UNL     1      13.881  -8.370  -3.272  1.00  0.00    -0.323 N
HETATM   19  C10 UNL     1      13.452  -7.502  -4.181  1.00  0.00     0.271 A
ATOM     20  H3  UNL     1      13.437  -9.259  -3.042  1.00  0.00     0.169 HD
HETATM   21  O4  UNL     1      14.261  -6.507  -4.190  1.00  0.00    -0.268 OA
BRANCH  19  22
HETATM   22  O3  UNL     1      12.337  -7.581  -5.013  1.00  0.00    -0.291 OA
BRANCH  22  23
HETATM   23  C11 UNL     1      11.031  -7.289  -4.562  1.00  0.00     0.262 C
HETATM   24  N4  UNL     1      10.536  -8.400  -3.822  1.00  0.00    -0.095 NA
HETATM   25  N5  UNL     1       9.489  -8.973  -4.513  1.00  0.00    -0.037 NA
HETATM   26  N6  UNL     1       9.067  -8.076  -5.479  1.00  0.00    -0.121 NA
HETATM   27  C12 UNL     1      10.131  -7.167  -5.768  1.00  0.00     0.139 C
HETATM   28  C13 UNL     1      10.832  -7.431  -7.062  1.00  0.00     0.033 C
ENDBRANCH  22  23
ENDBRANCH  19  22
ENDBRANCH  14  16
ENDBRANCH  11  14
ENDBRANCH   5   8
ENDBRANCH   3   4
ENDBRANCH   2   3
BRANCH   2  29
HETATM   29  C14 UNL     1      18.405   2.664   0.006  1.00  0.00     0.136 C
HETATM   30  C15 UNL     1      16.911   2.317   0.123  1.00  0.00     0.027 C
BRANCH  29  31
HETATM   31  C16 UNL     1      18.584   3.670  -1.044  1.00  0.00     0.234 C
HETATM   32  O5  UNL     1      17.581   3.956  -1.783  1.00  0.00    -0.272 OA
HETATM   33  N8  UNL     1      19.831   4.326  -1.255  1.00  0.00    -0.296 N
HETATM   34  C17 UNL     1      19.946   5.273  -2.293  1.00  0.00     0.242 C
ATOM     35  H8  UNL     1      20.632   4.112  -0.661  1.00  0.00     0.171 HD
HETATM   36  O6  UNL     1      18.951   5.534  -3.003  1.00  0.00    -0.271 OA
BRANCH  34  37
HETATM   37  C18 UNL     1      21.241   5.950  -2.540  1.00  0.00     0.237 C
BRANCH  37  38
HETATM   38  N9  UNL     1      21.676   5.735  -3.919  1.00  0.00    -0.284 N
HETATM   39  C19 UNL     1      22.153   4.527  -4.239  1.00  0.00     0.146 A
HETATM   40  C20 UNL     1      22.562   4.331  -5.547  1.00  0.00     0.075 A
HETATM   41  C21 UNL     1      22.466   5.364  -6.463  1.00  0.00     0.069 A
HETATM   42  C22 UNL     1      22.864   5.194  -7.771  1.00  0.00     0.262 A
HETATM   43  C24 UNL     1      21.967   6.599  -6.102  1.00  0.00     0.121 A
HETATM   44  O8  UNL     1      23.325   4.069  -8.127  1.00  0.00    -0.267 OA
HETATM   45  N10 UNL     1      22.762   6.219  -8.664  1.00  0.00    -0.275 N
HETATM   46  C23 UNL     1      22.275   7.409  -8.290  1.00  0.00     0.327 A
ATOM     47  H10 UNL     1      23.061   6.078  -9.629  1.00  0.00     0.173 HD
HETATM   48  O9  UNL     1      22.201   8.325  -9.148  1.00  0.00    -0.247 OA
HETATM   49  N11 UNL     1      21.878   7.588  -7.007  1.00  0.00    -0.303 N
ATOM     50  H11 UNL     1      21.505   8.494  -6.722  1.00  0.00     0.171 HD
HETATM   51  C25 UNL     1      21.565   6.759  -4.775  1.00  0.00     0.278 A
HETATM   52  O10 UNL     1      21.111   7.885  -4.449  1.00  0.00    -0.265 OA
BRANCH  39  53
HETATM   53  O7  UNL     1      22.258   3.482  -3.336  1.00  0.00    -0.346 OA
ATOM     54  H7  UNL     1      23.035   3.313  -2.816  1.00  0.00     0.219 HD
ENDBRANCH  39  53
ENDBRANCH  37  38
ENDBRANCH  34  37
ENDBRANCH  29  31
ENDBRANCH   2  29
TORSDOF 12
ENDMDL