MODEL 5
REMARK VINA RESULT: -9.710152588      2.592      4.423
REMARK  19 active torsions:
REMARK  status: ('A' for Active; 'I' for Inactive)
REMARK    1  A    between atoms: O1_2  and  C2_3
REMARK    2  A    between atoms: C2_3  and  C3_5
REMARK    3  A    between atoms: C5_7  and  S1_8
REMARK    4  A    between atoms: S1_8  and  C6_9
REMARK    5  A    between atoms: C10_21  and  N5_22
REMARK    6  A    between atoms: N5_22  and  C11_25
REMARK    7  A    between atoms: C11_25  and  C12_26
REMARK    8  A    between atoms: C11_25  and  C13_32
REMARK    9  A    between atoms: C12_26  and  O4_28
REMARK   10  A    between atoms: O4_28  and  N6_29
REMARK   11  A    between atoms: C13_32  and  C14_33
REMARK   12  A    between atoms: C13_32  and  N7_36
REMARK   13  A    between atoms: C14_33  and  O5_34
REMARK   14  A    between atoms: N7_36  and  C15_38
REMARK   15  A    between atoms: C15_38  and  O6_39
REMARK   16  A    between atoms: C15_38  and  C16_41
REMARK   17  A    between atoms: C17_42  and  O7_43
REMARK   18  A    between atoms: C18_45  and  C19_46
REMARK   19  A    between atoms: C22_49  and  O8_50
ROOT
HETATM    1  C11 UNL     1      19.911   3.568  -1.989  1.00  0.00     0.312 C
ENDROOT
BRANCH   1   2
HETATM    2  N5  UNL     1      19.854   3.664  -3.468  1.00  0.00    -0.044 N
ATOM      3  H52 UNL     1      18.931   3.464  -3.852  1.00  0.00     0.279 HD
ATOM      4  H51 UNL     1      20.353   2.911  -3.943  1.00  0.00     0.279 HD
BRANCH   2   5
HETATM    5  C10 UNL     1      20.330   4.941  -3.795  1.00  0.00     0.311 C
HETATM    6  C9  UNL     1      21.832   5.199  -3.482  1.00  0.00     0.195 C
HETATM    7  S2  UNL     1      23.009   4.669  -4.699  1.00  0.00    -0.136 SA
HETATM    8  N9  UNL     1      21.385   6.590  -3.653  1.00  0.00    -0.293 N
HETATM    9  C8  UNL     1      24.080   6.162  -4.992  1.00  0.00     0.117 C
HETATM   10  C4  UNL     1      23.052   7.212  -5.342  1.00  0.00    -0.009 C
HETATM   11  C3  UNL     1      22.056   7.624  -4.348  1.00  0.00     0.121 C
HETATM   12  C5  UNL     1      23.114   7.690  -6.594  1.00  0.00     0.063 C
HETATM   13  C24 UNL     1      20.223   6.104  -2.900  1.00  0.00     0.259 C
HETATM   14  O10 UNL     1      19.574   6.566  -1.978  1.00  0.00    -0.271 OA
BRANCH  11  15
HETATM   15  C2  UNL     1      22.484   8.739  -3.463  1.00  0.00     0.310 C
HETATM   16  O2  UNL     1      22.334   9.912  -3.871  1.00  0.00    -0.258 OA
BRANCH  15  17
HETATM   17  O1  UNL     1      23.044   8.549  -2.212  1.00  0.00    -0.321 OA
HETATM   18  C1  UNL     1      24.444   8.402  -2.003  1.00  0.00     0.213 C
ENDBRANCH  15  17
ENDBRANCH  11  15
BRANCH  12  19
HETATM   19  S1  UNL     1      21.923   8.898  -7.097  1.00  0.00    -0.062 SA
BRANCH  19  20
HETATM   20  C6  UNL     1      20.763   8.288  -8.291  1.00  0.00     0.182 A
HETATM   21  N1  UNL     1      20.122   9.068  -9.178  1.00  0.00    -0.263 N
HETATM   22  N2  UNL     1      19.336   8.293  -9.918  1.00  0.00    -0.226 N
ATOM     23  H1  UNL     1      20.221  10.080  -9.267  1.00  0.00     0.190 HD
HETATM   24  N3  UNL     1      19.460   7.042  -9.529  1.00  0.00    -0.224 N
ATOM     25  H2  UNL     1      18.730   8.617 -10.671  1.00  0.00     0.210 HD
HETATM   26  N4  UNL     1      20.347   7.039  -8.518  1.00  0.00    -0.258 N
ATOM     27  H3  UNL     1      18.978   6.232  -9.918  1.00  0.00     0.210 HD
HETATM   28  C7  UNL     1      20.752   5.820  -7.822  1.00  0.00     0.181 C
ENDBRANCH  19  20
ENDBRANCH  12  19
ENDBRANCH   2   5
ENDBRANCH   1   2
BRANCH   1  29
HETATM   29  C12 UNL     1      20.956   2.622  -1.584  1.00  0.00     0.313 C
HETATM   30  O3  UNL     1      22.057   3.061  -1.094  1.00  0.00    -0.261 OA
BRANCH  29  31
HETATM   31  O4  UNL     1      20.880   1.228  -1.672  1.00  0.00    -0.205 OA
BRANCH  31  32
HETATM   32  N6  UNL     1      21.066   0.458  -0.537  1.00  0.00    -0.302 N
ATOM     33  H62 UNL     1      20.915   0.879   0.380  1.00  0.00     0.184 HD
ATOM     34  H61 UNL     1      21.351  -0.517  -0.628  1.00  0.00     0.184 HD
ENDBRANCH  31  32
ENDBRANCH  29  31
ENDBRANCH   1  29
BRANCH   1  35
HETATM   35  C13 UNL     1      18.563   3.369  -1.395  1.00  0.00     0.147 C
BRANCH  35  36
HETATM   36  C14 UNL     1      18.207   4.485  -0.448  1.00  0.00     0.191 C
BRANCH  36  37
HETATM   37  O5  UNL     1      17.059   5.113  -0.877  1.00  0.00    -0.399 OA
ATOM     38  H5  UNL     1      16.432   5.159  -0.166  1.00  0.00     0.209 HD
ENDBRANCH  36  37
ENDBRANCH  35  36
BRANCH  35  39
HETATM   39  N7  UNL     1      18.384   2.082  -0.703  1.00  0.00    -0.361 N
ATOM     40  H7  UNL     1      19.196   1.580  -0.344  1.00  0.00     0.162 HD
BRANCH  39  41
HETATM   41  C15 UNL     1      17.122   1.555  -0.540  1.00  0.00     0.155 C
BRANCH  41  42
HETATM   42  O6  UNL     1      16.289   2.348   0.067  1.00  0.00    -0.345 OA
ATOM     43  H6  UNL     1      15.940   1.998   0.878  1.00  0.00     0.219 HD
ENDBRANCH  41  42
BRANCH  41  44
HETATM   44  C16 UNL     1      16.559   0.284  -0.911  1.00  0.00     0.116 A
HETATM   45  C17 UNL     1      17.137  -0.924  -0.639  1.00  0.00     0.096 A
HETATM   46  C18 UNL     1      16.489  -2.159  -0.989  1.00  0.00     0.030 A
HETATM   47  C22 UNL     1      15.285  -2.096  -1.600  1.00  0.00     0.152 A
HETATM   48  N8  UNL     1      14.710  -0.913  -1.874  1.00  0.00    -0.303 N
HETATM   49  C23 UNL     1      15.308   0.229  -1.550  1.00  0.00     0.264 A
ATOM     50  H8  UNL     1      13.802  -0.891  -2.336  1.00  0.00     0.171 HD
HETATM   51  O9  UNL     1      14.744   1.327  -1.819  1.00  0.00    -0.267 OA
BRANCH  45  52
HETATM   52  O7  UNL     1      18.319  -1.091  -0.049  1.00  0.00    -0.359 OA
ATOM     53  H7  UNL     1      19.077  -0.533  -0.178  1.00  0.00     0.217 HD
ENDBRANCH  45  52
BRANCH  46  54
HETATM   54  C19 UNL     1      17.232  -3.369  -0.599  1.00  0.00     0.017 C
HETATM   55  C20 UNL     1      17.602  -4.240  -1.745  1.00  0.00     0.015 C
HETATM   56  C21 UNL     1      16.520  -4.146   0.497  1.00  0.00     0.015 C
ENDBRANCH  46  54
BRANCH  47  57
HETATM   57  O8  UNL     1      14.607  -3.274  -1.962  1.00  0.00    -0.346 OA
ATOM     58  H8  UNL     1      14.766  -4.084  -1.492  1.00  0.00     0.219 HD
ENDBRANCH  47  57
ENDBRANCH  41  44
ENDBRANCH  39  41
ENDBRANCH  35  39
ENDBRANCH   1  35
TORSDOF 19
ENDMDL