MODEL 1
REMARK VINA RESULT: -8.696379300      0.000      0.000
REMARK  16 active torsions:
REMARK  status: ('A' for Active; 'I' for Inactive)
REMARK    1  A    between atoms: O1_2  and  C2_3
REMARK    2  A    between atoms: C2_3  and  C3_5
REMARK    3  A    between atoms: C3_5  and  C11_23
REMARK    4  A    between atoms: N1_6  and  O3_8
REMARK    5  A    between atoms: O3_8  and  C4_9
REMARK    6  A    between atoms: C4_9  and  C5_10
REMARK    7  A    between atoms: C5_10  and  O4_11
REMARK    8  A    between atoms: O4_11  and  C6_12
REMARK    9  A    between atoms: C6_12  and  C7_13
REMARK   10  A    between atoms: C9_15  and  N2_16
REMARK   11  A    between atoms: C10_19  and  O7_20
REMARK   12  A    between atoms: C18_38  and  C19_39
REMARK   13  A    between atoms: C19_39  and  O10_41
REMARK   14  A    between atoms: C21_45  and  O11_46
REMARK   15  A    between atoms: C22_48  and  C23_49
REMARK   16  A    between atoms: C23_49  and  N7_50
ROOT
HETATM    1  C11 UNL     1      22.332   5.220  -4.995  1.00  0.00     0.283 C
HETATM    2  N3  UNL     1      23.621   5.238  -4.318  1.00  0.00    -0.328 N
ATOM      3  H3  UNL     1      24.009   4.332  -4.054  1.00  0.00     0.165 HD
HETATM    4  C12 UNL     1      24.389   6.365  -3.989  1.00  0.00     0.237 C
HETATM    5  O8  UNL     1      24.732   6.553  -2.764  1.00  0.00    -0.272 OA
HETATM    6  C13 UNL     1      24.878   7.413  -4.917  1.00  0.00     0.224 C
HETATM    7  N4  UNL     1      25.304   8.623  -4.235  1.00  0.00    -0.359 N
ATOM      8  H4  UNL     1      26.107   8.558  -3.610  1.00  0.00     0.162 HD
HETATM    9  C14 UNL     1      24.682   9.889  -4.377  1.00  0.00     0.168 C
HETATM   10  S2  UNL     1      24.484  10.766  -2.981  1.00  0.00    -0.041 SA
HETATM   11  N5  UNL     1      24.225  10.438  -5.598  1.00  0.00    -0.367 N
ATOM     12  H5  UNL     1      23.296  10.860  -5.591  1.00  0.00     0.161 HD
HETATM   13  C15 UNL     1      24.934  10.464  -6.850  1.00  0.00     0.122 C
HETATM   14  C16 UNL     1      24.288   9.719  -7.970  1.00  0.00     0.022 C
HETATM   15  C17 UNL     1      22.881  10.130  -8.222  1.00  0.00     0.037 C
HETATM   16  C18 UNL     1      22.101   8.946  -8.851  1.00  0.00     0.179 C
HETATM   17  N6  UNL     1      22.222   7.884  -7.914  1.00  0.00    -0.382 N
ATOM     18  H6  UNL     1      22.643   8.036  -6.998  1.00  0.00     0.156 HD
HETATM   19  C21 UNL     1      21.740   6.603  -8.294  1.00  0.00     0.245 C
HETATM   20  C22 UNL     1      21.317   5.871  -7.010  1.00  0.00     0.198 C
HETATM   21  O12 UNL     1      22.301   6.034  -6.091  1.00  0.00    -0.349 OA
ENDROOT
BRANCH   1  22
HETATM   22  C3  UNL     1      21.237   5.492  -4.003  1.00  0.00     0.155 C
HETATM   23  N1  UNL     1      20.874   4.531  -3.227  1.00  0.00    -0.261 N
ATOM     24  H1  UNL     1      20.145   4.696  -2.533  1.00  0.00     0.194 HD
BRANCH  22  25
HETATM   25  C2  UNL     1      20.581   6.758  -3.839  1.00  0.00     0.311 C
HETATM   26  O2  UNL     1      19.332   6.849  -3.773  1.00  0.00    -0.258 OA
BRANCH  25  27
HETATM   27  O1  UNL     1      21.292   7.938  -3.747  1.00  0.00    -0.321 OA
HETATM   28  C1  UNL     1      21.082   8.981  -4.687  1.00  0.00     0.213 C
ENDBRANCH  25  27
ENDBRANCH  22  25
BRANCH  23  29
HETATM   29  O3  UNL     1      21.449   3.295  -3.316  1.00  0.00    -0.278 OA
BRANCH  29  30
HETATM   30  C4  UNL     1      21.719   2.518  -2.145  1.00  0.00     0.227 C
BRANCH  30  31
HETATM   31  C5  UNL     1      20.924   3.160  -1.034  1.00  0.00     0.196 C
BRANCH  31  32
HETATM   32  O4  UNL     1      20.380   2.210  -0.222  1.00  0.00    -0.384 OA
BRANCH  32  33
HETATM   33  C6  UNL     1      20.224   1.016  -0.871  1.00  0.00     0.214 C
BRANCH  33  34
HETATM   34  C7  UNL     1      18.761   0.614  -0.902  1.00  0.00     0.011 A
HETATM   35  C8  UNL     1      17.733   1.278  -1.511  1.00  0.00     0.056 A
HETATM   36  C9  UNL     1      16.508   0.744  -1.415  1.00  0.00     0.144 A
HETATM   37  C10 UNL     1      16.393  -0.427  -0.713  1.00  0.00     0.141 A
HETATM   38  S1  UNL     1      17.992  -0.739  -0.212  1.00  0.00    -0.066 SA
BRANCH  36  39
HETATM   39  N2  UNL     1      15.327   1.343  -2.016  1.00  0.00    -0.112 N
HETATM   40  O5  UNL     1      15.335   1.647  -3.221  1.00  0.00    -0.532 OA
HETATM   41  O6  UNL     1      14.218   1.566  -1.255  1.00  0.00    -0.532 OA
ENDBRANCH  36  39
BRANCH  37  42
HETATM   42  O7  UNL     1      15.221  -1.178  -0.473  1.00  0.00    -0.352 OA
ATOM     43  H7  UNL     1      14.720  -1.232   0.332  1.00  0.00     0.218 HD
ENDBRANCH  37  42
ENDBRANCH  33  34
ENDBRANCH  32  33
ENDBRANCH  31  32
ENDBRANCH  30  31
ENDBRANCH  29  30
ENDBRANCH  23  29
ENDBRANCH   1  22
BRANCH  20  44
HETATM   44  C23 UNL     1      20.924   4.451  -7.330  1.00  0.00     0.265 C
BRANCH  44  45
HETATM   45  N7  UNL     1      22.087   3.652  -7.701  1.00  0.00    -0.077 N
ATOM     46  H73 UNL     1      22.956   4.094  -7.400  1.00  0.00     0.274 HD
ATOM     47  H72 UNL     1      22.147   2.797  -7.149  1.00  0.00     0.274 HD
ATOM     48  H71 UNL     1      22.094   3.455  -8.702  1.00  0.00     0.274 HD
ENDBRANCH  44  45
ENDBRANCH  20  44
BRANCH  19  49
HETATM   49  O11 UNL     1      20.652   6.769  -9.143  1.00  0.00    -0.374 OA
ATOM     50  H11 UNL     1      20.155   5.960  -9.165  1.00  0.00     0.212 HD
ENDBRANCH  19  49
BRANCH  16  51
HETATM   51  C19 UNL     1      22.577   8.679 -10.202  1.00  0.00     0.281 C
HETATM   52  O9  UNL     1      23.261   7.665 -10.453  1.00  0.00    -0.263 OA
BRANCH  51  53
HETATM   53  O10 UNL     1      22.279   9.548 -11.236  1.00  0.00    -0.325 OA
HETATM   54  C20 UNL     1      23.291  10.037 -12.097  1.00  0.00     0.213 C
ENDBRANCH  51  53
ENDBRANCH  16  51
TORSDOF 16
ENDMDL