MODEL 1
REMARK VINA RESULT: -10.587680236      0.000      0.000
REMARK  17 active torsions:
REMARK  status: ('A' for Active; 'I' for Inactive)
REMARK    1  A    between atoms: C2_2  and  N1_3
REMARK    2  A    between atoms: C2_2  and  C13_26
REMARK    3  A    between atoms: N1_3  and  C3_4
REMARK    4  A    between atoms: C3_4  and  O1_5
REMARK    5  A    between atoms: C3_4  and  C4_7
REMARK    6  A    between atoms: C7_10  and  N2_11
REMARK    7  A    between atoms: C9_13  and  C10_14
REMARK    8  A    between atoms: C11_21  and  N6_22
REMARK       I    between atoms: C13_26  and  N7_28
REMARK    9  A    between atoms: N7_28  and  C14_30
REMARK   10  A    between atoms: C14_30  and  C15_31
REMARK   11  A    between atoms: C14_30  and  C21_55
REMARK       I    between atoms: C15_31  and  N8_33
REMARK   12  A    between atoms: N8_33  and  N9_35
REMARK   13  A    between atoms: C16_36  and  C17_37
REMARK   14  A    between atoms: C17_37  and  S1_38
REMARK   15  A    between atoms: S1_38  and  C18_39
REMARK   16  A    between atoms: C21_55  and  N15_56
REMARK   17  A    between atoms: C21_55  and  O8_60
ROOT
HETATM    1  C14 UNL     1      20.544   4.816  -2.111  1.00  0.00     0.235 C
ENDROOT
BRANCH   1   2
HETATM    2  N7  UNL     1      19.270   4.139  -1.943  1.00  0.00    -0.338 N
HETATM    3  C13 UNL     1      19.083   3.148  -0.930  1.00  0.00     0.278 C
HETATM    4  O5  UNL     1      20.067   2.875  -0.206  1.00  0.00    -0.265 OA
ATOM      5  H7  UNL     1      18.494   4.376  -2.560  1.00  0.00     0.163 HD
BRANCH   3   6
HETATM    6  C2  UNL     1      17.823   2.453  -0.709  1.00  0.00     0.151 C
HETATM    7  C1  UNL     1      16.575   3.294  -0.561  1.00  0.00     0.091 C
BRANCH   6   8
HETATM    8  N1  UNL     1      17.774   1.247  -0.642  1.00  0.00    -0.379 NA
BRANCH   8   9
HETATM    9  C3  UNL     1      17.647   0.063  -0.666  1.00  0.00     0.225 C
BRANCH   9  10
HETATM   10  O1  UNL     1      19.085  -0.172  -0.002  1.00  0.00    -0.335 OA
ATOM     11  H1  UNL     1      18.882  -1.075   0.213  1.00  0.00     0.220 HD
ENDBRANCH   9  10
BRANCH   9  12
HETATM   12  C4  UNL     1      17.374  -1.391  -0.750  1.00  0.00     0.032 A
HETATM   13  C5  UNL     1      15.970  -1.657  -0.876  1.00  0.00     0.019 A
HETATM   14  C6  UNL     1      15.503  -2.930  -1.007  1.00  0.00     0.035 A
HETATM   15  C7  UNL     1      16.376  -3.991  -1.016  1.00  0.00     0.090 A
HETATM   16  C11 UNL     1      17.716  -3.750  -0.890  1.00  0.00     0.132 A
HETATM   17  C12 UNL     1      18.199  -2.430  -0.756  1.00  0.00     0.055 A
BRANCH  15  18
HETATM   18  N2  UNL     1      15.865  -5.316  -1.161  1.00  0.00    -0.248 N
HETATM   19  C8  UNL     1      15.927  -6.145  -2.198  1.00  0.00     0.154 A
HETATM   20  C9  UNL     1      15.277  -7.320  -1.894  1.00  0.00     0.132 A
HETATM   21  N4  UNL     1      14.826  -7.137  -0.613  1.00  0.00    -0.280 N
HETATM   22  N5  UNL     1      15.188  -5.944  -0.211  1.00  0.00    -0.235 N
ATOM     23  H4  UNL     1      14.299  -7.816  -0.064  1.00  0.00     0.189 HD
ATOM     24  H5  UNL     1      14.977  -5.552   0.706  1.00  0.00     0.209 HD
BRANCH  20  25
HETATM   25  C10 UNL     1      15.088  -8.510  -2.705  1.00  0.00     0.284 C
HETATM   26  N3  UNL     1      15.783  -9.732  -2.466  1.00  0.00    -0.056 NA
HETATM   27  O2  UNL     1      14.286  -8.463  -3.671  1.00  0.00    -0.269 OA
ENDBRANCH  20  25
ENDBRANCH  15  18
BRANCH  16  28
HETATM   28  N6  UNL     1      18.644  -4.815  -0.877  1.00  0.00    -0.113 N
HETATM   29  O3  UNL     1      18.926  -5.361   0.197  1.00  0.00    -0.532 OA
HETATM   30  O4  UNL     1      19.240  -5.259  -2.048  1.00  0.00    -0.532 OA
ENDBRANCH  16  28
ENDBRANCH   9  12
ENDBRANCH   8   9
ENDBRANCH   6   8
ENDBRANCH   3   6
ENDBRANCH   1   2
BRANCH   1  31
HETATM   31  C15 UNL     1      21.099   4.252  -3.400  1.00  0.00     0.263 C
HETATM   32  O6  UNL     1      21.767   3.167  -3.238  1.00  0.00    -0.269 OA
HETATM   33  N8  UNL     1      20.946   4.793  -4.657  1.00  0.00    -0.256 N
ATOM     34  H8  UNL     1      20.380   5.640  -4.697  1.00  0.00     0.191 HD
BRANCH  33  35
HETATM   35  N9  UNL     1      21.444   4.359  -5.878  1.00  0.00    -0.187 N
HETATM   36  C16 UNL     1      22.633   4.770  -6.396  1.00  0.00     0.133 A
HETATM   37  N13 UNL     1      22.828   4.129  -7.551  1.00  0.00    -0.283 N
HETATM   38  N14 UNL     1      21.826   3.345  -7.773  1.00  0.00    -0.248 N
ATOM     39  H13 UNL     1      23.639   4.241  -8.160  1.00  0.00     0.188 HD
HETATM   40  C20 UNL     1      20.958   3.470  -6.748  1.00  0.00     0.361 A
ATOM     41  H14 UNL     1      21.712   2.737  -8.584  1.00  0.00     0.192 HD
HETATM   42  O7  UNL     1      19.888   2.787  -6.746  1.00  0.00    -0.243 OA
BRANCH  36  43
HETATM   43  C17 UNL     1      23.564   5.772  -5.822  1.00  0.00     0.161 C
BRANCH  43  44
HETATM   44  S1  UNL     1      23.831   7.134  -6.988  1.00  0.00    -0.096 SA
BRANCH  44  45
HETATM   45  C18 UNL     1      22.332   7.478  -7.899  1.00  0.00     0.130 A
HETATM   46  N10 UNL     1      22.218   7.486  -9.224  1.00  0.00    -0.286 N
HETATM   47  N11 UNL     1      21.108   7.754  -9.779  1.00  0.00    -0.279 N
ATOM     48  H10 UNL     1      23.032   7.273  -9.801  1.00  0.00     0.188 HD
HETATM   49  C19 UNL     1      20.054   8.029  -8.986  1.00  0.00     0.159 A
ATOM     50  H11 UNL     1      21.017   7.762 -10.795  1.00  0.00     0.189 HD
HETATM   51  N12 UNL     1      18.831   8.333  -9.373  1.00  0.00    -0.379 N
HETATM   52  S2  UNL     1      20.737   7.883  -7.428  1.00  0.00    -0.027 SA
ATOM     53 2H12 UNL     1      18.424   8.420 -10.304  1.00  0.00     0.158 HD
ATOM     54 1H12 UNL     1      18.033   8.541  -8.772  1.00  0.00     0.158 HD
ENDBRANCH  44  45
ENDBRANCH  43  44
ENDBRANCH  36  43
ENDBRANCH  33  35
ENDBRANCH   1  31
BRANCH   1  55
HETATM   55  C21 UNL     1      20.474   6.278  -2.022  1.00  0.00     0.348 C
BRANCH  55  56
HETATM   56  N15 UNL     1      19.567   6.798  -3.066  1.00  0.00    -0.051 N
ATOM     57 3H15 UNL     1      20.043   6.922  -3.960  1.00  0.00     0.277 HD
ATOM     58 2H15 UNL     1      18.881   6.103  -3.360  1.00  0.00     0.277 HD
ATOM     59 1H15 UNL     1      19.127   7.659  -2.743  1.00  0.00     0.277 HD
ENDBRANCH  55  56
BRANCH  55  60
HETATM   60  O8  UNL     1      21.745   6.777  -2.453  1.00  0.00    -0.368 OA
ATOM     61  H8  UNL     1      22.169   7.143  -1.685  1.00  0.00     0.212 HD
ENDBRANCH  55  60
ENDBRANCH   1  55
TORSDOF 17
ENDMDL