MODEL 1
REMARK VINA RESULT: -11.003917181      0.000      0.000
REMARK  14 active torsions:
REMARK  status: ('A' for Active; 'I' for Inactive)
REMARK    1  A    between atoms: C3_8  and  N3_9
REMARK    2  A    between atoms: N7_21  and  C8_22
REMARK    3  A    between atoms: C8_22  and  C9_23
REMARK    4  A    between atoms: C8_22  and  C25_45
REMARK    5  A    between atoms: C13_27  and  C14_28
REMARK       I    between atoms: C14_28  and  N8_30
REMARK    6  A    between atoms: N8_30  and  C15_32
REMARK    7  A    between atoms: C17_34  and  C18_35
REMARK    8  A    between atoms: C25_45  and  O4_46
REMARK    9  A    between atoms: C25_45  and  C27_49
REMARK   10  A    between atoms: C27_49  and  O5_50
REMARK   11  A    between atoms: C27_49  and  C28_52
REMARK   12  A    between atoms: C28_52  and  O6_53
REMARK   13  A    between atoms: C28_52  and  C29_55
REMARK   14  A    between atoms: C29_55  and  O7_56
ROOT
HETATM    1  O4  UNL     1      13.548  -5.868  -3.419  1.00  0.00    -0.273 OA
HETATM    2  C26 UNL     1      12.520  -6.697  -3.680  1.00  0.00     0.229 C
HETATM    3  N11 UNL     1      11.633  -7.388  -3.902  1.00  0.00    -0.164 NA
ENDROOT
BRANCH   1   4
HETATM    4  C25 UNL     1      14.696  -6.216  -2.683  1.00  0.00     0.202 C
BRANCH   4   5
HETATM    5  C8  UNL     1      15.698  -5.090  -2.613  1.00  0.00     0.175 C
BRANCH   5   6
HETATM    6  N7  UNL     1      17.006  -5.608  -2.938  1.00  0.00    -0.274 N
HETATM    7  C7  UNL     1      17.932  -6.100  -2.001  1.00  0.00     0.203 A
HETATM    8  N6  UNL     1      19.116  -6.549  -2.290  1.00  0.00    -0.334 N
HETATM    9  C5  UNL     1      19.538  -6.558  -3.646  1.00  0.00     0.169 A
ATOM     10  H6  UNL     1      19.734  -6.889  -1.554  1.00  0.00     0.168 HD
HETATM   11  C4  UNL     1      18.684  -6.093  -4.615  1.00  0.00     0.190 A
HETATM   12  N4  UNL     1      20.666  -6.944  -4.266  1.00  0.00    -0.172 N
HETATM   13  N3  UNL     1      19.297  -6.197  -5.822  1.00  0.00    -0.107 N
HETATM   14  N12 UNL     1      17.395  -5.604  -4.298  1.00  0.00    -0.278 N
HETATM   15  C6  UNL     1      20.515  -6.722  -5.599  1.00  0.00     0.687 A
HETATM   16  N5  UNL     1      21.374  -6.959  -6.538  1.00  0.00    -0.234 N
ATOM     17  H52 UNL     1      21.261  -6.793  -7.537  1.00  0.00     0.174 HD
ATOM     18  H51 UNL     1      22.298  -7.357  -6.369  1.00  0.00     0.174 HD
ATOM     19  H12 UNL     1      16.768  -5.260  -5.025  1.00  0.00     0.189 HD
ATOM     20  H4  UNL     1      21.492  -7.336  -3.815  1.00  0.00     0.186 HD
BRANCH  13  21
HETATM   21  C3  UNL     1      18.718  -5.812  -7.061  1.00  0.00     0.205 A
HETATM   22  N2  UNL     1      18.965  -4.619  -7.634  1.00  0.00    -0.281 N
HETATM   23  C2  UNL     1      18.412  -4.271  -8.802  1.00  0.00     0.388 A
ATOM     24  H2  UNL     1      19.590  -3.964  -7.165  1.00  0.00     0.173 HD
HETATM   25  O1  UNL     1      17.615  -5.120  -9.389  1.00  0.00    -0.176 OA
HETATM   26  O2  UNL     1      18.630  -3.148  -9.366  1.00  0.00    -0.236 OA
HETATM   27  N1  UNL     1      17.320  -6.298  -8.905  1.00  0.00    -0.213 N
HETATM   28  C1  UNL     1      16.423  -7.161  -9.640  1.00  0.00     0.190 C
HETATM   29  C30 UNL     1      17.868  -6.667  -7.727  1.00  0.00     0.312 A
HETATM   30  O8  UNL     1      17.609  -7.782  -7.237  1.00  0.00    -0.262 OA
ENDBRANCH  13  21
ENDBRANCH   5   6
BRANCH   5  31
HETATM   31  C9  UNL     1      15.719  -4.331  -1.370  1.00  0.00    -0.030 A
HETATM   32  C10 UNL     1      15.031  -4.668  -0.226  1.00  0.00     0.009 A
HETATM   33  C11 UNL     1      15.086  -3.913   0.933  1.00  0.00     0.002 A
HETATM   34  C12 UNL     1      15.846  -2.773   0.988  1.00  0.00     0.017 A
HETATM   35  C13 UNL     1      16.535  -2.436  -0.159  1.00  0.00     0.032 A
HETATM   36  C24 UNL     1      16.499  -3.163  -1.316  1.00  0.00     0.026 A
BRANCH  35  37
HETATM   37  C14 UNL     1      17.371  -1.208  -0.138  1.00  0.00     0.253 C
HETATM   38  O3  UNL     1      18.565  -1.297   0.190  1.00  0.00    -0.268 OA
HETATM   39  N8  UNL     1      16.778   0.034  -0.491  1.00  0.00    -0.337 N
ATOM     40  H8  UNL     1      15.794   0.083  -0.757  1.00  0.00     0.164 HD
BRANCH  39  41
HETATM   41  C15 UNL     1      17.590   1.217  -0.466  1.00  0.00     0.204 C
HETATM   42  C16 UNL     1      18.619   1.269  -1.566  1.00  0.00     0.103 C
HETATM   43  C17 UNL     1      18.791   2.721  -1.772  1.00  0.00     0.035 C
HETATM   44  N9  UNL     1      17.733   3.309  -1.330  1.00  0.00    -0.305 N
HETATM   45  N10 UNL     1      16.816   2.409  -0.824  1.00  0.00    -0.115 NA
ATOM     46  H9  UNL     1      17.590   4.319  -1.352  1.00  0.00     0.182 HD
BRANCH  43  47
HETATM   47  C18 UNL     1      19.972   3.339  -2.378  1.00  0.00    -0.013 A
HETATM   48  C19 UNL     1      21.111   3.575  -1.647  1.00  0.00     0.013 A
HETATM   49  C20 UNL     1      22.229   4.166  -2.238  1.00  0.00     0.001 A
HETATM   50  C21 UNL     1      22.223   4.530  -3.569  1.00  0.00     0.000 A
HETATM   51  C22 UNL     1      21.088   4.295  -4.298  1.00  0.00     0.001 A
HETATM   52  C23 UNL     1      19.971   3.704  -3.703  1.00  0.00     0.013 A
ENDBRANCH  43  47
ENDBRANCH  39  41
ENDBRANCH  35  37
ENDBRANCH   5  31
ENDBRANCH   4   5
BRANCH   4  53
HETATM   53  C27 UNL     1      15.333  -7.424  -3.366  1.00  0.00     0.181 C
BRANCH  53  54
HETATM   54  O5  UNL     1      14.874  -7.559  -4.681  1.00  0.00    -0.390 OA
ATOM     55  H5  UNL     1      14.384  -8.366  -4.791  1.00  0.00     0.210 HD
ENDBRANCH  53  54
BRANCH  53  56
HETATM   56  C28 UNL     1      15.036  -8.632  -2.537  1.00  0.00     0.173 C
BRANCH  56  57
HETATM   57  O6  UNL     1      14.669  -8.196  -1.264  1.00  0.00    -0.391 OA
ATOM     58  H6  UNL     1      13.720  -8.215  -1.214  1.00  0.00     0.210 HD
ENDBRANCH  56  57
BRANCH  56  59
HETATM   59  C29 UNL     1      16.236  -9.543  -2.414  1.00  0.00     0.198 C
BRANCH  59  60
HETATM   60  O7  UNL     1      17.243  -9.130  -3.260  1.00  0.00    -0.398 OA
ATOM     61  H7  UNL     1      18.061  -9.560  -3.038  1.00  0.00     0.209 HD
ENDBRANCH  59  60
ENDBRANCH  56  59
ENDBRANCH  53  56
ENDBRANCH   4  53
ENDBRANCH   1   4
TORSDOF 14
ENDMDL