MODEL 3
REMARK VINA RESULT: -10.207249316      2.780      9.565
REMARK  12 active torsions:
REMARK  status: ('A' for Active; 'I' for Inactive)
REMARK    1  A    between atoms: C4_8  and  C5_9
REMARK    2  A    between atoms: C5_9  and  N3_10
REMARK    3  A    between atoms: N3_10  and  C6_11
REMARK       I    between atoms: N3_10  and  C20_54
REMARK    4  A    between atoms: C7_12  and  C8_13
REMARK    5  A    between atoms: C8_13  and  N5_17
REMARK    6  A    between atoms: N5_17  and  S1_19
REMARK    7  A    between atoms: S1_19  and  C9_22
REMARK    8  A    between atoms: C10_23  and  C11_24
REMARK    9  A    between atoms: C12_29  and  C13_30
REMARK   10  A    between atoms: C13_30  and  N8_31
REMARK   11  A    between atoms: C20_54  and  C21_56
REMARK   12  A    between atoms: C22_62  and  N18_63
ROOT
HETATM    1  S1  UNL     1      17.790  -5.470  -2.555  1.00  0.00     0.266 S
HETATM    2  O1  UNL     1      18.604  -4.864  -1.332  1.00  0.00    -0.200 OA
HETATM    3  O2  UNL     1      18.291  -6.901  -2.248  1.00  0.00    -0.200 OA
ENDROOT
BRANCH   1   4
HETATM    4  N5  UNL     1      18.502  -4.756  -3.842  1.00  0.00    -0.266 N
ATOM      5  H5  UNL     1      18.504  -3.736  -3.856  1.00  0.00     0.180 HD
BRANCH   4   6
HETATM    6  C8  UNL     1      19.137  -5.434  -4.980  1.00  0.00     0.109 C
HETATM    7  N4  UNL     1      19.390  -6.640  -4.796  1.00  0.00    -0.385 N
ATOM      8  H42 UNL     1      19.831  -7.111  -5.586  1.00  0.00     0.157 HD
ATOM      9  H41 UNL     1      19.255  -7.244  -3.985  1.00  0.00     0.157 HD
BRANCH   6  10
HETATM   10  C7  UNL     1      19.327  -4.587  -6.116  1.00  0.00     0.066 C
HETATM   11  C6  UNL     1      19.996  -4.705  -7.354  1.00  0.00     0.098 C
BRANCH  11  12
HETATM   12  N3  UNL     1      19.629  -5.675  -8.361  1.00  0.00    -0.317 N
HETATM   13  C20 UNL     1      18.645  -5.327  -9.318  1.00  0.00     0.280 C
HETATM   14  O5  UNL     1      18.151  -4.147  -9.331  1.00  0.00    -0.265 OA
BRANCH  12  15
HETATM   15  C5  UNL     1      20.233  -7.017  -8.275  1.00  0.00     0.190 C
BRANCH  15  16
HETATM   16  C4  UNL     1      21.615  -6.987  -8.742  1.00  0.00     0.051 A
HETATM   17  C2  UNL     1      22.712  -7.469  -7.994  1.00  0.00     0.030 A
HETATM   18  C1  UNL     1      22.624  -8.015  -6.636  1.00  0.00     0.070 C
HETATM   19  N1  UNL     1      23.789  -7.304  -8.763  1.00  0.00    -0.354 N
HETATM   20  C3  UNL     1      23.442  -6.759  -9.929  1.00  0.00     0.180 A
ATOM     21  H1  UNL     1      24.741  -7.559  -8.499  1.00  0.00     0.166 HD
HETATM   22  N2  UNL     1      22.101  -6.563  -9.917  1.00  0.00    -0.353 N
ATOM     23  H2  UNL     1      21.552  -6.161 -10.677  1.00  0.00     0.166 HD
ENDBRANCH  15  16
ENDBRANCH  12  15
BRANCH  13  24
HETATM   24  C21 UNL     1      18.152  -6.259 -10.302  1.00  0.00     0.169 A
HETATM   25  N16 UNL     1      18.608  -6.563 -11.550  1.00  0.00    -0.233 N
HETATM   26  O6  UNL     1      17.890  -7.469 -12.084  1.00  0.00    -0.155 OA
ATOM     27  H16 UNL     1      19.413  -6.124 -11.995  1.00  0.00     0.197 HD
HETATM   28  N17 UNL     1      16.961  -7.825 -11.301  1.00  0.00    -0.224 N
HETATM   29  C22 UNL     1      17.066  -7.096 -10.150  1.00  0.00     0.155 A
ATOM     30  H17 UNL     1      16.255  -8.536 -11.496  1.00  0.00     0.198 HD
BRANCH  29  31
HETATM   31  N18 UNL     1      16.243  -7.260  -9.190  1.00  0.00    -0.382 N
ATOM     32 2H18 UNL     1      16.216  -6.611  -8.403  1.00  0.00     0.157 HD
ATOM     33 1H18 UNL     1      15.530  -7.969  -9.015  1.00  0.00     0.157 HD
ENDBRANCH  29  31
ENDBRANCH  13  24
ENDBRANCH  11  12
ENDBRANCH   6  10
ENDBRANCH   4   6
ENDBRANCH   1   4
BRANCH   1  34
HETATM   34  C9  UNL     1      16.163  -5.177  -2.071  1.00  0.00     0.112 A
HETATM   35  C10 UNL     1      15.871  -4.376  -0.987  1.00  0.00     0.041 A
HETATM   36  C14 UNL     1      14.593  -4.341  -0.371  1.00  0.00     0.020 A
HETATM   37  C15 UNL     1      13.619  -5.135  -0.891  1.00  0.00     0.032 A
HETATM   38  C16 UNL     1      13.875  -5.936  -1.978  1.00  0.00     0.066 A
HETATM   39  N13 UNL     1      12.880  -6.670  -2.478  1.00  0.00    -0.191 N
HETATM   40  C19 UNL     1      15.145  -5.984  -2.603  1.00  0.00     0.084 A
HETATM   41  C17 UNL     1      13.019  -7.475  -3.586  1.00  0.00     0.679 A
ATOM     42  H13 UNL     1      11.972  -6.633  -2.016  1.00  0.00     0.184 HD
HETATM   43  N14 UNL     1      12.057  -8.204  -3.947  1.00  0.00    -0.234 N
HETATM   44  N15 UNL     1      14.236  -7.491  -4.165  1.00  0.00    -0.156 N
ATOM     45 2H14 UNL     1      11.136  -8.192  -3.510  1.00  0.00     0.174 HD
ATOM     46 1H14 UNL     1      12.159  -8.800  -4.769  1.00  0.00     0.174 HD
HETATM   47  C18 UNL     1      15.293  -6.769  -3.703  1.00  0.00     0.273 A
ATOM     48  H15 UNL     1      14.373  -8.075  -4.990  1.00  0.00     0.187 HD
HETATM   49  O4  UNL     1      16.344  -6.862  -4.316  1.00  0.00    -0.267 OA
BRANCH  35  50
HETATM   50  C11 UNL     1      16.788  -3.336  -0.535  1.00  0.00     0.176 A
HETATM   51  N6  UNL     1      17.591  -3.379   0.552  1.00  0.00    -0.277 N
HETATM   52  N7  UNL     1      18.247  -2.256   0.610  1.00  0.00    -0.280 N
ATOM     53  H6  UNL     1      17.669  -4.154   1.211  1.00  0.00     0.189 HD
HETATM   54  C12 UNL     1      17.895  -1.485  -0.407  1.00  0.00     0.162 A
ATOM     55  H7  UNL     1      18.927  -2.008   1.329  1.00  0.00     0.189 HD
HETATM   56  O3  UNL     1      17.008  -2.190  -1.073  1.00  0.00    -0.276 OA
BRANCH  54  57
HETATM   57  C13 UNL     1      18.368  -0.102  -0.778  1.00  0.00     0.258 C
BRANCH  57  58
HETATM   58  N8  UNL     1      17.193   0.707  -1.103  1.00  0.00    -0.198 N
HETATM   59  N9  UNL     1      17.119   1.647  -2.019  1.00  0.00    -0.207 N
HETATM   60  N10 UNL     1      15.886   2.155  -2.012  1.00  0.00     0.012 NA
ATOM     61  H9  UNL     1      17.879   1.940  -2.634  1.00  0.00     0.207 HD
HETATM   62  N11 UNL     1      15.216   1.492  -1.061  1.00  0.00    -0.209 N
HETATM   63  N12 UNL     1      16.024   0.625  -0.526  1.00  0.00    -0.212 N
ATOM     64  H11 UNL     1      14.241   1.641  -0.802  1.00  0.00     0.207 HD
ATOM     65  H12 UNL     1      15.783  -0.018   0.228  1.00  0.00     0.211 HD
ENDBRANCH  57  58
ENDBRANCH  54  57
ENDBRANCH  35  50
ENDBRANCH   1  34
TORSDOF 12
ENDMDL