MODEL 2
REMARK VINA RESULT: -9.948540096      2.914      4.964
REMARK  14 active torsions:
REMARK  status: ('A' for Active; 'I' for Inactive)
REMARK       I    between atoms: C2_2  and  N1_4
REMARK    1  A    between atoms: N1_4  and  C3_6
REMARK    2  A    between atoms: C4_8  and  C5_9
REMARK    3  A    between atoms: C5_9  and  C6_10
REMARK    4  A    between atoms: C5_9  and  N5_36
REMARK    5  A    between atoms: C6_10  and  C7_11
REMARK    6  A    between atoms: C6_10  and  C16_30
REMARK    7  A    between atoms: C8_14  and  C9_15
REMARK    8  A    between atoms: C12_18  and  O3_19
REMARK    9  A    between atoms: O3_19  and  S1_20
REMARK   10  A    between atoms: C16_30  and  O7_31
REMARK   11  A    between atoms: C16_30  and  C17_33
REMARK   12  A    between atoms: C17_33  and  O8_34
REMARK   13  A    between atoms: C18_39  and  C19_40
REMARK       I    between atoms: C19_40  and  N7_42
REMARK   14  A    between atoms: C21_46  and  N9_47
ROOT
HETATM    1  C19 UNL     1      12.465  -7.051  -5.850  1.00  0.00     0.286 C
HETATM    2  O9  UNL     1      13.205  -7.285  -6.886  1.00  0.00    -0.265 OA
HETATM    3  N7  UNL     1      11.097  -7.093  -6.073  1.00  0.00    -0.258 N
ATOM      4  H7  UNL     1      10.432  -6.921  -5.318  1.00  0.00     0.181 HD
HETATM    5  C20 UNL     1      10.648  -7.391  -7.412  1.00  0.00     0.184 C
HETATM    6  N8  UNL     1      10.308  -7.636  -8.484  1.00  0.00    -0.172 NA
ENDROOT
BRANCH   1   7
HETATM    7  C18 UNL     1      13.117  -6.771  -4.583  1.00  0.00     0.163 A
HETATM    8  N6  UNL     1      14.292  -6.071  -4.476  1.00  0.00    -0.275 N
HETATM    9  N5  UNL     1      14.661  -5.965  -3.227  1.00  0.00    -0.218 N
ATOM     10  H6  UNL     1      14.809  -5.685  -5.266  1.00  0.00     0.189 HD
HETATM   11  N10 UNL     1      13.759  -6.578  -2.500  1.00  0.00    -0.266 N
HETATM   12  C21 UNL     1      12.765  -7.104  -3.310  1.00  0.00     0.149 A
ATOM     13  H10 UNL     1      13.786  -6.657  -1.484  1.00  0.00     0.190 HD
BRANCH   9  14
HETATM   14  C5  UNL     1      15.851  -5.329  -2.704  1.00  0.00     0.216 C
BRANCH  14  15
HETATM   15  C4  UNL     1      17.020  -6.261  -3.007  1.00  0.00     0.156 A
HETATM   16  O2  UNL     1      16.996  -7.498  -2.710  1.00  0.00    -0.277 OA
HETATM   17  C3  UNL     1      18.005  -8.379  -2.955  1.00  0.00     0.178 A
HETATM   18  C23 UNL     1      19.117  -7.900  -3.557  1.00  0.00     0.163 A
HETATM   19  C22 UNL     1      19.166  -6.535  -3.896  1.00  0.00     0.272 A
HETATM   20  C24 UNL     1      20.303  -8.651  -3.806  1.00  0.00     0.109 C
HETATM   21  N11 UNL     1      18.114  -5.775  -3.605  1.00  0.00    -0.304 N
HETATM   22  O10 UNL     1      20.204  -6.072  -4.464  1.00  0.00    -0.266 OA
ATOM     23  H11 UNL     1      18.141  -4.784  -3.848  1.00  0.00     0.171 HD
HETATM   24  N12 UNL     1      21.273  -9.214  -3.990  1.00  0.00    -0.191 NA
BRANCH  17  25
HETATM   25  N1  UNL     1      17.789  -9.683  -2.555  1.00  0.00    -0.306 N
HETATM   26  C2  UNL     1      16.830 -10.649  -2.520  1.00  0.00     0.219 C
HETATM   27  C1  UNL     1      17.180 -12.055  -1.928  1.00  0.00     0.117 C
HETATM   28  O1  UNL     1      15.658 -10.642  -2.884  1.00  0.00    -0.274 OA
ATOM     29  H1  UNL     1      18.647 -10.050  -2.143  1.00  0.00     0.171 HD
ENDBRANCH  17  25
ENDBRANCH  14  15
BRANCH  14  30
HETATM   30  C6  UNL     1      15.899  -4.953  -1.292  1.00  0.00     0.120 C
BRANCH  30  31
HETATM   31  C7  UNL     1      16.847  -3.800  -1.047  1.00  0.00     0.108 A
HETATM   32  N2  UNL     1      16.596  -2.490  -1.202  1.00  0.00    -0.329 N
HETATM   33  C8  UNL     1      17.677  -1.797  -0.884  1.00  0.00     0.131 A
ATOM     34  H2  UNL     1      15.712  -2.091  -1.516  1.00  0.00     0.168 HD
HETATM   35  N3  UNL     1      18.617  -2.681  -0.524  1.00  0.00    -0.282 N
HETATM   36  N4  UNL     1      18.111  -3.928  -0.621  1.00  0.00    -0.282 N
ATOM     37  H3  UNL     1      19.563  -2.449  -0.223  1.00  0.00     0.189 HD
HETATM   38  C15 UNL     1      18.905  -5.076  -0.292  1.00  0.00     0.179 C
BRANCH  33  39
HETATM   39  C9  UNL     1      17.876  -0.331  -0.900  1.00  0.00     0.009 A
HETATM   40  C10 UNL     1      16.823   0.523  -1.144  1.00  0.00     0.018 A
HETATM   41  C11 UNL     1      17.026   1.901  -1.156  1.00  0.00     0.039 A
HETATM   42  C12 UNL     1      18.276   2.439  -0.927  1.00  0.00     0.092 A
HETATM   43  C13 UNL     1      19.335   1.589  -0.683  1.00  0.00     0.039 A
HETATM   44  C14 UNL     1      19.111   0.233  -0.675  1.00  0.00     0.018 A
BRANCH  42  45
HETATM   45  O3  UNL     1      18.507   3.797  -0.934  1.00  0.00    -0.214 OA
BRANCH  45  46
HETATM   46  S1  UNL     1      19.570   4.613  -1.953  1.00  0.00     0.256 S
HETATM   47  O4  UNL     1      19.356   4.182  -3.396  1.00  0.00    -0.572 OA
HETATM   48  O5  UNL     1      19.230   6.082  -1.889  1.00  0.00    -0.572 OA
HETATM   49  O6  UNL     1      21.177   4.377  -1.557  1.00  0.00    -0.572 OA
ENDBRANCH  45  46
ENDBRANCH  42  45
ENDBRANCH  33  39
ENDBRANCH  30  31
BRANCH  30  50
HETATM   50  C16 UNL     1      14.673  -4.750  -0.496  1.00  0.00     0.155 C
BRANCH  50  51
HETATM   51  O7  UNL     1      13.826  -3.897  -1.317  1.00  0.00    -0.393 OA
ATOM     52  H7  UNL     1      13.429  -4.480  -1.952  1.00  0.00     0.210 HD
ENDBRANCH  50  51
BRANCH  50  53
HETATM   53  C17 UNL     1      14.842  -3.860   0.738  1.00  0.00     0.196 C
BRANCH  53  54
HETATM   54  O8  UNL     1      15.090  -4.583   1.887  1.00  0.00    -0.398 OA
ATOM     55  H8  UNL     1      14.303  -4.970   2.252  1.00  0.00     0.209 HD
ENDBRANCH  53  54
ENDBRANCH  50  53
ENDBRANCH  30  50
ENDBRANCH  14  30
ENDBRANCH   9  14
BRANCH  12  56
HETATM   56  N9  UNL     1      11.772  -7.753  -2.856  1.00  0.00    -0.382 N
ATOM     57  H92 UNL     1      10.808  -7.561  -3.130  1.00  0.00     0.157 HD
ATOM     58  H91 UNL     1      11.718  -8.522  -2.188  1.00  0.00     0.157 HD
ENDBRANCH  12  56
ENDBRANCH   1   7
TORSDOF 14
ENDMDL