MODEL 4
REMARK VINA RESULT: -8.676017230      2.290      4.017
REMARK  19 active torsions:
REMARK  status: ('A' for Active; 'I' for Inactive)
REMARK    1  A    between atoms: O1_2  and  C2_3
REMARK    2  A    between atoms: C4_5  and  O2_6
REMARK    3  A    between atoms: C7_10  and  O3_11
REMARK       I    between atoms: N1_15  and  C9_16
REMARK       I    between atoms: C9_16  and  N2_18
REMARK    4  A    between atoms: N2_18  and  C10_20
REMARK    5  A    between atoms: C10_20  and  C11_21
REMARK    6  A    between atoms: C11_21  and  S1_22
REMARK    7  A    between atoms: S1_22  and  C12_25
REMARK    8  A    between atoms: C14_27  and  O8_28
REMARK    9  A    between atoms: C15_30  and  O9_31
REMARK   10  A    between atoms: C16_33  and  O10_34
REMARK   11  A    between atoms: C18_36  and  N3_37
REMARK   12  A    between atoms: C19_40  and  O13_41
REMARK   13  A    between atoms: O13_41  and  C20_42
REMARK   14  A    between atoms: C20_42  and  C21_43
REMARK   15  A    between atoms: C20_42  and  C22_46
REMARK   16  A    between atoms: C21_43  and  O14_44
REMARK   17  A    between atoms: C22_46  and  O15_47
REMARK   18  A    between atoms: C22_46  and  C23_49
REMARK   19  A    between atoms: C23_49  and  O16_50
ROOT
HETATM    1  C2  UNL     1      20.117  -8.836  -6.472  1.00  0.00     0.104 A
HETATM    2  C3  UNL     1      19.056  -8.529  -7.293  1.00  0.00     0.076 A
HETATM    3  C4  UNL     1      18.035  -7.731  -6.855  1.00  0.00     0.079 A
HETATM    4  C5  UNL     1      18.081  -7.226  -5.548  1.00  0.00     0.035 A
HETATM    5  C6  UNL     1      19.144  -7.546  -4.753  1.00  0.00     0.081 A
HETATM    6  C7  UNL     1      20.188  -8.354  -5.186  1.00  0.00     0.115 A
HETATM    7  C8  UNL     1      19.162  -7.043  -3.378  1.00  0.00     0.267 C
HETATM    8  O4  UNL     1      20.119  -7.315  -2.639  1.00  0.00    -0.267 OA
HETATM    9  N1  UNL     1      18.022  -6.223  -2.937  1.00  0.00    -0.234 N
HETATM   10  C9  UNL     1      18.317  -5.234  -1.997  1.00  0.00     0.327 C
HETATM   11  O5  UNL     1      19.524  -5.206  -1.526  1.00  0.00    -0.247 OA
HETATM   12  N2  UNL     1      17.494  -4.227  -1.460  1.00  0.00    -0.342 N
ATOM     13  H2  UNL     1      16.529  -4.191  -1.791  1.00  0.00     0.164 HD
HETATM   14  C19 UNL     1      16.759  -6.530  -3.585  1.00  0.00     0.278 C
HETATM   15  C24 UNL     1      17.014  -6.343  -5.060  1.00  0.00     0.157 A
HETATM   16  C25 UNL     1      17.010  -4.885  -5.477  1.00  0.00     0.217 A
HETATM   17  O17 UNL     1      16.106  -5.846  -5.934  1.00  0.00    -0.365 OA
ENDROOT
BRANCH  14  18
HETATM   18  O13 UNL     1      15.732  -5.874  -3.044  1.00  0.00    -0.352 OA
BRANCH  18  19
HETATM   19  C20 UNL     1      14.826  -6.689  -2.330  1.00  0.00     0.178 C
BRANCH  19  20
HETATM   20  C21 UNL     1      13.570  -6.636  -3.164  1.00  0.00     0.198 C
BRANCH  20  21
HETATM   21  O14 UNL     1      13.579  -5.740  -4.202  1.00  0.00    -0.398 OA
ATOM     22  H14 UNL     1      13.529  -6.114  -5.074  1.00  0.00     0.209 HD
ENDBRANCH  20  21
ENDBRANCH  19  20
BRANCH  19  23
HETATM   23  C22 UNL     1      14.555  -6.166  -0.970  1.00  0.00     0.172 C
BRANCH  23  24
HETATM   24  O15 UNL     1      15.678  -5.952  -0.178  1.00  0.00    -0.391 OA
ATOM     25  H15 UNL     1      16.116  -5.119  -0.308  1.00  0.00     0.210 HD
ENDBRANCH  23  24
BRANCH  23  26
HETATM   26  C23 UNL     1      13.739  -4.913  -1.009  1.00  0.00     0.198 C
BRANCH  26  27
HETATM   27  O16 UNL     1      14.392  -3.919  -1.772  1.00  0.00    -0.398 OA
ATOM     28  H16 UNL     1      13.820  -3.172  -1.907  1.00  0.00     0.209 HD
ENDBRANCH  26  27
ENDBRANCH  23  26
ENDBRANCH  19  23
ENDBRANCH  18  19
ENDBRANCH  14  18
BRANCH  12  29
HETATM   29  C10 UNL     1      17.889  -3.248  -0.488  1.00  0.00     0.140 C
BRANCH  29  30
HETATM   30  C11 UNL     1      16.745  -2.567   0.232  1.00  0.00     0.165 C
BRANCH  30  31
HETATM   31  S1  UNL     1      16.303  -1.094  -0.586  1.00  0.00     0.179 S
HETATM   32  O6  UNL     1      15.088  -0.548   0.161  1.00  0.00    -0.222 OA
HETATM   33  O7  UNL     1      15.727  -1.476  -1.948  1.00  0.00    -0.222 OA
BRANCH  31  34
HETATM   34  C12 UNL     1      17.430   0.135  -0.787  1.00  0.00     0.098 A
HETATM   35  C13 UNL     1      18.769  -0.129  -0.487  1.00  0.00     0.065 A
HETATM   36  C14 UNL     1      19.757   0.827  -0.635  1.00  0.00     0.103 A
HETATM   37  C15 UNL     1      19.441   2.078  -1.086  1.00  0.00     0.135 A
HETATM   38  C16 UNL     1      18.129   2.339  -1.381  1.00  0.00     0.139 A
HETATM   39  C18 UNL     1      17.149   1.379  -1.231  1.00  0.00     0.160 A
BRANCH  36  40
HETATM   40  O8  UNL     1      21.074   0.519  -0.324  1.00  0.00    -0.358 OA
ATOM     41  H8  UNL     1      21.709   1.215  -0.203  1.00  0.00     0.217 HD
ENDBRANCH  36  40
BRANCH  37  42
HETATM   42  O9  UNL     1      20.425   3.042  -1.238  1.00  0.00    -0.356 OA
ATOM     43  H9  UNL     1      21.226   2.998  -0.729  1.00  0.00     0.218 HD
ENDBRANCH  37  42
BRANCH  38  44
HETATM   44  O10 UNL     1      17.797   3.605  -1.841  1.00  0.00    -0.351 OA
HETATM   45  C17 UNL     1      17.617   4.657  -0.930  1.00  0.00     0.210 C
ENDBRANCH  38  44
BRANCH  39  46
HETATM   46  N3  UNL     1      15.837   1.725  -1.550  1.00  0.00    -0.111 N
HETATM   47  O11 UNL     1      15.088   2.194  -0.695  1.00  0.00    -0.532 OA
HETATM   48  O12 UNL     1      15.365   1.557  -2.812  1.00  0.00    -0.532 OA
ENDBRANCH  39  46
ENDBRANCH  31  34
ENDBRANCH  30  31
ENDBRANCH  29  30
ENDBRANCH  12  29
BRANCH   6  49
HETATM   49  O3  UNL     1      21.220  -8.622  -4.309  1.00  0.00    -0.357 OA
ATOM     50  H3  UNL     1      21.581  -7.991  -3.696  1.00  0.00     0.217 HD
ENDBRANCH   6  49
BRANCH   3  51
HETATM   51  O2  UNL     1      16.933  -7.378  -7.625  1.00  0.00    -0.360 OA
ATOM     52  H2  UNL     1      16.931  -6.678  -8.267  1.00  0.00     0.217 HD
ENDBRANCH   3  51
BRANCH   1  53
HETATM   53  O1  UNL     1      21.158  -9.653  -6.931  1.00  0.00    -0.353 OA
HETATM   54  C1  UNL     1      21.737  -9.362  -8.210  1.00  0.00     0.210 C
ENDBRANCH   1  53
TORSDOF 19
ENDMDL