MODEL 4
REMARK VINA RESULT: -8.014308391      1.834      6.492
REMARK  10 active torsions:
REMARK  status: ('A' for Active; 'I' for Inactive)
REMARK    1  A    between atoms: C1_2  and  C2_4
REMARK    2  A    between atoms: C2_4  and  C3_5
REMARK    3  A    between atoms: C3_5  and  C4_6
REMARK    4  A    between atoms: C3_5  and  N1_11
REMARK    5  A    between atoms: C4_6  and  C5_8
REMARK    6  A    between atoms: N1_11  and  C6_12
REMARK    7  A    between atoms: N1_11  and  C13_19
REMARK    8  A    between atoms: C13_19  and  C14_20
REMARK    9  A    between atoms: C13_19  and  C21_27
REMARK   10  A    between atoms: C14_20  and  C15_21
ROOT
HETATM    1  N1  UNL     1      32.968  41.832  40.983  1.00  0.00    -0.311 N
ENDROOT
BRANCH   1   2
HETATM    2  C3  UNL     1      31.814  41.342  41.687  1.00  0.00     0.084 C
BRANCH   2   3
HETATM    3  C2  UNL     1      31.357  42.001  42.921  1.00  0.00     0.175 C
BRANCH   3   4
HETATM    4  C1  UNL     1      31.383  41.100  44.134  1.00  0.00     0.178 C
HETATM    5  O1  UNL     1      31.561  41.572  45.270  1.00  0.00    -0.648 OA
HETATM    6  O2  UNL     1      31.212  39.730  44.001  1.00  0.00    -0.648 OA
ENDBRANCH   3   4
ENDBRANCH   2   3
BRANCH   2   7
HETATM    7  C4  UNL     1      30.806  40.576  40.940  1.00  0.00     0.271 C
HETATM    8  O3  UNL     1      31.087  39.443  40.413  1.00  0.00    -0.279 OA
BRANCH   7   9
HETATM    9  C5  UNL     1      29.451  40.982  40.713  1.00  0.00     0.253 C
HETATM   10  O4  UNL     1      28.401  40.486  41.137  1.00  0.00    -0.642 OA
HETATM   11  O5  UNL     1      29.231  42.113  39.887  1.00  0.00    -0.642 OA
ENDBRANCH   7   9
ENDBRANCH   2   7
ENDBRANCH   1   2
BRANCH   1  12
HETATM   12  C6  UNL     1      34.208  41.404  41.506  1.00  0.00     0.027 C
HETATM   13  C7  UNL     1      34.230  39.906  41.931  1.00  0.00     0.137 C
HETATM   14  C8  UNL     1      34.837  39.831  43.199  1.00  0.00    -0.177 C
HETATM   15  C9  UNL     1      35.450  39.801  44.463  1.00  0.00     0.084 C
HETATM   16  C10 UNL     1      35.752  41.308  44.793  1.00  0.00     0.038 C
HETATM   17  C11 UNL     1      34.920  42.222  43.908  1.00  0.00    -0.024 C
HETATM   18  C12 UNL     1      34.964  42.237  42.470  1.00  0.00     0.022 C
ENDBRANCH   1  12
BRANCH   1  19
HETATM   19  C13 UNL     1      32.759  42.144  39.658  1.00  0.00     0.094 C
BRANCH  19  20
HETATM   20  C14 UNL     1      32.447  43.523  39.173  1.00  0.00     0.069 C
BRANCH  20  21
HETATM   21  C15 UNL     1      32.001  43.762  37.804  1.00  0.00    -0.009 C
HETATM   22  C16 UNL     1      32.778  44.739  36.978  1.00  0.00     0.005 C
HETATM   23  C17 UNL     1      31.991  45.977  36.597  1.00  0.00     0.000 C
HETATM   24  C18 UNL     1      30.789  45.568  35.785  1.00  0.00     0.000 C
HETATM   25  C19 UNL     1      29.990  44.548  36.551  1.00  0.00     0.000 C
HETATM   26  C20 UNL     1      30.575  44.332  37.905  1.00  0.00     0.005 C
ENDBRANCH  20  21
ENDBRANCH  19  20
BRANCH  19  27
HETATM   27  C21 UNL     1      33.412  41.378  38.566  1.00  0.00     0.223 C
HETATM   28  O6  UNL     1      33.063  40.344  37.995  1.00  0.00    -0.643 OA
HETATM   29  O7  UNL     1      34.636  41.886  38.075  1.00  0.00    -0.643 OA
ENDBRANCH  19  27
ENDBRANCH   1  19
TORSDOF 10
ENDMDL