MODEL 3
REMARK VINA RESULT: -7.058581063      2.296      6.110
REMARK  10 active torsions:
REMARK  status: ('A' for Active; 'I' for Inactive)
REMARK    1  A    between atoms: N1_2  and  C2_5
REMARK    2  A    between atoms: C2_5  and  C3_6
REMARK    3  A    between atoms: C2_5  and  C19_33
REMARK       I    between atoms: C3_6  and  N2_8
REMARK    4  A    between atoms: N2_8  and  C4_10
REMARK    5  A    between atoms: C4_10  and  C5_11
REMARK    6  A    between atoms: C4_10  and  C16_30
REMARK    7  A    between atoms: C5_11  and  C6_13
REMARK    8  A    between atoms: C6_13  and  N3_14
REMARK    9  A    between atoms: C7_15  and  C8_16
REMARK   10  A    between atoms: C12_26  and  C13_27
ROOT
HETATM    1  C5  UNL     1      31.270  48.775  33.769  1.00  0.00     0.177 C
HETATM    2  O2  UNL     1      31.021  49.960  33.624  1.00  0.00    -0.294 OA
ENDROOT
BRANCH   1   3
HETATM    3  C4  UNL     1      30.409  47.806  33.069  1.00  0.00     0.159 C
BRANCH   3   4
HETATM    4  N2  UNL     1      30.604  46.522  33.764  1.00  0.00    -0.347 N
HETATM    5  C3  UNL     1      29.766  46.080  34.797  1.00  0.00     0.249 C
HETATM    6  O1  UNL     1      28.809  46.866  35.112  1.00  0.00    -0.271 OA
ATOM      7  H2  UNL     1      31.383  45.928  33.481  1.00  0.00     0.163 HD
BRANCH   5   8
HETATM    8  C2  UNL     1      29.892  44.824  35.531  1.00  0.00     0.279 C
BRANCH   8   9
HETATM    9  N1  UNL     1      30.487  45.054  36.859  1.00  0.00    -0.066 N
HETATM   10  C1  UNL     1      31.889  45.279  36.833  1.00  0.00     0.267 C
ATOM     11  H12 UNL     1      30.260  44.287  37.491  1.00  0.00     0.277 HD
ATOM     12  H11 UNL     1      30.010  45.819  37.337  1.00  0.00     0.277 HD
ENDBRANCH   8   9
BRANCH   8  13
HETATM   13  C19 UNL     1      28.599  44.075  35.756  1.00  0.00     0.017 C
HETATM   14  C20 UNL     1      28.601  43.717  37.253  1.00  0.00     0.012 C
HETATM   15  C21 UNL     1      28.423  42.837  34.961  1.00  0.00     0.012 C
ENDBRANCH   8  13
ENDBRANCH   5   8
ENDBRANCH   3   4
BRANCH   3  16
HETATM   16  C16 UNL     1      30.648  47.617  31.617  1.00  0.00     0.007 C
HETATM   17  C17 UNL     1      29.563  48.078  30.721  1.00  0.00     0.012 C
HETATM   18  C18 UNL     1      30.822  46.111  31.370  1.00  0.00     0.012 C
ENDBRANCH   3  16
ENDBRANCH   1   3
BRANCH   1  19
HETATM   19  C6  UNL     1      32.389  48.363  34.606  1.00  0.00     0.354 C
BRANCH  19  20
HETATM   20  N3  UNL     1      33.666  48.293  33.878  1.00  0.00     0.111 N
HETATM   21  C7  UNL     1      34.637  49.102  34.588  1.00  0.00     0.276 C
HETATM   22  C10 UNL     1      34.989  48.351  35.828  1.00  0.00     0.044 C
HETATM   23  C11 UNL     1      34.888  46.904  35.357  1.00  0.00     0.038 C
HETATM   24  C12 UNL     1      34.232  46.967  33.982  1.00  0.00     0.228 C
BRANCH  21  25
HETATM   25  C8  UNL     1      34.216  50.490  34.821  1.00  0.00     0.077 A
HETATM   26  C9  UNL     1      34.221  51.125  36.040  1.00  0.00     0.137 A
HETATM   27  N4  UNL     1      33.777  52.387  35.830  1.00  0.00    -0.296 N
HETATM   28  N5  UNL     1      33.507  52.538  34.553  1.00  0.00    -0.243 N
ATOM     29  H4  UNL     1      33.669  53.103  36.548  1.00  0.00     0.187 HD
HETATM   30  N6  UNL     1      33.773  51.387  33.935  1.00  0.00    -0.287 N
ATOM     31  H5  UNL     1      33.156  53.389  34.111  1.00  0.00     0.208 HD
ATOM     32  H6  UNL     1      33.657  51.216  32.937  1.00  0.00     0.188 HD
ENDBRANCH  21  25
BRANCH  24  33
HETATM   33  C13 UNL     1      35.296  46.783  32.958  1.00  0.00     0.011 C
HETATM   34  C14 UNL     1      36.366  45.898  33.615  1.00  0.00     0.011 C
HETATM   35  C15 UNL     1      34.837  46.177  31.658  1.00  0.00     0.011 C
ENDBRANCH  24  33
ENDBRANCH  19  20
ENDBRANCH   1  19
TORSDOF 10
ENDMDL