MODEL 4
REMARK VINA RESULT: -7.621181421      2.977      7.049
REMARK  13 active torsions:
REMARK  status: ('A' for Active; 'I' for Inactive)
REMARK    1  A    between atoms: O1_2  and  C2_3
REMARK    2  A    between atoms: C2_3  and  C3_4
REMARK    3  A    between atoms: C2_3  and  C13_14
REMARK    4  A    between atoms: C4_5  and  C5_6
REMARK    5  A    between atoms: C5_6  and  C6_7
REMARK    6  A    between atoms: C6_7  and  C8_9
REMARK    7  A    between atoms: C8_9  and  C9_10
REMARK    8  A    between atoms: C9_10  and  C10_11
REMARK    9  A    between atoms: C15_16  and  O2_17
REMARK   10  A    between atoms: C16_19  and  C17_20
REMARK   11  A    between atoms: C18_21  and  C19_22
REMARK   12  A    between atoms: C19_22  and  O3_23
REMARK   13  A    between atoms: C19_22  and  C20_25
ROOT
HETATM    1  C13 UNL     1      28.961  46.577  33.933  1.00  0.00     0.031 C
HETATM    2  C14 UNL     1      29.225  45.805  32.661  1.00  0.00     0.040 C
HETATM    3  C15 UNL     1      30.304  46.838  32.375  1.00  0.00     0.126 C
HETATM    4  C16 UNL     1      30.330  47.074  33.894  1.00  0.00     0.043 C
ENDROOT
BRANCH   4   5
HETATM    5  C17 UNL     1      31.462  46.313  34.478  1.00  0.00    -0.021 C
HETATM    6  C18 UNL     1      32.391  46.993  35.133  1.00  0.00     0.003 C
BRANCH   6   7
HETATM    7  C19 UNL     1      33.609  46.581  35.810  1.00  0.00     0.178 C
BRANCH   7   8
HETATM    8  O3  UNL     1      33.206  46.391  37.178  1.00  0.00    -0.389 OA
ATOM      9  H3  UNL     1      33.992  46.082  37.612  1.00  0.00     0.210 HD
ENDBRANCH   7   8
BRANCH   7  10
HETATM   10  C20 UNL     1      34.707  47.620  35.891  1.00  0.00     0.287 C
HETATM   11  N1  UNL     1      35.960  46.852  35.658  1.00  0.00    -0.057 N
HETATM   12  C21 UNL     1      35.951  46.517  34.253  1.00  0.00     0.190 C
ATOM     13  H12 UNL     1      36.803  47.341  35.958  1.00  0.00     0.278 HD
ATOM     14  H11 UNL     1      36.066  46.044  36.272  1.00  0.00     0.278 HD
HETATM   15  C22 UNL     1      37.394  46.301  33.802  1.00  0.00     0.040 C
HETATM   16  C23 UNL     1      35.399  47.745  33.588  1.00  0.00     0.113 C
HETATM   17  C24 UNL     1      34.770  48.527  34.717  1.00  0.00     0.162 C
HETATM   18  O4  UNL     1      34.413  49.667  34.613  1.00  0.00    -0.296 OA
ENDBRANCH   7  10
ENDBRANCH   6   7
ENDBRANCH   4   5
BRANCH   1  19
HETATM   19  C2  UNL     1      28.363  45.853  35.081  1.00  0.00     0.149 C
BRANCH  19  20
HETATM   20  O1  UNL     1      27.142  46.408  35.495  1.00  0.00    -0.386 OA
HETATM   21  C1  UNL     1      27.366  47.372  36.494  1.00  0.00     0.202 C
ENDBRANCH  19  20
BRANCH  19  22
HETATM   22  C3  UNL     1      28.175  44.438  34.698  1.00  0.00     0.013 C
HETATM   23  C4  UNL     1      28.729  43.371  35.253  1.00  0.00     0.049 C
BRANCH  23  24
HETATM   24  C5  UNL     1      29.619  43.298  36.335  1.00  0.00    -0.152 C
BRANCH  24  25
HETATM   25  C6  UNL     1      30.415  43.234  37.303  1.00  0.00     0.052 C
HETATM   26  C7  UNL     1      30.248  44.271  38.412  1.00  0.00     0.023 C
BRANCH  25  27
HETATM   27  C8  UNL     1      31.542  42.312  37.541  1.00  0.00     0.016 C
BRANCH  27  28
HETATM   28  C9  UNL     1      32.889  42.948  37.570  1.00  0.00     0.005 C
BRANCH  28  29
HETATM   29  C10 UNL     1      33.832  41.937  38.213  1.00  0.00    -0.023 C
HETATM   30  C11 UNL     1      33.256  40.555  38.161  1.00  0.00     0.009 C
HETATM   31  C12 UNL     1      34.093  42.297  39.657  1.00  0.00     0.009 C
ENDBRANCH  28  29
ENDBRANCH  27  28
ENDBRANCH  25  27
ENDBRANCH  24  25
ENDBRANCH  23  24
ENDBRANCH  19  22
ENDBRANCH   1  19
BRANCH   3  32
HETATM   32  O2  UNL     1      29.762  47.917  31.671  1.00  0.00    -0.395 OA
ATOM     33  H2  UNL     1      30.095  47.927  30.782  1.00  0.00     0.210 HD
ENDBRANCH   3  32
TORSDOF 13
ENDMDL