MODEL 4
REMARK VINA RESULT: -8.276627102      2.895     10.731
REMARK  13 active torsions:
REMARK  status: ('A' for Active; 'I' for Inactive)
REMARK    1  A    between atoms: O1_2  and  C2_3
REMARK    2  A    between atoms: C2_3  and  C3_4
REMARK    3  A    between atoms: C4_5  and  C5_6
REMARK    4  A    between atoms: C7_8  and  O2_9
REMARK    5  A    between atoms: C8_11  and  C9_12
REMARK    6  A    between atoms: C10_13  and  C11_14
REMARK    7  A    between atoms: C11_14  and  O3_15
REMARK    8  A    between atoms: C11_14  and  C12_17
REMARK    9  A    between atoms: C12_17  and  C13_18
REMARK   10  A    between atoms: C13_18  and  C14_19
REMARK   11  A    between atoms: C21_28  and  C22_29
REMARK   12  A    between atoms: C22_29  and  C23_30
REMARK   13  A    between atoms: C23_30  and  O5_31
ROOT
HETATM    1  C5  UNL     1      30.639  46.151  36.163  1.00  0.00     0.011 C
HETATM    2  C6  UNL     1      29.345  45.986  36.913  1.00  0.00     0.041 C
HETATM    3  C7  UNL     1      29.369  44.592  37.451  1.00  0.00     0.126 C
HETATM    4  C8  UNL     1      30.626  43.941  36.947  1.00  0.00     0.037 C
HETATM    5  C20 UNL     1      31.543  45.139  36.812  1.00  0.00     0.019 C
ENDROOT
BRANCH   4   6
HETATM    6  C9  UNL     1      31.219  42.942  37.837  1.00  0.00    -0.021 C
HETATM    7  C10 UNL     1      31.971  43.194  38.871  1.00  0.00     0.001 C
BRANCH   7   8
HETATM    8  C11 UNL     1      32.546  42.103  39.739  1.00  0.00     0.140 C
BRANCH   8   9
HETATM    9  O3  UNL     1      32.948  41.081  38.890  1.00  0.00    -0.392 OA
ATOM     10  H3  UNL     1      32.165  40.605  38.639  1.00  0.00     0.210 HD
ENDBRANCH   8   9
BRANCH   8  11
HETATM   11  C12 UNL     1      33.744  42.642  40.473  1.00  0.00     0.037 C
BRANCH  11  12
HETATM   12  C13 UNL     1      34.217  41.758  41.598  1.00  0.00     0.028 C
BRANCH  12  13
HETATM   13  C14 UNL     1      34.043  42.383  42.954  1.00  0.00     0.086 C
HETATM   14  C15 UNL     1      35.364  42.593  43.665  1.00  0.00     0.026 C
HETATM   15  C16 UNL     1      35.883  41.272  44.166  1.00  0.00     0.011 C
HETATM   16  C17 UNL     1      35.038  40.864  45.357  1.00  0.00     0.103 C
HETATM   17  C18 UNL     1      33.610  40.842  44.917  1.00  0.00     0.219 C
HETATM   18  O4  UNL     1      32.809  40.140  45.598  1.00  0.00    -0.273 OA
HETATM   19  N1  UNL     1      33.152  41.568  43.790  1.00  0.00    -0.352 N
HETATM   20  C19 UNL     1      31.754  41.517  43.431  1.00  0.00     0.153 C
ENDBRANCH  12  13
ENDBRANCH  11  12
ENDBRANCH   8  11
ENDBRANCH   7   8
ENDBRANCH   4   6
BRANCH   3  21
HETATM   21  O2  UNL     1      28.213  43.930  37.085  1.00  0.00    -0.395 OA
ATOM     22  H2  UNL     1      28.433  43.114  36.653  1.00  0.00     0.210 HD
ENDBRANCH   3  21
BRANCH   1  23
HETATM   23  C4  UNL     1      30.459  45.769  34.739  1.00  0.00    -0.019 C
HETATM   24  C3  UNL     1      29.306  46.030  34.120  1.00  0.00     0.033 C
BRANCH  24  25
HETATM   25  C2  UNL     1      29.120  45.663  32.736  1.00  0.00     0.064 C
HETATM   26  C21 UNL     1      29.397  46.412  31.714  1.00  0.00     0.012 C
BRANCH  25  27
HETATM   27  O1  UNL     1      28.594  44.383  32.458  1.00  0.00    -0.356 OA
HETATM   28  C1  UNL     1      28.136  43.575  33.545  1.00  0.00     0.210 C
ENDBRANCH  25  27
BRANCH  26  29
HETATM   29  C22 UNL     1      29.948  47.763  31.816  1.00  0.00     0.056 C
BRANCH  29  30
HETATM   30  C23 UNL     1      29.876  48.516  30.497  1.00  0.00     0.168 C
BRANCH  30  31
HETATM   31  O5  UNL     1      28.546  48.833  30.197  1.00  0.00    -0.401 OA
ATOM     32  H5  UNL     1      28.431  49.776  30.181  1.00  0.00     0.209 HD
ENDBRANCH  30  31
ENDBRANCH  29  30
ENDBRANCH  26  29
ENDBRANCH  24  25
ENDBRANCH   1  23
TORSDOF 13
ENDMDL