MODEL 2
REMARK VINA RESULT: -8.577003375      1.170      1.830
REMARK  11 active torsions:
REMARK  status: ('A' for Active; 'I' for Inactive)
REMARK    1  A    between atoms: C3_3  and  C4_4
REMARK    2  A    between atoms: C4_4  and  C5_5
REMARK    3  A    between atoms: C5_5  and  C6_6
REMARK    4  A    between atoms: C6_6  and  C7_7
REMARK    5  A    between atoms: C7_7  and  C8_8
REMARK    6  A    between atoms: C9_9  and  C10_10
REMARK    7  A    between atoms: C10_10  and  C11_11
REMARK    8  A    between atoms: C13_14  and  C14_15
REMARK    9  A    between atoms: C14_15  and  C15_16
REMARK   10  A    between atoms: C15_16  and  N1_17
REMARK   11  A    between atoms: C21_29  and  O4_30
ROOT
HETATM    1  C1  UNL     1      29.608  48.472  30.446  1.00  0.00     0.012 C
HETATM    2  C2  UNL     1      29.983  48.018  31.512  1.00  0.00    -0.117 C
HETATM    3  C3  UNL     1      30.436  47.484  32.802  1.00  0.00     0.093 C
ENDROOT
BRANCH   3   4
HETATM    4  C4  UNL     1      29.739  46.168  33.096  1.00  0.00     0.012 C
BRANCH   4   5
HETATM    5  C5  UNL     1      29.575  45.976  34.599  1.00  0.00     0.001 C
BRANCH   5   6
HETATM    6  C6  UNL     1      29.349  47.271  35.302  1.00  0.00     0.004 C
BRANCH   6   7
HETATM    7  C7  UNL     1      29.086  47.013  36.761  1.00  0.00     0.027 C
BRANCH   7   8
HETATM    8  C8  UNL     1      28.977  45.547  36.981  1.00  0.00    -0.031 C
HETATM    9  C9  UNL     1      29.707  44.992  37.941  1.00  0.00    -0.028 C
BRANCH   9  10
HETATM   10  C10 UNL     1      29.657  43.508  38.232  1.00  0.00     0.059 C
BRANCH  10  11
HETATM   11  C11 UNL     1      30.492  43.274  39.488  1.00  0.00     0.131 C
HETATM   12  O1  UNL     1      29.895  42.345  40.291  1.00  0.00    -0.385 OA
HETATM   13  C12 UNL     1      30.317  41.052  40.208  1.00  0.00     0.173 C
HETATM   14  C13 UNL     1      31.799  40.848  40.101  1.00  0.00     0.016 C
HETATM   15  C18 UNL     1      32.566  42.121  40.233  1.00  0.00     0.001 C
HETATM   16  C19 UNL     1      33.963  42.061  39.696  1.00  0.00     0.008 C
HETATM   17  C22 UNL     1      31.942  43.140  39.266  1.00  0.00     0.048 C
HETATM   18  C20 UNL     1      33.801  42.140  38.215  1.00  0.00     0.032 C
HETATM   19  C21 UNL     1      32.438  42.763  37.933  1.00  0.00     0.125 C
BRANCH  14  20
HETATM   20  C14 UNL     1      32.263  39.796  41.090  1.00  0.00     0.029 C
BRANCH  20  21
HETATM   21  C15 UNL     1      31.277  39.786  42.221  1.00  0.00     0.154 C
BRANCH  21  22
HETATM   22  N1  UNL     1      31.855  40.273  43.462  1.00  0.00    -0.238 N
HETATM   23  N2  UNL     1      32.797  39.739  44.221  1.00  0.00    -0.245 N
HETATM   24  C16 UNL     1      32.985  40.569  45.266  1.00  0.00     0.343 A
ATOM     25  H2  UNL     1      33.288  38.862  44.048  1.00  0.00     0.192 HD
HETATM   26  O2  UNL     1      33.811  40.357  46.177  1.00  0.00    -0.245 OA
HETATM   27  N3  UNL     1      32.157  41.610  45.145  1.00  0.00    -0.258 N
HETATM   28  C17 UNL     1      31.455  41.428  44.023  1.00  0.00     0.345 A
ATOM     29  H3  UNL     1      32.076  42.398  45.788  1.00  0.00     0.175 HD
HETATM   30  O3  UNL     1      30.561  42.231  43.587  1.00  0.00    -0.245 OA
ENDBRANCH  21  22
ENDBRANCH  20  21
ENDBRANCH  14  20
BRANCH  19  31
HETATM   31  O4  UNL     1      31.723  41.882  37.187  1.00  0.00    -0.395 OA
ATOM     32  H4  UNL     1      30.825  41.899  37.497  1.00  0.00     0.210 HD
ENDBRANCH  19  31
ENDBRANCH  10  11
ENDBRANCH   9  10
ENDBRANCH   7   8
ENDBRANCH   6   7
ENDBRANCH   5   6
ENDBRANCH   4   5
ENDBRANCH   3   4
TORSDOF 11
ENDMDL