MODEL 4
REMARK VINA RESULT: -8.059941001      3.080      9.136
REMARK  11 active torsions:
REMARK  status: ('A' for Active; 'I' for Inactive)
REMARK    1  A    between atoms: C2_2  and  C3_3
REMARK    2  A    between atoms: C3_3  and  C5_5
REMARK    3  A    between atoms: C5_5  and  N1_6
REMARK    4  A    between atoms: C5_5  and  C13_17
REMARK       I    between atoms: N1_6  and  C6_8
REMARK    5  A    between atoms: C6_8  and  C7_10
REMARK    6  A    between atoms: C8_11  and  C9_12
REMARK    7  A    between atoms: C13_17  and  C14_19
REMARK       I    between atoms: C14_19  and  N2_21
REMARK    8  A    between atoms: N2_21  and  C15_23
REMARK    9  A    between atoms: C15_23  and  C16_24
REMARK   10  A    between atoms: C15_23  and  C20_28
REMARK   11  A    between atoms: C16_24  and  C17_25
ROOT
HETATM    1  C5  UNL     1      30.869  42.237  38.409  1.00  0.00     0.168 C
ENDROOT
BRANCH   1   2
HETATM    2  C3  UNL     1      31.882  41.419  37.668  1.00  0.00     0.012 C
HETATM    3  C4  UNL     1      33.300  41.610  38.160  1.00  0.00     0.012 C
BRANCH   2   4
HETATM    4  C2  UNL     1      31.513  39.971  37.567  1.00  0.00     0.002 C
HETATM    5  C1  UNL     1      32.544  39.143  38.320  1.00  0.00     0.005 C
ENDBRANCH   2   4
ENDBRANCH   1   2
BRANCH   1   6
HETATM    6  N1  UNL     1      31.307  42.280  39.808  1.00  0.00    -0.345 N
HETATM    7  C6  UNL     1      30.626  41.553  40.815  1.00  0.00     0.241 C
HETATM    8  O1  UNL     1      29.618  40.834  40.570  1.00  0.00    -0.269 OA
ATOM      9  H1  UNL     1      32.118  42.844  40.060  1.00  0.00     0.163 HD
BRANCH   7  10
HETATM   10  C7  UNL     1      31.095  41.629  42.183  1.00  0.00     0.071 C
HETATM   11  C8  UNL     1      32.381  41.582  42.468  1.00  0.00    -0.006 C
BRANCH  11  12
HETATM   12  C9  UNL     1      32.848  41.659  43.842  1.00  0.00     0.070 C
HETATM   13  C10 UNL     1      32.877  40.286  44.525  1.00  0.00     0.020 C
HETATM   14  C11 UNL     1      33.749  40.480  45.751  1.00  0.00     0.012 C
HETATM   15  C12 UNL     1      35.129  40.881  45.237  1.00  0.00     0.074 C
HETATM   16  S1  UNL     1      34.644  42.047  43.901  1.00  0.00    -0.160 SA
ENDBRANCH  11  12
ENDBRANCH   7  10
ENDBRANCH   1   6
BRANCH   1  17
HETATM   17  C13 UNL     1      30.708  43.618  37.885  1.00  0.00     0.239 C
HETATM   18  O2  UNL     1      31.651  44.425  38.192  1.00  0.00    -0.285 OA
BRANCH  17  19
HETATM   19  C14 UNL     1      29.573  44.031  37.091  1.00  0.00     0.290 C
HETATM   20  O3  UNL     1      28.575  43.282  37.044  1.00  0.00    -0.264 OA
HETATM   21  N2  UNL     1      29.570  45.236  36.385  1.00  0.00    -0.340 N
ATOM     22  H2  UNL     1      30.409  45.811  36.452  1.00  0.00     0.163 HD
BRANCH  21  23
HETATM   23  C15 UNL     1      28.488  45.747  35.566  1.00  0.00     0.186 C
BRANCH  23  24
HETATM   24  C16 UNL     1      28.937  46.176  34.219  1.00  0.00     0.040 C
BRANCH  24  25
HETATM   25  C17 UNL     1      29.270  45.071  33.250  1.00  0.00    -0.020 C
HETATM   26  C18 UNL     1      29.061  45.466  31.806  1.00  0.00     0.009 C
HETATM   27  C19 UNL     1      28.292  43.895  33.474  1.00  0.00     0.009 C
ENDBRANCH  24  25
ENDBRANCH  23  24
BRANCH  23  28
HETATM   28  C20 UNL     1      27.832  46.810  36.363  1.00  0.00     0.196 C
HETATM   29  O4  UNL     1      26.671  47.225  36.142  1.00  0.00    -0.646 OA
HETATM   30  O5  UNL     1      28.485  47.425  37.429  1.00  0.00    -0.646 OA
ENDBRANCH  23  28
ENDBRANCH  21  23
ENDBRANCH  17  19
ENDBRANCH   1  17
TORSDOF 11
ENDMDL