MODEL 2
REMARK VINA RESULT: -8.538681530      1.445      2.013
REMARK  14 active torsions:
REMARK  status: ('A' for Active; 'I' for Inactive)
REMARK    1  A    between atoms: C2_2  and  C3_3
REMARK    2  A    between atoms: C3_3  and  C4_4
REMARK    3  A    between atoms: C4_4  and  C5_5
REMARK    4  A    between atoms: C5_5  and  C6_6
REMARK    5  A    between atoms: C6_6  and  C7_7
REMARK    6  A    between atoms: C6_6  and  C9_15
REMARK    7  A    between atoms: C7_7  and  C8_8
REMARK    8  A    between atoms: C8_8  and  O1_9
REMARK    9  A    between atoms: N1_11  and  O2_13
REMARK       I    between atoms: C9_15  and  N2_17
REMARK   10  A    between atoms: N2_17  and  C10_19
REMARK   11  A    between atoms: C10_19  and  C12_21
REMARK   12  A    between atoms: C12_21  and  O4_22
REMARK   13  A    between atoms: C12_21  and  N3_24
REMARK   14  A    between atoms: N4_27  and  C15_28
ROOT
HETATM    1  C9  UNL     1      29.944  44.798  37.433  1.00  0.00     0.226 C
HETATM    2  O3  UNL     1      29.771  44.816  38.661  1.00  0.00    -0.273 OA
HETATM    3  N2  UNL     1      30.975  44.122  36.805  1.00  0.00    -0.324 N
ATOM      4  H2  UNL     1      30.983  44.202  35.789  1.00  0.00     0.169 HD
ENDROOT
BRANCH   3   5
HETATM    5  C10 UNL     1      32.043  43.320  37.358  1.00  0.00     0.077 C
HETATM    6  C11 UNL     1      33.253  43.774  37.471  1.00  0.00     0.048 C
BRANCH   5   7
HETATM    7  C12 UNL     1      31.682  41.977  37.769  1.00  0.00     0.173 C
BRANCH   7   8
HETATM    8  O4  UNL     1      30.754  41.438  36.998  1.00  0.00    -0.344 OA
ATOM      9  H4  UNL     1      29.872  41.620  37.301  1.00  0.00     0.219 HD
ENDBRANCH   7   8
BRANCH   7  10
HETATM   10  N3  UNL     1      32.120  41.161  38.806  1.00  0.00    -0.277 N
HETATM   11  C13 UNL     1      32.577  39.811  38.808  1.00  0.00     0.156 C
HETATM   12  C14 UNL     1      33.087  39.457  40.174  1.00  0.00     0.148 C
HETATM   13  N4  UNL     1      33.079  40.704  40.885  1.00  0.00    -0.327 N
HETATM   14  C21 UNL     1      32.197  41.561  40.204  1.00  0.00     0.327 C
HETATM   15  O5  UNL     1      31.570  42.517  40.699  1.00  0.00    -0.247 OA
BRANCH  13  16
HETATM   16  C15 UNL     1      33.816  41.045  42.084  1.00  0.00     0.089 C
HETATM   17  C16 UNL     1      34.716  39.888  42.511  1.00  0.00     0.025 C
HETATM   18  C17 UNL     1      35.123  40.178  43.931  1.00  0.00     0.002 C
HETATM   19  C18 UNL     1      35.772  41.509  44.111  1.00  0.00     0.000 C
HETATM   20  C19 UNL     1      35.211  42.624  43.305  1.00  0.00     0.002 C
HETATM   21  C20 UNL     1      34.711  42.245  41.936  1.00  0.00     0.025 C
ENDBRANCH  13  16
ENDBRANCH   7  10
ENDBRANCH   5   7
ENDBRANCH   3   5
BRANCH   1  22
HETATM   22  C6  UNL     1      28.994  45.547  36.526  1.00  0.00     0.086 C
BRANCH  22  23
HETATM   23  C5  UNL     1      29.395  45.410  35.095  1.00  0.00     0.015 C
BRANCH  23  24
HETATM   24  C4  UNL     1      28.291  44.983  34.171  1.00  0.00     0.004 C
BRANCH  24  25
HETATM   25  C3  UNL     1      28.806  44.554  32.820  1.00  0.00     0.026 C
BRANCH  25  26
HETATM   26  C2  UNL     1      29.370  45.693  32.032  1.00  0.00    -0.037 C
HETATM   27  C1  UNL     1      30.133  45.481  30.977  1.00  0.00     0.007 C
ENDBRANCH  25  26
ENDBRANCH  24  25
ENDBRANCH  23  24
ENDBRANCH  22  23
BRANCH  22  28
HETATM   28  C7  UNL     1      29.049  47.005  36.921  1.00  0.00     0.100 C
BRANCH  28  29
HETATM   29  C8  UNL     1      27.728  47.589  37.170  1.00  0.00     0.136 C
HETATM   30  N1  UNL     1      27.450  48.182  38.265  1.00  0.00    -0.251 N
ATOM     31  H1  UNL     1      26.509  48.561  38.365  1.00  0.00     0.196 HD
BRANCH  29  32
HETATM   32  O1  UNL     1      26.736  47.509  36.211  1.00  0.00    -0.348 OA
ATOM     33  H1  UNL     1      25.860  47.825  36.399  1.00  0.00     0.219 HD
ENDBRANCH  29  32
BRANCH  30  34
HETATM   34  O2  UNL     1      28.314  48.354  39.322  1.00  0.00    -0.288 OA
ATOM     35  H2  UNL     1      28.207  47.980  40.188  1.00  0.00     0.244 HD
ENDBRANCH  30  34
ENDBRANCH  28  29
ENDBRANCH  22  28
ENDBRANCH   1  22
TORSDOF 14
ENDMDL