MODEL 4
REMARK VINA RESULT: -6.956585866      6.927     10.393
REMARK  11 active torsions:
REMARK  status: ('A' for Active; 'I' for Inactive)
REMARK    1  A    between atoms: C2_2  and  C3_3
REMARK    2  A    between atoms: C3_3  and  C4_4
REMARK    3  A    between atoms: C4_4  and  C5_5
REMARK    4  A    between atoms: C4_4  and  C21_29
REMARK    5  A    between atoms: C8_11  and  O2_12
REMARK    6  A    between atoms: C8_11  and  C9_14
REMARK    7  A    between atoms: C13_18  and  C14_19
REMARK    8  A    between atoms: C14_19  and  C15_20
REMARK    9  A    between atoms: C15_20  and  C16_21
REMARK   10  A    between atoms: C15_20  and  N2_26
REMARK   11  A    between atoms: C17_22  and  C19_24
ROOT
HETATM    1  C5  UNL     1      29.083  44.849  36.148  1.00  0.00     0.000 C
HETATM    2  C6  UNL     1      30.034  44.273  37.053  1.00  0.00     0.011 C
HETATM    3  C7  UNL     1      30.062  44.524  38.477  1.00  0.00     0.250 C
HETATM    4  O1  UNL     1      29.410  45.312  39.148  1.00  0.00    -0.268 OA
HETATM    5  N1  UNL     1      31.023  43.697  39.190  1.00  0.00    -0.325 N
ATOM      6  H1  UNL     1      31.239  43.881  40.170  1.00  0.00     0.165 HD
HETATM    7  C8  UNL     1      31.672  42.600  38.478  1.00  0.00     0.137 C
HETATM    8  C12 UNL     1      32.135  42.992  37.095  1.00  0.00     0.071 C
HETATM    9  C13 UNL     1      31.494  44.208  36.515  1.00  0.00     0.031 C
ENDROOT
BRANCH   9  10
HETATM   10  C14 UNL     1      32.214  45.445  36.723  1.00  0.00     0.045 C
BRANCH  10  11
HETATM   11  C15 UNL     1      33.010  46.131  35.685  1.00  0.00     0.179 C
BRANCH  11  12
HETATM   12  C16 UNL     1      32.207  47.396  35.334  1.00  0.00     0.007 C
HETATM   13  C17 UNL     1      31.791  47.671  34.137  1.00  0.00    -0.086 C
HETATM   14  C18 UNL     1      31.012  48.959  33.969  1.00  0.00     0.043 C
BRANCH  13  15
HETATM   15  C19 UNL     1      31.988  46.884  32.905  1.00  0.00     0.029 C
HETATM   16  C20 UNL     1      31.010  47.381  31.838  1.00  0.00     0.010 C
ENDBRANCH  13  15
ENDBRANCH  11  12
BRANCH  11  17
HETATM   17  N2  UNL     1      34.333  46.600  35.974  1.00  0.00    -0.147 N
HETATM   18  O3  UNL     1      34.568  47.352  36.965  1.00  0.00    -0.536 OA
HETATM   19  O4  UNL     1      35.430  46.249  35.229  1.00  0.00    -0.536 OA
ENDBRANCH  11  17
ENDBRANCH  10  11
ENDBRANCH   9  10
BRANCH   1  20
HETATM   20  C4  UNL     1      28.844  46.247  35.855  1.00  0.00     0.101 C
BRANCH  20  21
HETATM   21  C3  UNL     1      28.453  46.247  34.336  1.00  0.00     0.044 C
BRANCH  21  22
HETATM   22  C2  UNL     1      28.720  44.940  33.732  1.00  0.00    -0.036 C
HETATM   23  C1  UNL     1      28.748  44.820  32.414  1.00  0.00     0.007 C
ENDBRANCH  21  22
ENDBRANCH  20  21
BRANCH  20  24
HETATM   24  C21 UNL     1      27.709  46.944  36.462  1.00  0.00     0.239 C
HETATM   25  N3  UNL     1      27.801  47.817  37.576  1.00  0.00    -0.062 NA
HETATM   26  O5  UNL     1      26.531  46.783  35.988  1.00  0.00    -0.276 OA
ENDBRANCH  20  24
ENDBRANCH   1  20
BRANCH   7  27
HETATM   27  O2  UNL     1      30.798  41.481  38.426  1.00  0.00    -0.370 OA
ATOM     28  H2  UNL     1      30.698  41.112  39.296  1.00  0.00     0.212 HD
ENDBRANCH   7  27
BRANCH   7  29
HETATM   29  C9  UNL     1      32.817  42.098  39.332  1.00  0.00     0.033 C
HETATM   30  C10 UNL     1      33.949  41.583  38.457  1.00  0.00     0.014 C
HETATM   31  C11 UNL     1      33.385  43.146  40.225  1.00  0.00     0.014 C
ENDBRANCH   7  29
TORSDOF 11
ENDMDL