MODEL 5
REMARK VINA RESULT: -7.793588219      3.991      8.387
REMARK  13 active torsions:
REMARK  status: ('A' for Active; 'I' for Inactive)
REMARK    1  A    between atoms: C2_2  and  C4_4
REMARK    2  A    between atoms: N1_8  and  C7_9
REMARK    3  A    between atoms: C7_9  and  C8_10
REMARK    4  A    between atoms: C8_10  and  C9_11
REMARK    5  A    between atoms: C9_11  and  C10_12
REMARK    6  A    between atoms: C9_11  and  C12_16
REMARK    7  A    between atoms: C10_12  and  C11_13
REMARK    8  A    between atoms: C12_16  and  O4_17
REMARK    9  A    between atoms: C12_16  and  N2_19
REMARK   10  A    between atoms: N2_19  and  C13_21
REMARK   11  A    between atoms: C13_21  and  C14_22
REMARK   12  A    between atoms: C13_21  and  C21_29
REMARK   13  A    between atoms: C14_22  and  C15_23
ROOT
HETATM    1  C12 UNL     1      32.652  43.441  37.571  1.00  0.00     0.143 C
ENDROOT
BRANCH   1   2
HETATM    2  C9  UNL     1      33.060  42.454  38.494  1.00  0.00     0.000 C
BRANCH   2   3
HETATM    3  C8  UNL     1      33.389  42.557  39.724  1.00  0.00     0.015 C
BRANCH   3   4
HETATM    4  C7  UNL     1      32.747  42.335  41.010  1.00  0.00     0.304 C
BRANCH   4   5
HETATM    5  N1  UNL     1      33.385  41.261  41.751  1.00  0.00     0.126 N
HETATM    6  C4  UNL     1      33.919  41.571  43.029  1.00  0.00     0.388 C
HETATM    7  O1  UNL     1      32.876  42.346  43.547  1.00  0.00    -0.352 OA
HETATM    8  C5  UNL     1      31.781  41.476  43.378  1.00  0.00     0.201 C
HETATM    9  C6  UNL     1      32.178  40.507  42.254  1.00  0.00     0.303 C
BRANCH   6  10
HETATM   10  C2  UNL     1      35.254  42.083  43.161  1.00  0.00    -0.035 C
HETATM   11  C1  UNL     1      35.728  43.219  42.679  1.00  0.00     0.018 C
HETATM   12  C3  UNL     1      36.242  41.198  43.901  1.00  0.00     0.047 C
ENDBRANCH   6  10
ENDBRANCH   4   5
ENDBRANCH   3   4
ENDBRANCH   2   3
BRANCH   2  13
HETATM   13  C10 UNL     1      33.075  41.019  37.946  1.00  0.00     0.155 C
BRANCH  13  14
HETATM   14  C11 UNL     1      31.720  40.488  37.969  1.00  0.00     0.177 C
HETATM   15  O2  UNL     1      31.260  39.858  38.933  1.00  0.00    -0.648 OA
HETATM   16  O3  UNL     1      30.876  40.682  36.863  1.00  0.00    -0.648 OA
ENDBRANCH  13  14
ENDBRANCH   2  13
ENDBRANCH   1   2
BRANCH   1  17
HETATM   17  O4  UNL     1      33.568  44.301  37.197  1.00  0.00    -0.346 OA
ATOM     18  H4  UNL     1      33.334  44.881  36.481  1.00  0.00     0.219 HD
ENDBRANCH   1  17
BRANCH   1  19
HETATM   19  N2  UNL     1      31.417  43.680  36.962  1.00  0.00    -0.356 N
ATOM     20  H2  UNL     1      31.212  43.285  36.044  1.00  0.00     0.162 HD
BRANCH  19  21
HETATM   21  C13 UNL     1      30.375  44.537  37.682  1.00  0.00     0.185 C
BRANCH  21  22
HETATM   22  C14 UNL     1      30.025  45.632  36.758  1.00  0.00     0.040 C
BRANCH  22  23
HETATM   23  C15 UNL     1      30.184  45.503  35.298  1.00  0.00    -0.012 C
HETATM   24  C16 UNL     1      28.767  45.530  34.640  1.00  0.00     0.005 C
HETATM   25  C17 UNL     1      28.988  45.067  33.217  1.00  0.00     0.000 C
HETATM   26  C18 UNL     1      29.612  46.246  32.483  1.00  0.00     0.000 C
HETATM   27  C19 UNL     1      30.136  47.263  33.466  1.00  0.00     0.000 C
HETATM   28  C20 UNL     1      30.909  46.639  34.610  1.00  0.00     0.005 C
ENDBRANCH  22  23
ENDBRANCH  21  22
BRANCH  21  29
HETATM   29  C21 UNL     1      29.377  43.626  38.187  1.00  0.00     0.196 C
HETATM   30  O5  UNL     1      28.253  43.464  37.567  1.00  0.00    -0.646 OA
HETATM   31  O6  UNL     1      29.463  42.826  39.328  1.00  0.00    -0.646 OA
ENDBRANCH  21  29
ENDBRANCH  19  21
ENDBRANCH   1  19
TORSDOF 13
ENDMDL