MODEL 4
REMARK VINA RESULT: -7.102739098      2.782      4.575
REMARK  17 active torsions:
REMARK  status: ('A' for Active; 'I' for Inactive)
REMARK    1  A    between atoms: C3_4  and  O2_5
REMARK    2  A    between atoms: O2_5  and  C4_6
REMARK    3  A    between atoms: C11_14  and  C12_15
REMARK    4  A    between atoms: C12_15  and  N1_16
REMARK    5  A    between atoms: C12_15  and  O4_20
REMARK    6  A    between atoms: N1_16  and  N2_17
REMARK    7  A    between atoms: O4_20  and  C13_21
REMARK    8  A    between atoms: C13_21  and  C14_22
REMARK    9  A    between atoms: C14_22  and  C15_23
REMARK   10  A    between atoms: C15_23  and  C16_24
REMARK   11  A    between atoms: C16_24  and  C17_25
REMARK   12  A    between atoms: C17_25  and  C18_26
REMARK   13  A    between atoms: C18_26  and  C19_27
REMARK   14  A    between atoms: C19_27  and  N3_28
REMARK   15  A    between atoms: C20_32  and  O5_33
REMARK   16  A    between atoms: C21_35  and  O6_36
REMARK   17  A    between atoms: C22_38  and  O7_39
ROOT
HETATM    1  C4  UNL     1      20.616  65.074  45.485  1.00  0.00     0.166 C
HETATM    2  C5  UNL     1      21.297  66.434  45.498  1.00  0.00     0.073 C
HETATM    3  C6  UNL     1      20.150  67.341  45.181  1.00  0.00     0.064 C
HETATM    4  C7  UNL     1      20.405  68.770  45.614  1.00  0.00     0.038 C
HETATM    5  C8  UNL     1      20.335  69.615  44.354  1.00  0.00     0.003 C
HETATM    6  C9  UNL     1      19.333  68.820  43.513  1.00  0.00     0.003 C
HETATM    7  C10 UNL     1      19.848  67.403  43.704  1.00  0.00     0.038 C
HETATM    8  O3  UNL     1      19.096  66.798  45.859  1.00  0.00    -0.363 OA
HETATM    9  C11 UNL     1      19.256  65.456  46.042  1.00  0.00     0.243 C
ENDROOT
BRANCH   9  10
HETATM   10  C12 UNL     1      19.164  65.179  47.522  1.00  0.00     0.247 C
BRANCH  10  11
HETATM   11  N1  UNL     1      18.975  66.032  48.303  1.00  0.00    -0.309 NA
BRANCH  11  12
HETATM   12  N2  UNL     1      18.719  67.010  49.130  1.00  0.00    -0.278 N
ATOM     13  H22 UNL     1      18.983  67.399  48.225  1.00  0.00     0.191 HD
ATOM     14  H21 UNL     1      18.508  67.737  49.814  1.00  0.00     0.191 HD
ENDBRANCH  11  12
ENDBRANCH  10  11
BRANCH  10  15
HETATM   15  O4  UNL     1      19.325  63.838  47.861  1.00  0.00    -0.325 OA
BRANCH  15  16
HETATM   16  C13 UNL     1      20.525  63.331  48.332  1.00  0.00     0.178 C
BRANCH  16  17
HETATM   17  C14 UNL     1      20.782  63.494  49.801  1.00  0.00     0.027 C
BRANCH  17  18
HETATM   18  C15 UNL     1      22.215  63.934  50.030  1.00  0.00     0.002 C
BRANCH  18  19
HETATM   19  C16 UNL     1      22.624  65.098  49.183  1.00  0.00     0.000 C
BRANCH  19  20
HETATM   20  C17 UNL     1      24.084  65.053  48.776  1.00  0.00     0.002 C
BRANCH  20  21
HETATM   21  C18 UNL     1      24.166  65.011  47.257  1.00  0.00     0.027 C
BRANCH  21  22
HETATM   22  C19 UNL     1      24.621  63.627  46.868  1.00  0.00     0.229 C
BRANCH  22  23
HETATM   23  N3  UNL     1      23.514  62.909  46.234  1.00  0.00    -0.079 N
ATOM     24  H33 UNL     1      23.371  61.985  46.641  1.00  0.00     0.274 HD
ATOM     25  H32 UNL     1      22.608  63.313  46.469  1.00  0.00     0.274 HD
ATOM     26  H31 UNL     1      23.669  62.868  45.226  1.00  0.00     0.274 HD
ENDBRANCH  22  23
ENDBRANCH  21  22
ENDBRANCH  20  21
ENDBRANCH  19  20
ENDBRANCH  18  19
ENDBRANCH  17  18
ENDBRANCH  16  17
ENDBRANCH  15  16
ENDBRANCH  10  15
ENDBRANCH   9  10
BRANCH   1  27
HETATM   27  O2  UNL     1      20.392  64.602  44.214  1.00  0.00    -0.350 OA
BRANCH  27  28
HETATM   28  C3  UNL     1      19.734  63.395  44.145  1.00  0.00     0.292 C
HETATM   29  O1  UNL     1      18.740  63.411  43.177  1.00  0.00    -0.351 OA
HETATM   30  C2  UNL     1      19.199  63.204  41.886  1.00  0.00     0.152 C
HETATM   31  C1  UNL     1      17.973  63.236  40.984  1.00  0.00     0.042 C
HETATM   32  C22 UNL     1      19.893  61.883  41.723  1.00  0.00     0.178 C
HETATM   33  C21 UNL     1      19.996  61.223  43.088  1.00  0.00     0.183 C
HETATM   34  C20 UNL     1      20.629  62.206  44.081  1.00  0.00     0.204 C
BRANCH  32  35
HETATM   35  O7  UNL     1      19.319  61.064  40.784  1.00  0.00    -0.390 OA
ATOM     36  H7  UNL     1      19.928  60.739  40.132  1.00  0.00     0.210 HD
ENDBRANCH  32  35
BRANCH  33  37
HETATM   37  O6  UNL     1      18.706  60.868  43.456  1.00  0.00    -0.390 OA
ATOM     38  H6  UNL     1      18.073  61.074  42.780  1.00  0.00     0.210 HD
ENDBRANCH  33  37
BRANCH  34  39
HETATM   39  O5  UNL     1      21.882  62.495  43.534  1.00  0.00    -0.388 OA
ATOM     40  H5  UNL     1      22.558  62.602  44.194  1.00  0.00     0.210 HD
ENDBRANCH  34  39
ENDBRANCH  27  28
ENDBRANCH   1  27
TORSDOF 17
ENDMDL