MODEL 4
REMARK VINA RESULT: -7.314251586      1.240      1.395
REMARK  14 active torsions:
REMARK  status: ('A' for Active; 'I' for Inactive)
REMARK    1  A    between atoms: C1_4  and  C2_5
REMARK    2  A    between atoms: C2_5  and  O2_7
REMARK    3  A    between atoms: O2_7  and  C3_8
REMARK    4  A    between atoms: C3_8  and  C4_9
REMARK    5  A    between atoms: C5_10  and  O3_11
REMARK    6  A    between atoms: C6_13  and  S1_14
REMARK    7  A    between atoms: S1_14  and  C7_15
REMARK    8  A    between atoms: C7_15  and  C8_16
REMARK    9  A    between atoms: C8_16  and  C9_17
REMARK   10  A    between atoms: C9_17  and  C10_18
REMARK   11  A    between atoms: C10_18  and  C11_19
REMARK   12  A    between atoms: C11_19  and  O4_20
REMARK   13  A    between atoms: C15_27  and  O7_28
REMARK   14  A    between atoms: C15_27  and  C16_30
ROOT
HETATM    1  C4  UNL     1      21.824  65.132  46.221  1.00  0.00     0.284 C
HETATM    2  C5  UNL     1      22.153  63.722  46.653  1.00  0.00     0.172 C
HETATM    3  C6  UNL     1      20.930  62.904  46.332  1.00  0.00     0.137 C
HETATM    4  C12 UNL     1      19.844  63.931  46.466  1.00  0.00     0.380 C
HETATM    5  O5  UNL     1      18.712  63.689  45.714  1.00  0.00    -0.348 OA
HETATM    6  C13 UNL     1      17.902  64.851  45.853  1.00  0.00     0.254 C
HETATM    7  C14 UNL     1      18.353  65.560  47.071  1.00  0.00     0.216 C
HETATM    8  O6  UNL     1      17.639  65.607  48.034  1.00  0.00    -0.290 OA
HETATM    9  C15 UNL     1      19.738  66.190  46.992  1.00  0.00     0.329 C
HETATM   10  N2  UNL     1      20.439  65.218  46.181  1.00  0.00     0.171 N
ENDROOT
BRANCH   1  11
HETATM   11  C3  UNL     1      22.493  65.300  44.848  1.00  0.00     0.217 C
BRANCH  11  12
HETATM   12  O2  UNL     1      23.699  65.999  44.928  1.00  0.00    -0.315 OA
BRANCH  12  13
HETATM   13  C2  UNL     1      24.925  65.544  45.313  1.00  0.00     0.298 C
HETATM   14  O1  UNL     1      25.560  64.771  44.561  1.00  0.00    -0.259 OA
BRANCH  13  15
HETATM   15  C1  UNL     1      25.538  65.930  46.597  1.00  0.00     0.163 C
HETATM   16  N1  UNL     1      25.037  65.569  47.718  1.00  0.00    -0.403 N
ATOM     17  H12 UNL     1      24.191  65.000  47.705  1.00  0.00     0.155 HD
ATOM     18  H11 UNL     1      25.461  65.836  48.606  1.00  0.00     0.155 HD
ENDBRANCH  13  15
ENDBRANCH  12  13
ENDBRANCH  11  12
ENDBRANCH   1  11
BRANCH   2  19
HETATM   19  O3  UNL     1      22.467  63.670  48.015  1.00  0.00    -0.392 OA
ATOM     20  H3  UNL     1      23.393  63.826  48.160  1.00  0.00     0.210 HD
ENDBRANCH   2  19
BRANCH   3  21
HETATM   21  S1  UNL     1      20.897  62.186  44.703  1.00  0.00    -0.157 SA
BRANCH  21  22
HETATM   22  C7  UNL     1      19.802  60.756  44.589  1.00  0.00     0.074 C
BRANCH  22  23
HETATM   23  C8  UNL     1      18.785  61.020  43.479  1.00  0.00     0.010 C
BRANCH  23  24
HETATM   24  C9  UNL     1      19.414  61.958  42.502  1.00  0.00     0.003 C
BRANCH  24  25
HETATM   25  C10 UNL     1      19.721  61.385  41.164  1.00  0.00     0.026 C
BRANCH  25  26
HETATM   26  C11 UNL     1      21.003  61.813  40.529  1.00  0.00     0.164 C
BRANCH  26  27
HETATM   27  O4  UNL     1      21.733  60.803  39.928  1.00  0.00    -0.401 OA
ATOM     28  H4  UNL     1      22.508  61.085  39.456  1.00  0.00     0.209 HD
ENDBRANCH  26  27
ENDBRANCH  25  26
ENDBRANCH  24  25
ENDBRANCH  23  24
ENDBRANCH  22  23
ENDBRANCH  21  22
ENDBRANCH   3  21
BRANCH   9  29
HETATM   29  O7  UNL     1      20.192  66.302  48.276  1.00  0.00    -0.357 OA
ATOM     30  H7  UNL     1      19.795  67.085  48.638  1.00  0.00     0.213 HD
ENDBRANCH   9  29
BRANCH   9  31
HETATM   31  C16 UNL     1      19.558  67.534  46.309  1.00  0.00     0.060 C
HETATM   32  C17 UNL     1      20.902  68.281  46.435  1.00  0.00     0.010 C
HETATM   33  C18 UNL     1      20.782  69.620  45.757  1.00  0.00     0.001 C
HETATM   34  C19 UNL     1      20.411  69.563  44.318  1.00  0.00     0.000 C
HETATM   35  C20 UNL     1      19.272  68.608  44.041  1.00  0.00     0.001 C
HETATM   36  C21 UNL     1      19.410  67.322  44.814  1.00  0.00     0.010 C
ENDBRANCH   9  31
TORSDOF 14
ENDMDL