MODEL 3
REMARK VINA RESULT: -6.915236019      3.051      7.597
REMARK  15 active torsions:
REMARK  status: ('A' for Active; 'I' for Inactive)
REMARK    1  A    between atoms: C2_2  and  S1_3
REMARK    2  A    between atoms: S1_3  and  C3_4
REMARK    3  A    between atoms: C4_6  and  S2_7
REMARK    4  A    between atoms: S2_7  and  C5_8
REMARK    5  A    between atoms: C5_8  and  C6_9
REMARK    6  A    between atoms: C7_10  and  O2_11
REMARK    7  A    between atoms: C7_10  and  C13_22
REMARK    8  A    between atoms: O2_11  and  C8_12
REMARK    9  A    between atoms: C10_14  and  O3_15
REMARK   10  A    between atoms: C11_17  and  C12_18
REMARK   11  A    between atoms: C12_18  and  O4_19
REMARK   12  A    between atoms: C13_22  and  C15_24
REMARK   13  A    between atoms: C17_26  and  O6_27
REMARK   14  A    between atoms: C18_29  and  O7_30
REMARK   15  A    between atoms: C19_32  and  O8_33
ROOT
HETATM    1  C5  UNL     1      21.184  63.486  41.476  1.00  0.00     0.106 C
ENDROOT
BRANCH   1   2
HETATM    2  S2  UNL     1      22.302  62.105  41.109  1.00  0.00    -0.131 SA
BRANCH   2   3
HETATM    3  C4  UNL     1      24.045  62.674  41.248  1.00  0.00     0.216 C
HETATM    4  O1  UNL     1      24.460  62.402  42.494  1.00  0.00    -0.355 OA
HETATM    5  C3  UNL     1      24.603  63.419  43.402  1.00  0.00     0.215 C
HETATM    6  C19 UNL     1      25.102  64.704  42.882  1.00  0.00     0.188 C
HETATM    7  C18 UNL     1      25.292  64.735  41.383  1.00  0.00     0.182 C
HETATM    8  C17 UNL     1      24.032  64.114  40.818  1.00  0.00     0.188 C
BRANCH   5   9
HETATM    9  S1  UNL     1      25.496  62.922  44.891  1.00  0.00    -0.135 SA
BRANCH   9  10
HETATM   10  C2  UNL     1      27.008  62.032  44.599  1.00  0.00     0.072 C
HETATM   11  C1  UNL     1      28.058  62.762  43.825  1.00  0.00     0.016 C
ENDBRANCH   9  10
ENDBRANCH   5   9
BRANCH   6  12
HETATM   12  O8  UNL     1      24.216  65.771  43.167  1.00  0.00    -0.389 OA
ATOM     13  H8  UNL     1      24.510  66.590  42.784  1.00  0.00     0.210 HD
ENDBRANCH   6  12
BRANCH   7  14
HETATM   14  O7  UNL     1      25.345  66.058  40.994  1.00  0.00    -0.390 OA
ATOM     15  H7  UNL     1      25.960  66.139  40.274  1.00  0.00     0.210 HD
ENDBRANCH   7  14
BRANCH   8  16
HETATM   16  O6  UNL     1      23.975  64.215  39.432  1.00  0.00    -0.389 OA
ATOM     17  H6  UNL     1      23.309  64.838  39.166  1.00  0.00     0.210 HD
ENDBRANCH   8  16
ENDBRANCH   2   3
ENDBRANCH   1   2
BRANCH   1  18
HETATM   18  C6  UNL     1      20.653  63.452  42.837  1.00  0.00     0.016 C
HETATM   19  C7  UNL     1      19.587  62.887  43.304  1.00  0.00     0.050 C
BRANCH  19  20
HETATM   20  O2  UNL     1      19.260  62.978  44.655  1.00  0.00    -0.325 OA
BRANCH  20  21
HETATM   21  C8  UNL     1      19.724  63.979  45.516  1.00  0.00     0.269 C
HETATM   22  C9  UNL     1      20.725  63.520  46.508  1.00  0.00     0.095 C
HETATM   23  C10 UNL     1      20.222  64.018  47.819  1.00  0.00     0.154 C
HETATM   24  C11 UNL     1      19.032  64.837  47.466  1.00  0.00     0.177 C
HETATM   25  O5  UNL     1      18.652  64.542  46.180  1.00  0.00    -0.351 OA
BRANCH  23  26
HETATM   26  O3  UNL     1      19.928  62.989  48.712  1.00  0.00    -0.393 OA
ATOM     27  H3  UNL     1      20.699  62.506  48.986  1.00  0.00     0.210 HD
ENDBRANCH  23  26
BRANCH  24  28
HETATM   28  C12 UNL     1      19.286  66.330  47.660  1.00  0.00     0.198 C
BRANCH  28  29
HETATM   29  O4  UNL     1      18.976  66.666  48.982  1.00  0.00    -0.398 OA
ATOM     30  H4  UNL     1      18.044  66.843  49.038  1.00  0.00     0.209 HD
ENDBRANCH  28  29
ENDBRANCH  24  28
ENDBRANCH  20  21
ENDBRANCH  19  20
BRANCH  19  31
HETATM   31  C13 UNL     1      18.666  62.124  42.444  1.00  0.00     0.038 C
HETATM   32  C14 UNL     1      17.885  61.086  43.244  1.00  0.00     0.017 C
BRANCH  31  33
HETATM   33  C15 UNL     1      17.714  63.045  41.687  1.00  0.00     0.006 C
HETATM   34  C16 UNL     1      17.791  62.908  40.209  1.00  0.00     0.006 C
ENDBRANCH  31  33
ENDBRANCH  19  31
ENDBRANCH   1  18
TORSDOF 15
ENDMDL