MODEL 1
REMARK VINA RESULT: -7.478492445      0.000      0.000
REMARK  14 active torsions:
REMARK  status: ('A' for Active; 'I' for Inactive)
REMARK    1  A    between atoms: C2_2  and  C3_3
REMARK    2  A    between atoms: C3_3  and  C4_4
REMARK    3  A    between atoms: C4_4  and  N1_5
REMARK    4  A    between atoms: N1_5  and  C5_8
REMARK    5  A    between atoms: C7_11  and  C9_13
REMARK    6  A    between atoms: C9_13  and  C10_14
REMARK    7  A    between atoms: C10_14  and  C11_15
REMARK    8  A    between atoms: C13_19  and  O4_20
REMARK    9  A    between atoms: O4_20  and  C14_21
REMARK   10  A    between atoms: C15_23  and  S1_24
REMARK   11  A    between atoms: C17_26  and  O6_27
REMARK   12  A    between atoms: C18_29  and  O7_30
REMARK   13  A    between atoms: C19_32  and  O8_33
REMARK   14  A    between atoms: C20_35  and  O9_36
ROOT
HETATM    1  C5  UNL     1      24.472  64.364  47.037  1.00  0.00     0.354 C
HETATM    2  O1  UNL     1      23.996  65.630  47.313  1.00  0.00    -0.354 OA
HETATM    3  C6  UNL     1      24.318  66.439  46.207  1.00  0.00     0.208 C
HETATM    4  C7  UNL     1      23.008  66.682  45.496  1.00  0.00     0.082 C
HETATM    5  C8  UNL     1      23.274  67.346  44.163  1.00  0.00     0.048 C
HETATM    6  O3  UNL     1      22.352  65.462  45.345  1.00  0.00    -0.346 OA
HETATM    7  C13 UNL     1      23.139  64.433  44.879  1.00  0.00     0.297 C
HETATM    8  C20 UNL     1      23.793  63.619  45.964  1.00  0.00     0.229 C
ENDROOT
BRANCH   7   9
HETATM    9  O4  UNL     1      22.228  63.542  44.260  1.00  0.00    -0.326 OA
BRANCH   9  10
HETATM   10  C14 UNL     1      22.143  63.771  42.870  1.00  0.00     0.295 C
HETATM   11  O5  UNL     1      20.840  63.587  42.566  1.00  0.00    -0.340 OA
HETATM   12  C15 UNL     1      20.437  62.890  41.497  1.00  0.00     0.217 C
HETATM   13  C17 UNL     1      21.520  62.537  40.502  1.00  0.00     0.188 C
HETATM   14  C18 UNL     1      22.671  61.898  41.248  1.00  0.00     0.183 C
HETATM   15  C19 UNL     1      23.163  62.900  42.235  1.00  0.00     0.204 C
BRANCH  12  16
HETATM   16  S1  UNL     1      19.817  61.273  42.118  1.00  0.00    -0.139 SA
HETATM   17  C16 UNL     1      19.503  61.315  43.880  1.00  0.00     0.092 C
ENDBRANCH  12  16
BRANCH  13  18
HETATM   18  O6  UNL     1      21.067  61.611  39.569  1.00  0.00    -0.389 OA
ATOM     19  H6  UNL     1      20.321  61.947  39.086  1.00  0.00     0.210 HD
ENDBRANCH  13  18
BRANCH  14  20
HETATM   20  O7  UNL     1      23.643  61.544  40.333  1.00  0.00    -0.390 OA
ATOM     21  H7  UNL     1      24.478  61.495  40.784  1.00  0.00     0.210 HD
ENDBRANCH  14  20
BRANCH  15  22
HETATM   22  O8  UNL     1      24.165  63.658  41.575  1.00  0.00    -0.388 OA
ATOM     23  H8  UNL     1      24.138  63.532  40.634  1.00  0.00     0.210 HD
ENDBRANCH  15  22
ENDBRANCH   9  10
ENDBRANCH   7   9
BRANCH   8  24
HETATM   24  O9  UNL     1      22.783  62.817  46.541  1.00  0.00    -0.386 OA
ATOM     25  H9  UNL     1      22.203  62.517  45.851  1.00  0.00     0.210 HD
ENDBRANCH   8  24
BRANCH   4  26
HETATM   26  C9  UNL     1      22.125  67.528  46.373  1.00  0.00     0.047 C
BRANCH  26  27
HETATM   27  C10 UNL     1      21.246  68.491  45.654  1.00  0.00     0.081 C
BRANCH  27  28
HETATM   28  C11 UNL     1      19.841  67.945  45.592  1.00  0.00     0.123 C
HETATM   29  C12 UNL     1      19.021  68.110  44.363  1.00  0.00     0.091 C
HETATM   30  O2  UNL     1      19.342  67.359  46.531  1.00  0.00    -0.298 OA
ENDBRANCH  27  28
ENDBRANCH  26  27
ENDBRANCH   4  26
BRANCH   1  31
HETATM   31  N1  UNL     1      24.398  63.606  48.275  1.00  0.00    -0.046 N
ATOM     32  H12 UNL     1      25.255  63.075  48.431  1.00  0.00     0.280 HD
ATOM     33  H11 UNL     1      23.739  62.832  48.193  1.00  0.00     0.280 HD
BRANCH  31  34
HETATM   34  C4  UNL     1      24.088  64.430  49.409  1.00  0.00     0.235 C
BRANCH  34  35
HETATM   35  C3  UNL     1      22.890  63.982  50.171  1.00  0.00     0.027 C
BRANCH  35  36
HETATM   36  C2  UNL     1      21.639  64.472  49.487  1.00  0.00    -0.003 C
HETATM   37  C1  UNL     1      20.602  63.390  49.554  1.00  0.00     0.005 C
ENDBRANCH  35  36
ENDBRANCH  34  35
ENDBRANCH  31  34
ENDBRANCH   1  31
TORSDOF 14
ENDMDL