MODEL 5
REMARK VINA RESULT: -7.453851247      4.413      7.785
REMARK  13 active torsions:
REMARK  status: ('A' for Active; 'I' for Inactive)
REMARK    1  A    between atoms: C2_2  and  C3_3
REMARK    2  A    between atoms: C3_3  and  C4_4
REMARK    3  A    between atoms: C4_4  and  C5_5
REMARK    4  A    between atoms: C5_5  and  C6_6
REMARK    5  A    between atoms: C6_6  and  C7_7
REMARK    6  A    between atoms: C7_7  and  S1_8
REMARK    7  A    between atoms: S1_8  and  C8_9
REMARK    8  A    between atoms: N2_12  and  C9_13
REMARK    9  A    between atoms: C10_16  and  C11_17
REMARK   10  A    between atoms: C11_17  and  O2_18
REMARK   11  A    between atoms: C13_24  and  N5_25
REMARK   12  A    between atoms: C14_30  and  N7_31
REMARK   13  A    between atoms: N7_31  and  C15_32
ROOT
HETATM    1  C8  UNL     1      24.574  65.332  46.002  1.00  0.00     0.103 A
HETATM    2  N1  UNL     1      25.292  65.708  47.091  1.00  0.00    -0.285 N
ATOM      3  H1  UNL     1      24.923  66.244  47.878  1.00  0.00     0.188 HD
HETATM    4  N2  UNL     1      26.528  65.285  46.989  1.00  0.00    -0.219 N
HETATM    5  C12 UNL     1      26.687  64.608  45.829  1.00  0.00     0.160 A
HETATM    6  N4  UNL     1      27.721  63.985  45.241  1.00  0.00    -0.174 N
ATOM      7  H4  UNL     1      28.631  63.962  45.700  1.00  0.00     0.186 HD
HETATM    8  C13 UNL     1      27.555  63.389  44.042  1.00  0.00     0.679 A
HETATM    9  N6  UNL     1      26.398  63.389  43.407  1.00  0.00    -0.164 N
ATOM     10  H6  UNL     1      26.320  62.925  42.502  1.00  0.00     0.187 HD
HETATM   11  C14 UNL     1      25.278  64.017  43.959  1.00  0.00     0.207 A
HETATM   12  C19 UNL     1      25.451  64.634  45.196  1.00  0.00     0.103 A
ENDROOT
BRANCH   1  13
HETATM   13  S1  UNL     1      22.857  65.703  45.737  1.00  0.00    -0.110 SA
BRANCH  13  14
HETATM   14  C7  UNL     1      22.172  66.737  47.017  1.00  0.00     0.081 C
BRANCH  14  15
HETATM   15  C6  UNL     1      20.718  67.054  46.891  1.00  0.00     0.010 C
BRANCH  15  16
HETATM   16  C5  UNL     1      20.442  68.546  46.952  1.00  0.00     0.001 C
BRANCH  16  17
HETATM   17  C4  UNL     1      20.919  69.267  45.745  1.00  0.00     0.004 C
BRANCH  17  18
HETATM   18  C3  UNL     1      20.178  69.055  44.482  1.00  0.00     0.026 C
BRANCH  18  19
HETATM   19  C2  UNL     1      20.066  70.171  43.555  1.00  0.00    -0.037 C
HETATM   20  C1  UNL     1      20.146  70.100  42.257  1.00  0.00     0.007 C
ENDBRANCH  18  19
ENDBRANCH  17  18
ENDBRANCH  16  17
ENDBRANCH  15  16
ENDBRANCH  14  15
ENDBRANCH  13  14
ENDBRANCH   1  13
BRANCH   4  21
HETATM   21  C9  UNL     1      27.555  65.517  47.991  1.00  0.00     0.418 C
HETATM   22  O1  UNL     1      28.547  64.538  47.863  1.00  0.00    -0.229 OA
HETATM   23  N3  UNL     1      28.897  64.192  49.123  1.00  0.00    -0.061 NA
HETATM   24  C10 UNL     1      27.625  64.293  49.815  1.00  0.00     0.270 C
HETATM   25  O3  UNL     1      27.111  65.473  49.285  1.00  0.00    -0.315 OA
BRANCH  24  26
HETATM   26  C11 UNL     1      27.956  64.478  51.290  1.00  0.00     0.215 C
BRANCH  26  27
HETATM   27  O2  UNL     1      27.356  63.536  52.086  1.00  0.00    -0.397 OA
ATOM     28  H2  UNL     1      26.479  63.787  52.350  1.00  0.00     0.209 HD
ENDBRANCH  26  27
ENDBRANCH  24  26
ENDBRANCH   4  21
BRANCH  11  29
HETATM   29  N7  UNL     1      24.234  64.016  43.388  1.00  0.00    -0.397 NA
BRANCH  29  30
HETATM   30  C15 UNL     1      23.054  64.012  42.744  1.00  0.00     0.302 C
HETATM   31  C16 UNL     1      23.278  64.102  41.221  1.00  0.00     0.070 C
HETATM   32  C17 UNL     1      23.596  62.620  40.976  1.00  0.00     0.032 C
HETATM   33  C18 UNL     1      22.433  62.047  41.804  1.00  0.00     0.171 C
HETATM   34  O4  UNL     1      22.361  62.816  42.928  1.00  0.00    -0.355 OA
ENDBRANCH  29  30
ENDBRANCH  11  29
BRANCH   8  35
HETATM   35  N5  UNL     1      28.573  62.806  43.515  1.00  0.00    -0.234 N
ATOM     36  H52 UNL     1      28.588  61.790  43.430  1.00  0.00     0.174 HD
ATOM     37  H51 UNL     1      29.343  63.393  43.193  1.00  0.00     0.174 HD
ENDBRANCH   8  35
TORSDOF 13
ENDMDL