MODEL 1
REMARK VINA RESULT: -8.174183561      0.000      0.000
REMARK  14 active torsions:
REMARK  status: ('A' for Active; 'I' for Inactive)
REMARK    1  A    between atoms: C2_2  and  C3_3
REMARK       I    between atoms: C3_3  and  N1_5
REMARK    2  A    between atoms: N1_5  and  O2_6
REMARK    3  A    between atoms: N1_5  and  C4_8
REMARK    4  A    between atoms: C9_13  and  O3_15
REMARK    5  A    between atoms: O3_15  and  C11_16
REMARK    6  A    between atoms: C12_18  and  C13_19
REMARK    7  A    between atoms: C13_19  and  O5_20
REMARK    8  A    between atoms: C14_22  and  O6_23
REMARK    9  A    between atoms: C15_25  and  O7_26
REMARK   10  A    between atoms: C16_28  and  O8_29
REMARK   11  A    between atoms: C17_32  and  O10_33
REMARK   12  A    between atoms: O10_33  and  C18_34
REMARK   13  A    between atoms: C18_34  and  C19_35
REMARK   14  A    between atoms: C19_35  and  C20_36
ROOT
HETATM    1  C4  UNL     1      20.794  65.227  47.472  1.00  0.00     0.202 C
HETATM    2  C5  UNL     1      20.958  63.757  47.404  1.00  0.00    -0.050 C
HETATM    3  C6  UNL     1      20.428  62.962  48.316  1.00  0.00     0.017 C
HETATM    4  C7  UNL     1      21.727  63.083  46.308  1.00  0.00     0.074 C
HETATM    5  C8  UNL     1      21.005  61.806  45.895  1.00  0.00     0.020 C
HETATM    6  C9  UNL     1      22.038  63.954  45.139  1.00  0.00     0.173 C
HETATM    7  C10 UNL     1      20.991  63.783  44.022  1.00  0.00     0.080 C
HETATM    8  O9  UNL     1      22.174  65.252  45.510  1.00  0.00    -0.322 OA
HETATM    9  C17 UNL     1      21.117  65.868  46.120  1.00  0.00     0.292 C
ENDROOT
BRANCH   6  10
HETATM   10  O3  UNL     1      23.220  63.493  44.571  1.00  0.00    -0.322 OA
BRANCH  10  11
HETATM   11  C11 UNL     1      24.375  64.052  44.992  1.00  0.00     0.295 C
HETATM   12  O4  UNL     1      25.137  63.032  45.602  1.00  0.00    -0.348 OA
HETATM   13  C12 UNL     1      26.452  63.043  45.194  1.00  0.00     0.179 C
HETATM   14  C14 UNL     1      26.604  62.650  43.734  1.00  0.00     0.180 C
HETATM   15  C15 UNL     1      25.526  63.350  42.930  1.00  0.00     0.183 C
HETATM   16  C16 UNL     1      25.111  64.563  43.746  1.00  0.00     0.204 C
BRANCH  13  17
HETATM   17  C13 UNL     1      27.187  62.001  46.009  1.00  0.00     0.198 C
BRANCH  17  18
HETATM   18  O5  UNL     1      27.357  60.831  45.264  1.00  0.00    -0.398 OA
ATOM     19  H5  UNL     1      27.043  60.079  45.753  1.00  0.00     0.209 HD
ENDBRANCH  17  18
ENDBRANCH  13  17
BRANCH  14  20
HETATM   20  O6  UNL     1      27.876  63.066  43.344  1.00  0.00    -0.390 OA
ATOM     21  H6  UNL     1      27.784  63.429  42.471  1.00  0.00     0.210 HD
ENDBRANCH  14  20
BRANCH  15  22
HETATM   22  O7  UNL     1      24.467  62.472  42.803  1.00  0.00    -0.390 OA
ATOM     23  H7  UNL     1      24.515  61.859  43.528  1.00  0.00     0.210 HD
ENDBRANCH  15  22
BRANCH  16  24
HETATM   24  O8  UNL     1      24.162  65.244  42.979  1.00  0.00    -0.388 OA
ATOM     25  H8  UNL     1      23.560  64.586  42.652  1.00  0.00     0.210 HD
ENDBRANCH  16  24
ENDBRANCH  10  11
ENDBRANCH   6  10
BRANCH   9  26
HETATM   26  O10 UNL     1      21.536  67.193  46.371  1.00  0.00    -0.359 OA
BRANCH  26  27
HETATM   27  C18 UNL     1      21.234  68.030  45.305  1.00  0.00     0.171 C
BRANCH  27  28
HETATM   28  C19 UNL     1      19.732  68.114  45.139  1.00  0.00     0.026 C
BRANCH  28  29
HETATM   29  C20 UNL     1      19.337  68.661  43.799  1.00  0.00    -0.002 C
HETATM   30  C21 UNL     1      20.109  69.949  43.588  1.00  0.00     0.005 C
ENDBRANCH  28  29
ENDBRANCH  27  28
ENDBRANCH  26  27
ENDBRANCH   9  26
BRANCH   1  31
HETATM   31  N1  UNL     1      19.519  65.658  48.007  1.00  0.00    -0.211 N
HETATM   32  C3  UNL     1      18.296  65.526  47.337  1.00  0.00     0.266 C
HETATM   33  O1  UNL     1      18.388  64.954  46.181  1.00  0.00    -0.266 OA
BRANCH  32  34
HETATM   34  C2  UNL     1      16.974  65.923  47.729  1.00  0.00     0.066 C
HETATM   35  C1  UNL     1      15.825  65.505  47.258  1.00  0.00     0.017 C
ENDBRANCH  32  34
BRANCH  31  36
HETATM   36  O2  UNL     1      19.504  66.240  49.240  1.00  0.00    -0.284 OA
ATOM     37  H2  UNL     1      19.458  67.188  49.279  1.00  0.00     0.245 HD
ENDBRANCH  31  36
ENDBRANCH   1  31
TORSDOF 14
ENDMDL