MODEL 5
REMARK VINA RESULT: -8.228784050      4.107      6.633
REMARK  14 active torsions:
REMARK  status: ('A' for Active; 'I' for Inactive)
REMARK    1  A    between atoms: C2_2  and  C4_4
REMARK    2  A    between atoms: C4_4  and  C5_5
REMARK    3  A    between atoms: C5_5  and  C6_6
REMARK    4  A    between atoms: C6_6  and  O1_7
REMARK    5  A    between atoms: C6_6  and  C19_30
REMARK    6  A    between atoms: O1_7  and  C7_8
REMARK    7  A    between atoms: C7_8  and  C8_9
REMARK    8  A    between atoms: C10_12  and  O3_13
REMARK    9  A    between atoms: O3_13  and  C11_14
REMARK   10  A    between atoms: C15_18  and  O4_19
REMARK   11  A    between atoms: C16_21  and  O5_22
REMARK   12  A    between atoms: C17_24  and  O6_25
REMARK   13  A    between atoms: C18_27  and  O7_28
REMARK   14  A    between atoms: C21_32  and  O8_33
ROOT
HETATM    1  C8  UNL     1      24.875  63.888  44.100  1.00  0.00     0.176 C
HETATM    2  O2  UNL     1      25.023  63.774  45.459  1.00  0.00    -0.378 OA
HETATM    3  C9  UNL     1      26.126  64.329  46.031  1.00  0.00     0.203 C
HETATM    4  C10 UNL     1      27.384  63.472  45.830  1.00  0.00     0.177 C
HETATM    5  C16 UNL     1      26.885  62.157  45.260  1.00  0.00     0.180 C
HETATM    6  C17 UNL     1      26.793  62.291  43.782  1.00  0.00     0.180 C
HETATM    7  C18 UNL     1      26.066  63.498  43.279  1.00  0.00     0.180 C
ENDROOT
BRANCH   1   8
HETATM    8  C7  UNL     1      24.377  65.228  43.656  1.00  0.00     0.203 C
BRANCH   8   9
HETATM    9  O1  UNL     1      23.160  65.612  44.195  1.00  0.00    -0.377 OA
BRANCH   9  10
HETATM   10  C6  UNL     1      23.210  66.477  45.247  1.00  0.00     0.172 C
BRANCH  10  11
HETATM   11  C5  UNL     1      22.481  67.771  44.940  1.00  0.00     0.039 C
BRANCH  11  12
HETATM   12  C4  UNL     1      21.117  67.501  44.341  1.00  0.00     0.007 C
BRANCH  12  13
HETATM   13  C2  UNL     1      20.037  68.164  45.165  1.00  0.00    -0.023 C
HETATM   14  C1  UNL     1      20.571  69.015  46.272  1.00  0.00     0.009 C
HETATM   15  C3  UNL     1      19.076  67.143  45.752  1.00  0.00     0.009 C
ENDBRANCH  12  13
ENDBRANCH  11  12
ENDBRANCH  10  11
BRANCH  10  16
HETATM   16  C19 UNL     1      22.602  65.808  46.448  1.00  0.00     0.059 A
HETATM   17  C20 UNL     1      22.626  66.308  47.731  1.00  0.00     0.086 A
HETATM   18  C21 UNL     1      21.964  65.398  48.524  1.00  0.00     0.158 A
HETATM   19  N1  UNL     1      21.560  64.389  47.731  1.00  0.00    -0.276 N
HETATM   20  C22 UNL     1      20.821  63.245  48.248  1.00  0.00     0.180 C
HETATM   21  N2  UNL     1      21.942  64.644  46.507  1.00  0.00    -0.298 N
ATOM     22  H2  UNL     1      21.764  64.038  45.706  1.00  0.00     0.187 HD
BRANCH  18  23
HETATM   23  O8  UNL     1      21.751  65.499  49.889  1.00  0.00    -0.345 OA
ATOM     24  H8  UNL     1      21.025  65.127  50.376  1.00  0.00     0.219 HD
ENDBRANCH  18  23
ENDBRANCH  10  16
ENDBRANCH   9  10
ENDBRANCH   8   9
ENDBRANCH   1   8
BRANCH   7  25
HETATM   25  O7  UNL     1      26.938  64.522  42.972  1.00  0.00    -0.390 OA
ATOM     26  H7  UNL     1      27.862  64.304  43.026  1.00  0.00     0.210 HD
ENDBRANCH   7  25
BRANCH   6  27
HETATM   27  O6  UNL     1      28.097  62.335  43.238  1.00  0.00    -0.390 OA
ATOM     28  H6  UNL     1      28.065  62.056  42.331  1.00  0.00     0.210 HD
ENDBRANCH   6  27
BRANCH   4  29
HETATM   29  O3  UNL     1      28.089  63.313  46.995  1.00  0.00    -0.373 OA
BRANCH  29  30
HETATM   30  C11 UNL     1      27.460  63.956  48.045  1.00  0.00     0.151 C
HETATM   31  C12 UNL     1      28.365  64.893  48.793  1.00  0.00     0.034 C
HETATM   32  C13 UNL     1      27.548  65.168  50.053  1.00  0.00     0.005 C
HETATM   33  C14 UNL     1      26.811  63.898  50.328  1.00  0.00     0.034 C
HETATM   34  C15 UNL     1      27.078  62.966  49.151  1.00  0.00     0.147 C
BRANCH  34  35
HETATM   35  O4  UNL     1      28.182  62.205  49.487  1.00  0.00    -0.393 OA
ATOM     36  H4  UNL     1      28.246  62.143  50.433  1.00  0.00     0.210 HD
ENDBRANCH  34  35
ENDBRANCH  29  30
ENDBRANCH   4  29
BRANCH   5  37
HETATM   37  O5  UNL     1      27.775  61.120  45.545  1.00  0.00    -0.390 OA
ATOM     38  H5  UNL     1      27.497  60.311  45.132  1.00  0.00     0.210 HD
ENDBRANCH   5  37
TORSDOF 14
ENDMDL