MODEL 1
REMARK VINA RESULT: -8.039501472      0.000      0.000
REMARK  13 active torsions:
REMARK  status: ('A' for Active; 'I' for Inactive)
REMARK    1  A    between atoms: C2_2  and  O1_3
REMARK    2  A    between atoms: O1_3  and  C3_4
REMARK    3  A    between atoms: C4_5  and  C5_6
REMARK    4  A    between atoms: C5_6  and  O2_7
REMARK    5  A    between atoms: O2_7  and  C6_8
REMARK    6  A    between atoms: C13_15  and  O3_16
REMARK    7  A    between atoms: O3_16  and  C14_17
REMARK    8  A    between atoms: C16_20  and  O5_21
REMARK    9  A    between atoms: C17_23  and  O6_24
REMARK   10  A    between atoms: C18_26  and  O7_27
REMARK   11  A    between atoms: C19_29  and  O8_30
REMARK   12  A    between atoms: C20_32  and  O9_33
REMARK   13  A    between atoms: C21_35  and  O10_36
ROOT
HETATM    1  C3  UNL     1      19.998  64.462  46.929  1.00  0.00     0.113 A
HETATM    2  C4  UNL     1      20.246  64.419  45.576  1.00  0.00     0.004 A
HETATM    3  C12 UNL     1      21.543  64.386  45.102  1.00  0.00     0.052 A
HETATM    4  C13 UNL     1      22.652  64.395  45.960  1.00  0.00     0.106 A
HETATM    5  C20 UNL     1      22.360  64.439  47.297  1.00  0.00     0.135 A
HETATM    6  C21 UNL     1      21.083  64.472  47.804  1.00  0.00     0.138 A
ENDROOT
BRANCH   4   7
HETATM    7  O3  UNL     1      23.863  64.361  45.393  1.00  0.00    -0.338 OA
BRANCH   7   8
HETATM    8  C14 UNL     1      24.615  63.456  44.706  1.00  0.00     0.184 C
HETATM    9  C15 UNL     1      25.769  64.256  44.069  1.00  0.00     0.206 C
HETATM   10  O4  UNL     1      26.364  63.569  43.044  1.00  0.00    -0.356 OA
HETATM   11  C16 UNL     1      27.635  63.138  43.357  1.00  0.00     0.288 C
HETATM   12  C17 UNL     1      27.557  62.416  44.694  1.00  0.00     0.204 C
HETATM   13  C18 UNL     1      26.261  61.636  44.828  1.00  0.00     0.183 C
HETATM   14  C19 UNL     1      25.235  62.386  45.630  1.00  0.00     0.181 C
BRANCH  11  15
HETATM   15  O5  UNL     1      28.559  64.152  43.497  1.00  0.00    -0.369 OA
ATOM     16  H5  UNL     1      29.135  64.055  44.246  1.00  0.00     0.212 HD
ENDBRANCH  11  15
BRANCH  12  17
HETATM   17  O6  UNL     1      28.611  61.506  44.716  1.00  0.00    -0.388 OA
ATOM     18  H6  UNL     1      29.118  61.660  43.928  1.00  0.00     0.210 HD
ENDBRANCH  12  17
BRANCH  13  19
HETATM   19  O7  UNL     1      26.536  60.375  45.343  1.00  0.00    -0.390 OA
ATOM     20  H7  UNL     1      25.891  59.758  45.019  1.00  0.00     0.210 HD
ENDBRANCH  13  19
BRANCH  14  21
HETATM   21  O8  UNL     1      25.727  62.941  46.786  1.00  0.00    -0.390 OA
ATOM     22  H8  UNL     1      25.897  62.280  47.446  1.00  0.00     0.210 HD
ENDBRANCH  14  21
ENDBRANCH   7   8
ENDBRANCH   4   7
BRANCH   5  23
HETATM   23  O9  UNL     1      23.396  64.450  48.204  1.00  0.00    -0.356 OA
ATOM     24  H9  UNL     1      23.193  64.488  49.131  1.00  0.00     0.218 HD
ENDBRANCH   5  23
BRANCH   2  25
HETATM   25  C5  UNL     1      19.074  64.402  44.658  1.00  0.00     0.210 C
BRANCH  25  26
HETATM   26  O2  UNL     1      18.856  63.101  44.195  1.00  0.00    -0.381 OA
BRANCH  26  27
HETATM   27  C6  UNL     1      18.503  63.109  42.865  1.00  0.00     0.121 C
HETATM   28  C7  UNL     1      19.652  63.411  41.946  1.00  0.00     0.032 C
HETATM   29  C8  UNL     1      19.070  63.616  40.555  1.00  0.00     0.002 C
HETATM   30  C9  UNL     1      18.106  62.543  40.170  1.00  0.00     0.000 C
HETATM   31  C10 UNL     1      18.328  61.353  41.094  1.00  0.00     0.002 C
HETATM   32  C11 UNL     1      17.966  61.739  42.509  1.00  0.00     0.032 C
ENDBRANCH  26  27
ENDBRANCH  25  26
ENDBRANCH   2  25
BRANCH   6  33
HETATM   33  O10 UNL     1      20.874  64.515  49.181  1.00  0.00    -0.351 OA
HETATM   34  C22 UNL     1      20.628  63.397  49.978  1.00  0.00     0.210 C
ENDBRANCH   6  33
BRANCH   1  35
HETATM   35  O1  UNL     1      18.733  64.497  47.481  1.00  0.00    -0.348 OA
BRANCH  35  36
HETATM   36  C2  UNL     1      18.124  65.732  47.783  1.00  0.00     0.171 C
HETATM   37  C1  UNL     1      16.664  65.609  47.342  1.00  0.00     0.034 C
ENDBRANCH  35  36
ENDBRANCH   1  35
TORSDOF 13
ENDMDL