MODEL 1
REMARK VINA RESULT: -7.134380995      0.000      0.000
REMARK  13 active torsions:
REMARK  status: ('A' for Active; 'I' for Inactive)
REMARK    1  A    between atoms: O1_1  and  C1_3
REMARK    2  A    between atoms: C1_3  and  C2_4
REMARK    3  A    between atoms: C3_6  and  O3_7
REMARK    4  A    between atoms: O3_7  and  C4_8
REMARK    5  A    between atoms: C4_8  and  C5_9
REMARK    6  A    between atoms: C9_16  and  S1_17
REMARK    7  A    between atoms: S1_17  and  C10_18
REMARK    8  A    between atoms: C10_18  and  C11_19
REMARK    9  A    between atoms: C12_20  and  C13_21
REMARK   10  A    between atoms: C13_21  and  C14_22
REMARK   11  A    between atoms: C16_25  and  O7_26
REMARK   12  A    between atoms: C17_28  and  O8_29
REMARK   13  A    between atoms: C18_31  and  O9_32
ROOT
HETATM    1  C4  UNL     1      24.473  64.499  46.693  1.00  0.00     0.203 C
ENDROOT
BRANCH   1   2
HETATM    2  O3  UNL     1      25.295  64.352  47.740  1.00  0.00    -0.356 OA
BRANCH   2   3
HETATM    3  C3  UNL     1      25.883  63.233  48.140  1.00  0.00     0.291 C
HETATM    4  O2  UNL     1      27.197  63.227  47.667  1.00  0.00    -0.348 OA
HETATM    5  C2  UNL     1      28.082  63.984  48.364  1.00  0.00     0.179 C
HETATM    6  C18 UNL     1      28.181  63.632  49.842  1.00  0.00     0.180 C
HETATM    7  C17 UNL     1      26.784  63.850  50.403  1.00  0.00     0.183 C
HETATM    8  C16 UNL     1      25.841  62.991  49.641  1.00  0.00     0.204 C
BRANCH   5   9
HETATM    9  C1  UNL     1      27.931  65.472  48.243  1.00  0.00     0.198 C
BRANCH   9  10
HETATM   10  O1  UNL     1      27.978  65.764  46.858  1.00  0.00    -0.398 OA
ATOM     11  H1  UNL     1      28.767  66.275  46.722  1.00  0.00     0.209 HD
ENDBRANCH   9  10
ENDBRANCH   5   9
BRANCH   6  12
HETATM   12  O9  UNL     1      28.561  62.320  49.989  1.00  0.00    -0.390 OA
ATOM     13  H9  UNL     1      27.920  61.853  50.513  1.00  0.00     0.210 HD
ENDBRANCH   6  12
BRANCH   7  14
HETATM   14  O8  UNL     1      26.784  63.404  51.731  1.00  0.00    -0.390 OA
ATOM     15  H8  UNL     1      26.600  62.472  51.722  1.00  0.00     0.210 HD
ENDBRANCH   7  14
BRANCH   8  16
HETATM   16  O7  UNL     1      24.557  63.215  50.096  1.00  0.00    -0.388 OA
ATOM     17  H7  UNL     1      24.598  63.709  50.906  1.00  0.00     0.210 HD
ENDBRANCH   8  16
ENDBRANCH   2   3
ENDBRANCH   1   2
BRANCH   1  18
HETATM   18  C5  UNL     1      24.851  65.408  45.583  1.00  0.00     0.155 C
HETATM   19  O4  UNL     1      25.964  64.889  44.921  1.00  0.00    -0.381 OA
HETATM   20  C6  UNL     1      25.507  64.038  43.916  1.00  0.00     0.200 C
HETATM   21  C7  UNL     1      24.080  64.362  43.629  1.00  0.00     0.158 C
HETATM   22  O5  UNL     1      23.160  63.396  43.985  1.00  0.00    -0.359 OA
HETATM   23  C15 UNL     1      23.883  65.599  44.479  1.00  0.00     0.087 C
HETATM   24  C8  UNL     1      21.904  63.898  43.674  1.00  0.00     0.339 C
HETATM   25  O6  UNL     1      21.547  64.929  44.488  1.00  0.00    -0.351 OA
HETATM   26  C9  UNL     1      22.465  65.868  44.815  1.00  0.00     0.194 C
BRANCH  26  27
HETATM   27  S1  UNL     1      22.000  67.515  44.261  1.00  0.00    -0.133 SA
BRANCH  27  28
HETATM   28  C10 UNL     1      20.806  68.372  45.238  1.00  0.00     0.103 C
BRANCH  28  29
HETATM   29  C11 UNL     1      19.598  67.601  45.527  1.00  0.00    -0.021 C
HETATM   30  C12 UNL     1      18.713  67.099  44.716  1.00  0.00    -0.029 C
BRANCH  30  31
HETATM   31  C13 UNL     1      17.522  66.332  45.179  1.00  0.00     0.038 C
BRANCH  31  32
HETATM   32  C14 UNL     1      17.672  65.759  46.548  1.00  0.00     0.090 C
HETATM   33  S2  UNL     1      15.986  65.491  47.220  1.00  0.00    -0.097 SA
ENDBRANCH  31  32
ENDBRANCH  30  31
ENDBRANCH  28  29
ENDBRANCH  27  28
ENDBRANCH  26  27
ENDBRANCH   1  18
TORSDOF 13
ENDMDL