MODEL 4
REMARK VINA RESULT: -7.210335138      1.976      2.787
REMARK  13 active torsions:
REMARK  status: ('A' for Active; 'I' for Inactive)
REMARK    1  A    between atoms: C2_2  and  C3_3
REMARK    2  A    between atoms: C3_3  and  C4_4
REMARK    3  A    between atoms: C4_4  and  C5_5
REMARK    4  A    between atoms: C5_5  and  O1_6
REMARK    5  A    between atoms: C5_5  and  C11_14
REMARK    6  A    between atoms: O1_6  and  C6_7
REMARK    7  A    between atoms: C11_14  and  C14_19
REMARK    8  A    between atoms: C12_15  and  C13_16
REMARK    9  A    between atoms: C13_16  and  O4_17
REMARK   10  A    between atoms: C15_21  and  O6_22
REMARK   11  A    between atoms: C17_24  and  O7_25
REMARK   12  A    between atoms: C19_29  and  O8_30
REMARK   13  A    between atoms: C20_32  and  O9_33
ROOT
HETATM    1  C11 UNL     1      21.951  64.798  46.953  1.00  0.00    -0.021 C
HETATM    2  C12 UNL     1      21.233  64.436  48.007  1.00  0.00     0.007 C
ENDROOT
BRANCH   1   3
HETATM    3  C5  UNL     1      21.338  65.606  45.900  1.00  0.00     0.158 C
BRANCH   3   4
HETATM    4  C4  UNL     1      21.693  67.056  45.960  1.00  0.00     0.037 C
BRANCH   4   5
HETATM    5  C3  UNL     1      20.486  67.884  46.440  1.00  0.00     0.002 C
BRANCH   5   6
HETATM    6  C2  UNL     1      19.229  67.402  45.725  1.00  0.00    -0.004 C
HETATM    7  C1  UNL     1      19.046  68.100  44.402  1.00  0.00     0.005 C
ENDBRANCH   5   6
ENDBRANCH   4   5
ENDBRANCH   3   4
BRANCH   3   8
HETATM    8  O1  UNL     1      21.474  65.029  44.630  1.00  0.00    -0.329 OA
BRANCH   8   9
HETATM    9  C6  UNL     1      20.473  64.115  44.324  1.00  0.00     0.418 C
HETATM   10  O2  UNL     1      19.635  64.589  43.309  1.00  0.00    -0.309 OA
HETATM   11  C7  UNL     1      18.783  63.681  42.696  1.00  0.00     0.139 C
HETATM   12  C8  UNL     1      19.112  62.403  42.776  1.00  0.00     0.029 C
HETATM   13  C9  UNL     1      20.317  61.960  43.476  1.00  0.00     0.147 C
HETATM   14  C10 UNL     1      19.923  61.001  44.596  1.00  0.00     0.044 C
HETATM   15  O3  UNL     1      21.136  62.940  43.952  1.00  0.00    -0.330 OA
ENDBRANCH   8   9
ENDBRANCH   3   8
ENDBRANCH   1   3
BRANCH   1  16
HETATM   16  C14 UNL     1      23.383  64.351  46.803  1.00  0.00     0.187 C
HETATM   17  O5  UNL     1      24.083  65.205  45.950  1.00  0.00    -0.346 OA
HETATM   18  C15 UNL     1      25.465  65.111  46.006  1.00  0.00     0.289 C
HETATM   19  C17 UNL     1      26.268  65.492  47.146  1.00  0.00     0.190 C
HETATM   20  C18 UNL     1      26.349  64.884  48.470  1.00  0.00     0.123 C
HETATM   21  S1  UNL     1      27.734  63.675  48.541  1.00  0.00    -0.087 SA
HETATM   22  C19 UNL     1      25.092  64.151  49.020  1.00  0.00     0.167 C
HETATM   23  C20 UNL     1      24.038  64.256  48.063  1.00  0.00     0.181 C
BRANCH  18  24
HETATM   24  O6  UNL     1      25.920  63.965  45.320  1.00  0.00    -0.363 OA
HETATM   25  C16 UNL     1      25.807  64.021  43.961  1.00  0.00     0.204 C
ENDBRANCH  18  24
BRANCH  19  26
HETATM   26  O7  UNL     1      27.614  65.449  46.652  1.00  0.00    -0.389 OA
ATOM     27  H7  UNL     1      27.722  64.554  46.355  1.00  0.00     0.210 HD
ENDBRANCH  19  26
BRANCH  22  28
HETATM   28  O8  UNL     1      25.450  62.867  49.481  1.00  0.00    -0.392 OA
ATOM     29  H8  UNL     1      25.974  62.423  48.824  1.00  0.00     0.210 HD
ENDBRANCH  22  28
BRANCH  23  30
HETATM   30  O9  UNL     1      24.062  65.680  48.128  1.00  0.00    -0.390 OA
ATOM     31  H9  UNL     1      24.828  65.674  47.566  1.00  0.00     0.210 HD
ENDBRANCH  23  30
ENDBRANCH   1  16
BRANCH   2  32
HETATM   32  C13 UNL     1      19.842  64.713  48.341  1.00  0.00     0.192 C
BRANCH  32  33
HETATM   33  O4  UNL     1      19.798  65.840  49.201  1.00  0.00    -0.397 OA
ATOM     34  H4  UNL     1      18.967  66.284  49.078  1.00  0.00     0.209 HD
ENDBRANCH  32  33
ENDBRANCH   2  32
TORSDOF 13
ENDMDL