MODEL 2
REMARK VINA RESULT: -5.230232002      6.559      8.103
REMARK  0 active torsions:
REMARK  status: ('A' for Active; 'I' for Inactive)
ROOT
HETATM    1  O1  UNL     1      54.891  35.721  44.773  1.00  0.00    -0.245 OA
HETATM    2  C1  UNL     1      55.197  36.778  45.426  1.00  0.00     0.354 A
HETATM    3  N1  UNL     1      54.821  37.138  46.642  1.00  0.00    -0.137 N
ATOM      4  H1  UNL     1      54.209  36.606  47.262  1.00  0.00     0.189 HD
HETATM    5  C2  UNL     1      55.386  38.328  46.921  1.00  0.00     0.726 A
HETATM    6  N2  UNL     1      55.535  39.321  47.824  1.00  0.00    -0.126 N
ATOM      7  H2  UNL     1      55.099  39.334  48.746  1.00  0.00     0.206 HD
HETATM    8  N3  UNL     1      56.319  40.273  47.356  1.00  0.00    -0.235 N
ATOM      9  H3  UNL     1      56.591  41.131  47.835  1.00  0.00     0.192 HD
HETATM   10  C3  UNL     1      56.689  39.889  46.125  1.00  0.00     0.375 A
HETATM   11  O2  UNL     1      57.436  40.503  45.324  1.00  0.00    -0.243 OA
HETATM   12  N4  UNL     1      56.113  38.682  45.846  1.00  0.00    -0.025 N
HETATM   13  N5  UNL     1      55.998  37.733  44.931  1.00  0.00    -0.225 N
ATOM     14  H5  UNL     1      56.441  37.730  44.012  1.00  0.00     0.193 HD
ENDROOT
TORSDOF 0
ENDMDL