MODEL 4
REMARK VINA RESULT: -0.417393659      6.398      8.272
REMARK  3 active torsions:
REMARK  status: ('A' for Active; 'I' for Inactive)
REMARK    1  A    between atoms: C4_9  and  N4_10
REMARK    2  A    between atoms: C5_13  and  N5_14
REMARK    3  A    between atoms: N5_14  and  N6_16
ROOT
HETATM    1  C1  UNL     1      52.238  35.787  45.601  1.00  0.00     0.072 C
HETATM    2  C2  UNL     1      51.174  34.829  45.206  1.00  0.00     0.055 A
HETATM    3  N1  UNL     1      51.219  34.164  44.030  1.00  0.00    -0.288 N
ATOM      4  H1  UNL     1      52.005  34.329  43.401  1.00  0.00     0.188 HD
HETATM    5  N2  UNL     1      50.282  33.312  43.669  1.00  0.00    -0.239 N
ATOM      6  H2  UNL     1      50.359  32.833  42.772  1.00  0.00     0.208 HD
HETATM    7  N3  UNL     1      49.245  33.065  44.446  1.00  0.00    -0.265 N
HETATM    8  C3  UNL     1      48.197  32.125  44.063  1.00  0.00     0.181 C
HETATM    9  C4  UNL     1      49.159  33.699  45.616  1.00  0.00     0.147 A
HETATM   10  C5  UNL     1      50.129  34.623  46.062  1.00  0.00     0.116 A
ENDROOT
BRANCH  10  11
HETATM   11  N5  UNL     1      49.939  35.168  47.201  1.00  0.00    -0.302 N
ATOM     12  H5  UNL     1      49.677  34.532  47.954  1.00  0.00     0.186 HD
BRANCH  11  13
HETATM   13  N6  UNL     1      50.037  36.488  47.553  1.00  0.00    -0.345 N
ATOM     14  H62 UNL     1      50.777  36.689  48.226  1.00  0.00     0.176 HD
ATOM     15  H61 UNL     1      49.479  37.281  47.237  1.00  0.00     0.176 HD
ENDBRANCH  11  13
ENDBRANCH  10  11
BRANCH   9  16
HETATM   16  N4  UNL     1      48.158  33.485  46.407  1.00  0.00    -0.382 N
ATOM     17  H42 UNL     1      47.852  34.273  46.977  1.00  0.00     0.157 HD
ATOM     18  H41 UNL     1      47.714  32.567  46.443  1.00  0.00     0.157 HD
ENDBRANCH   9  16
TORSDOF 3
ENDMDL