MODEL 4
REMARK VINA RESULT: -3.458457212      0.926      3.295
REMARK  2 active torsions:
REMARK  status: ('A' for Active; 'I' for Inactive)
REMARK    1  A    between atoms: N1_1  and  N2_4
REMARK    2  A    between atoms: N2_4  and  C1_6
ROOT
HETATM    1  C1  UNL     1      55.514  37.805  45.908  1.00  0.00     0.702 A
HETATM    2  N3  UNL     1      55.160  38.337  47.080  1.00  0.00    -0.162 N
ATOM      3  H3  UNL     1      54.567  37.794  47.707  1.00  0.00     0.187 HD
HETATM    4  C2  UNL     1      55.559  39.571  47.468  1.00  0.00     0.210 A
HETATM    5  N4  UNL     1      55.128  40.048  48.735  1.00  0.00    -0.062 NA
HETATM    6  N5  UNL     1      56.333  40.273  46.646  1.00  0.00    -0.282 N
ATOM      7  H5  UNL     1      56.646  41.206  46.916  1.00  0.00     0.173 HD
HETATM    8  C3  UNL     1      56.704  39.759  45.457  1.00  0.00     0.341 A
HETATM    9  O1  UNL     1      57.436  40.409  44.667  1.00  0.00    -0.246 OA
HETATM   10  N6  UNL     1      56.297  38.530  45.090  1.00  0.00    -0.140 N
ATOM     11  H6  UNL     1      56.584  38.147  44.189  1.00  0.00     0.189 HD
ENDROOT
BRANCH   1  12
HETATM   12  N2  UNL     1      55.115  36.610  45.557  1.00  0.00    -0.138 N
ATOM     13  H2  UNL     1      54.180  36.297  45.820  1.00  0.00     0.205 HD
BRANCH  12  14
HETATM   14  N1  UNL     1      55.937  35.761  44.833  1.00  0.00    -0.331 N
ATOM     15  H12 UNL     1      56.856  36.102  44.550  1.00  0.00     0.177 HD
ATOM     16  H11 UNL     1      55.638  34.818  44.587  1.00  0.00     0.177 HD
ENDBRANCH  12  14
ENDBRANCH   1  12
TORSDOF 2
ENDMDL