MODEL 4
REMARK VINA RESULT: -2.224687832      1.938      3.108
REMARK  1 active torsions:
REMARK  status: ('A' for Active; 'I' for Inactive)
REMARK    1  A    between atoms: N1_1  and  C1_4
ROOT
HETATM    1  C1  UNL     1      49.220  35.484  45.704  1.00  0.00     0.171 C
HETATM    2  N2  UNL     1      50.477  35.968  45.652  1.00  0.00    -0.312 N
ATOM      3  H2  UNL     1      50.605  36.935  45.951  1.00  0.00     0.170 HD
HETATM    4  C2  UNL     1      51.577  35.317  45.249  1.00  0.00     0.198 C
HETATM    5  N3  UNL     1      52.797  35.912  45.682  1.00  0.00    -0.063 NA
HETATM    6  N4  UNL     1      51.689  34.186  44.498  1.00  0.00    -0.282 N
ATOM      7  H4  UNL     1      52.624  33.948  44.169  1.00  0.00     0.173 HD
HETATM    8  C3  UNL     1      50.695  33.346  44.144  1.00  0.00     0.329 C
HETATM    9  O1  UNL     1      50.902  32.541  43.198  1.00  0.00    -0.247 OA
HETATM   10  N5  UNL     1      49.465  33.259  44.696  1.00  0.00    -0.272 N
ATOM     11  H5  UNL     1      48.970  32.382  44.534  1.00  0.00     0.174 HD
HETATM   12  C4  UNL     1      48.794  34.184  45.439  1.00  0.00     0.293 C
HETATM   13  O2  UNL     1      47.714  33.816  45.911  1.00  0.00    -0.264 OA
ENDROOT
BRANCH   1  14
HETATM   14  N1  UNL     1      48.277  36.295  46.036  1.00  0.00    -0.381 N
ATOM     15  H12 UNL     1      47.337  35.941  45.858  1.00  0.00     0.157 HD
ATOM     16  H11 UNL     1      48.541  37.195  46.435  1.00  0.00     0.157 HD
ENDBRANCH   1  14
TORSDOF 1
ENDMDL