MODEL 3
REMARK VINA RESULT: -1.769631876      6.533      8.489
REMARK  3 active torsions:
REMARK  status: ('A' for Active; 'I' for Inactive)
REMARK    1  A    between atoms: C2_5  and  N3_6
REMARK    2  A    between atoms: C4_11  and  N4_12
REMARK    3  A    between atoms: N5_15  and  N6_16
ROOT
HETATM    1  C1  UNL     1      54.281  36.462  46.347  1.00  0.00     0.202 C
HETATM    2  N1  UNL     1      55.121  37.645  46.254  1.00  0.00    -0.214 N
HETATM    3  N2  UNL     1      55.189  38.526  47.248  1.00  0.00    -0.264 N
ATOM      4  H2  UNL     1      54.635  38.358  48.088  1.00  0.00     0.190 HD
HETATM    5  C2  UNL     1      55.957  39.630  47.193  1.00  0.00     0.170 A
HETATM    6  C3  UNL     1      56.692  39.824  46.039  1.00  0.00     0.263 A
HETATM    7  O1  UNL     1      57.435  40.836  45.912  1.00  0.00    -0.280 OA
HETATM    8  C4  UNL     1      56.601  38.893  45.025  1.00  0.00     0.194 A
HETATM    9  N5  UNL     1      55.814  37.798  45.126  1.00  0.00    -0.166 N
ENDROOT
BRANCH   5  10
HETATM   10  N3  UNL     1      56.019  40.487  48.168  1.00  0.00    -0.381 N
ATOM     11  H32 UNL     1      55.193  40.697  48.727  1.00  0.00     0.157 HD
ATOM     12  H31 UNL     1      56.879  40.976  48.413  1.00  0.00     0.157 HD
ENDBRANCH   5  10
BRANCH   8  13
HETATM   13  N4  UNL     1      57.265  39.017  43.918  1.00  0.00    -0.379 N
ATOM     14  H42 UNL     1      56.912  38.487  43.122  1.00  0.00     0.158 HD
ATOM     15  H41 UNL     1      58.090  39.611  43.848  1.00  0.00     0.158 HD
ENDBRANCH   8  13
BRANCH   9  16
HETATM   16  N6  UNL     1      55.715  36.851  44.107  1.00  0.00    -0.321 N
ATOM     17  H62 UNL     1      54.918  36.221  44.021  1.00  0.00     0.179 HD
ATOM     18  H61 UNL     1      56.455  36.767  43.410  1.00  0.00     0.179 HD
ENDBRANCH   9  16
TORSDOF 3
ENDMDL