MODEL 3
REMARK VINA RESULT: -4.982221716      1.901      4.533
REMARK  2 active torsions:
REMARK  status: ('A' for Active; 'I' for Inactive)
REMARK    1  A    between atoms: N1_1  and  N2_4
REMARK       I    between atoms: N2_4  and  C1_6
REMARK    2  A    between atoms: C1_6  and  C2_8
ROOT
HETATM    1  C2  UNL     1      56.301  40.130  47.599  1.00  0.00     0.195 A
HETATM    2  N3  UNL     1      57.436  40.504  48.202  1.00  0.00    -0.277 N
ATOM      3  H3  UNL     1      58.378  40.189  47.972  1.00  0.00     0.189 HD
HETATM    4  N4  UNL     1      57.101  41.358  49.151  1.00  0.00    -0.250 N
ATOM      5  H4  UNL     1      57.761  41.813  49.781  1.00  0.00     0.192 HD
HETATM    6  C3  UNL     1      55.772  41.545  49.174  1.00  0.00     0.340 A
HETATM    7  O2  UNL     1      55.077  42.277  49.928  1.00  0.00    -0.245 OA
HETATM    8  N5  UNL     1      55.277  40.767  48.194  1.00  0.00    -0.288 N
ATOM      9  H5  UNL     1      54.292  40.676  47.945  1.00  0.00     0.172 HD
ENDROOT
BRANCH   1  10
HETATM   10  C1  UNL     1      56.244  39.186  46.490  1.00  0.00     0.305 C
HETATM   11  N2  UNL     1      55.299  38.112  46.479  1.00  0.00    -0.270 N
ATOM     12  H2  UNL     1      54.641  37.980  47.247  1.00  0.00     0.189 HD
HETATM   13  O1  UNL     1      57.062  39.369  45.560  1.00  0.00    -0.263 OA
BRANCH  11  14
HETATM   14  N1  UNL     1      55.309  37.250  45.382  1.00  0.00    -0.342 N
ATOM     15  H12 UNL     1      54.476  36.711  45.145  1.00  0.00     0.176 HD
ATOM     16  H11 UNL     1      56.170  37.184  44.838  1.00  0.00     0.176 HD
ENDBRANCH  11  14
ENDBRANCH   1  10
TORSDOF 2
ENDMDL