MODEL 4
REMARK VINA RESULT: -4.564941862      1.336      1.713
REMARK  4 active torsions:
REMARK  status: ('A' for Active; 'I' for Inactive)
REMARK    1  A    between atoms: N1_1  and  C1_4
REMARK    2  A    between atoms: C2_7  and  N3_8
REMARK    3  A    between atoms: N3_8  and  C3_10
REMARK    4  A    between atoms: N5_14  and  N6_15
ROOT
HETATM    1  C1  UNL     1      55.345  39.586  47.823  1.00  0.00     0.727 A
HETATM    2  N2  UNL     1      54.946  38.657  46.914  1.00  0.00    -0.018 N
ATOM      3  H2  UNL     1      54.009  38.258  46.864  1.00  0.00     0.203 HD
HETATM    4  C2  UNL     1      55.961  38.341  46.090  1.00  0.00     0.715 A
HETATM    5  N4  UNL     1      57.009  39.104  46.517  1.00  0.00    -0.095 N
ATOM      6  H4  UNL     1      57.943  39.108  46.106  1.00  0.00     0.208 HD
HETATM    7  N5  UNL     1      56.627  39.834  47.544  1.00  0.00    -0.012 N
ENDROOT
BRANCH   4   8
HETATM    8  N3  UNL     1      55.953  37.500  45.109  1.00  0.00    -0.165 N
ATOM      9  H3  UNL     1      56.460  37.699  44.248  1.00  0.00     0.186 HD
BRANCH   8  10
HETATM   10  C3  UNL     1      55.227  36.304  45.257  1.00  0.00     0.368 C
HETATM   11  O1  UNL     1      54.030  36.368  45.575  1.00  0.00    -0.283 OA
ENDBRANCH   8  10
ENDBRANCH   4   8
BRANCH   1  12
HETATM   12  N1  UNL     1      54.629  40.117  48.765  1.00  0.00    -0.231 N
ATOM     13  H12 UNL     1      53.705  40.538  48.675  1.00  0.00     0.174 HD
ATOM     14  H11 UNL     1      54.875  40.202  49.751  1.00  0.00     0.174 HD
ENDBRANCH   1  12
BRANCH   7  15
HETATM   15  N6  UNL     1      57.436  40.728  48.231  1.00  0.00    -0.309 N
ATOM     16  H62 UNL     1      58.034  40.488  49.022  1.00  0.00     0.179 HD
ATOM     17  H61 UNL     1      57.522  41.723  48.023  1.00  0.00     0.179 HD
ENDBRANCH   7  15
TORSDOF 4
ENDMDL