MODEL 1
REMARK VINA RESULT: -4.464019042      0.000      0.000
REMARK  1 active torsions:
REMARK  status: ('A' for Active; 'I' for Inactive)
REMARK    1  A    between atoms: C3_7  and  N4_8
ROOT
HETATM    1  C1  UNL     1      49.788  32.738  43.289  1.00  0.00     0.183 C
HETATM    2  N1  UNL     1      49.896  33.587  44.465  1.00  0.00    -0.246 N
HETATM    3  N2  UNL     1      50.849  34.497  44.576  1.00  0.00    -0.279 N
ATOM      4  H2  UNL     1      51.520  34.600  43.814  1.00  0.00     0.188 HD
HETATM    5  C2  UNL     1      50.970  35.301  45.662  1.00  0.00     0.175 A
HETATM    6  N3  UNL     1      51.999  36.273  45.763  1.00  0.00    -0.077 NA
HETATM    7  C3  UNL     1      50.081  35.192  46.713  1.00  0.00     0.146 A
HETATM    8  N5  UNL     1      49.119  34.264  46.587  1.00  0.00    -0.291 N
ATOM      9  H5  UNL     1      48.438  34.146  47.337  1.00  0.00     0.172 HD
HETATM   10  C4  UNL     1      49.032  33.485  45.493  1.00  0.00     0.342 A
HETATM   11  O1  UNL     1      48.108  32.618  45.410  1.00  0.00    -0.245 OA
ENDROOT
BRANCH   7  12
HETATM   12  N4  UNL     1      50.186  35.953  47.755  1.00  0.00    -0.383 N
ATOM     13  H42 UNL     1      49.412  36.522  48.102  1.00  0.00     0.157 HD
ATOM     14  H41 UNL     1      51.061  36.012  48.276  1.00  0.00     0.157 HD
ENDBRANCH   7  12
TORSDOF 1
ENDMDL