MODEL 3
REMARK VINA RESULT: -3.175900420      6.196      7.973
REMARK  0 active torsions:
REMARK  status: ('A' for Active; 'I' for Inactive)
ROOT
HETATM    1  N1  UNL     1      50.686  32.812  43.094  1.00  0.00    -0.232 N
ATOM      2  H11 UNL     1      51.553  33.249  42.780  1.00  0.00     0.174 HD
ATOM      3  H12 UNL     1      50.350  32.036  42.524  1.00  0.00     0.174 HD
HETATM    4  C1  UNL     1      50.043  33.199  44.141  1.00  0.00     0.713 A
HETATM    5  N2  UNL     1      48.840  32.592  44.579  1.00  0.00    -0.184 N
ATOM      6  H2  UNL     1      48.460  31.810  44.045  1.00  0.00     0.185 HD
HETATM    7  C2  UNL     1      48.136  33.039  45.751  1.00  0.00     0.217 A
HETATM    8  N3  UNL     1      48.622  34.027  46.424  1.00  0.00    -0.268 N
ATOM      9  H3  UNL     1      48.120  34.339  47.255  1.00  0.00     0.190 HD
HETATM   10  N4  UNL     1      49.802  34.693  46.075  1.00  0.00    -0.105 N
HETATM   11  C3  UNL     1      50.532  35.774  46.625  1.00  0.00     0.375 A
HETATM   12  O1  UNL     1      50.221  36.421  47.657  1.00  0.00    -0.242 OA
HETATM   13  N5  UNL     1      51.667  35.995  45.811  1.00  0.00    -0.230 N
ATOM     14  H5  UNL     1      52.378  36.711  45.960  1.00  0.00     0.189 HD
HETATM   15  N6  UNL     1      51.649  35.080  44.781  1.00  0.00     0.023 NA
HETATM   16  N7  UNL     1      50.522  34.304  44.954  1.00  0.00     0.021 N
ENDROOT
TORSDOF 0
ENDMDL