MODEL 5
REMARK VINA RESULT: -1.643372587      5.846      7.741
REMARK  0 active torsions:
REMARK  status: ('A' for Active; 'I' for Inactive)
ROOT
HETATM    1  N1  UNL     1      55.786  41.014  48.971  1.00  0.00    -0.190 NA
HETATM    2  C1  UNL     1      55.813  40.279  48.055  1.00  0.00     0.120 C
HETATM    3  C2  UNL     1      55.826  39.392  46.927  1.00  0.00     0.147 A
HETATM    4  N2  UNL     1      55.048  38.279  46.939  1.00  0.00    -0.298 N
ATOM      5  H2  UNL     1      54.464  38.089  47.753  1.00  0.00     0.171 HD
HETATM    6  C3  UNL     1      55.030  37.421  45.904  1.00  0.00     0.328 A
HETATM    7  O1  UNL     1      54.295  36.388  45.937  1.00  0.00    -0.247 OA
HETATM    8  N3  UNL     1      55.812  37.701  44.847  1.00  0.00    -0.274 N
ATOM      9  H3  UNL     1      55.809  37.059  44.053  1.00  0.00     0.173 HD
HETATM   10  C4  UNL     1      56.603  38.796  44.790  1.00  0.00     0.276 A
HETATM   11  O2  UNL     1      57.333  39.044  43.788  1.00  0.00    -0.266 OA
HETATM   12  C5  UNL     1      56.630  39.679  45.842  1.00  0.00     0.151 A
HETATM   13  N4  UNL     1      57.436  40.855  45.857  1.00  0.00    -0.093 NA
ENDROOT
TORSDOF 0
ENDMDL