MODEL 5
REMARK VINA RESULT: -4.695746336      1.155      3.176
REMARK  1 active torsions:
REMARK  status: ('A' for Active; 'I' for Inactive)
REMARK    1  A    between atoms: O1_1  and  N1_3
ROOT
HETATM    1  N1  UNL     1      46.809  27.397  45.430  1.00  0.00    -0.062 N
HETATM    2  N2  UNL     1      46.725  27.737  46.712  1.00  0.00    -0.178 N
ATOM      3  H2  UNL     1      46.559  28.709  46.971  1.00  0.00     0.214 HD
HETATM    4  N3  UNL     1      46.858  26.810  47.658  1.00  0.00    -0.163 N
ATOM      5  H3  UNL     1      46.791  27.092  48.636  1.00  0.00     0.220 HD
HETATM    6  O2  UNL     1      47.071  25.558  47.378  1.00  0.00    -0.123 OA
HETATM    7  N4  UNL     1      47.157  25.201  46.130  1.00  0.00    -0.163 N
ATOM      8  H4  UNL     1      47.323  24.226  45.882  1.00  0.00     0.220 HD
HETATM    9  N5  UNL     1      47.025  26.120  45.184  1.00  0.00    -0.178 N
ATOM     10  H5  UNL     1      47.095  25.822  44.211  1.00  0.00     0.214 HD
ENDROOT
BRANCH   1  11
HETATM   11  O1  UNL     1      46.678  28.320  44.412  1.00  0.00    -0.251 OA
ATOM     12  H1  UNL     1      47.421  28.796  44.060  1.00  0.00     0.248 HD
ENDBRANCH   1  11
TORSDOF 1
ENDMDL