MODEL 5
REMARK VINA RESULT: -4.208062118      5.909      6.551
REMARK  1 active torsions:
REMARK  status: ('A' for Active; 'I' for Inactive)
REMARK    1  A    between atoms: N5_8  and  O1_9
ROOT
HETATM    1  C1  UNL     1      47.603  19.221  45.457  1.00  0.00     0.202 C
HETATM    2  N1  UNL     1      47.757  20.656  45.439  1.00  0.00    -0.178 N
HETATM    3  N2  UNL     1      47.214  21.563  46.250  1.00  0.00     0.016 NA
HETATM    4  N3  UNL     1      47.630  22.758  45.866  1.00  0.00    -0.207 N
ATOM      5  H3  UNL     1      47.375  23.644  46.303  1.00  0.00     0.207 HD
HETATM    6  N4  UNL     1      48.426  22.618  44.829  1.00  0.00    -0.186 N
ATOM      7  H4  UNL     1      48.897  23.366  44.320  1.00  0.00     0.214 HD
HETATM    8  N5  UNL     1      48.502  21.306  44.566  1.00  0.00    -0.064 N
ENDROOT
BRANCH   8   9
HETATM    9  O1  UNL     1      49.230  20.721  43.557  1.00  0.00    -0.251 OA
ATOM     10  H1  UNL     1      49.437  21.129  42.724  1.00  0.00     0.248 HD
ENDBRANCH   8   9
TORSDOF 1
ENDMDL