MODEL 5
REMARK VINA RESULT: -4.742852825      9.349      9.766
REMARK  1 active torsions:
REMARK  status: ('A' for Active; 'I' for Inactive)
REMARK    1  A    between atoms: N2_5  and  O2_6
ROOT
HETATM    1  O1  UNL     1      47.076  26.025  47.972  1.00  0.00    -0.244 OA
HETATM    2  C1  UNL     1      47.035  26.604  46.835  1.00  0.00     0.357 A
HETATM    3  N1  UNL     1      46.633  26.086  45.664  1.00  0.00    -0.207 N
ATOM      4  H1  UNL     1      46.298  25.130  45.541  1.00  0.00     0.196 HD
HETATM    5  N2  UNL     1      46.726  26.976  44.695  1.00  0.00    -0.076 N
HETATM    6  N3  UNL     1      47.196  28.070  45.265  1.00  0.00    -0.196 N
ATOM      7  H3  UNL     1      47.382  28.946  44.776  1.00  0.00     0.212 HD
HETATM    8  N4  UNL     1      47.391  27.872  46.558  1.00  0.00    -0.232 N
ATOM      9  H4  UNL     1      47.746  28.557  47.225  1.00  0.00     0.193 HD
ENDROOT
BRANCH   5  10
HETATM   10  O2  UNL     1      46.403  26.798  43.367  1.00  0.00    -0.252 OA
ATOM     11  H2  UNL     1      46.943  27.003  42.612  1.00  0.00     0.248 HD
ENDBRANCH   5  10
TORSDOF 1
ENDMDL