MODEL 1
REMARK VINA RESULT: -5.017795180      0.000      0.000
REMARK  1 active torsions:
REMARK  status: ('A' for Active; 'I' for Inactive)
REMARK    1  A    between atoms: O1_1  and  N1_3
ROOT
HETATM    1  N1  UNL     1      53.662  25.078  41.018  1.00  0.00     0.006 N
HETATM    2  O2  UNL     1      54.839  25.465  40.658  1.00  0.00    -0.087 OA
HETATM    3  N2  UNL     1      55.243  24.247  40.457  1.00  0.00    -0.116 N
HETATM    4  N3  UNL     1      54.060  23.829  40.817  1.00  0.00    -0.059 N
HETATM    5  N4  UNL     1      54.351  22.495  40.645  1.00  0.00    -0.071 NA
HETATM    6  C1  UNL     1      55.661  22.877  40.242  1.00  0.00     0.321 A
ENDROOT
BRANCH   1   7
HETATM    7  O1  UNL     1      52.498  25.720  41.433  1.00  0.00    -0.244 OA
ATOM      8  H1  UNL     1      51.875  25.591  42.139  1.00  0.00     0.249 HD
ENDBRANCH   1   7
TORSDOF 1
ENDMDL