MODEL 5
REMARK VINA RESULT: -4.520959213      5.846      6.590
REMARK  2 active torsions:
REMARK  status: ('A' for Active; 'I' for Inactive)
REMARK    1  A    between atoms: N2_3  and  O1_4
REMARK    2  A    between atoms: N5_10  and  O2_11
ROOT
HETATM    1  C1  UNL     1      51.358  20.321  42.276  1.00  0.00     0.209 C
HETATM    2  N1  UNL     1      50.515  20.995  43.262  1.00  0.00    -0.152 N
HETATM    3  N2  UNL     1      49.656  21.950  42.999  1.00  0.00    -0.059 N
HETATM    4  N3  UNL     1      49.087  22.310  44.122  1.00  0.00    -0.181 N
ATOM      5  H3  UNL     1      48.375  23.032  44.230  1.00  0.00     0.214 HD
HETATM    6  N4  UNL     1      49.592  21.577  45.083  1.00  0.00    -0.181 N
ATOM      7  H4  UNL     1      49.340  21.632  46.070  1.00  0.00     0.214 HD
HETATM    8  N5  UNL     1      50.479  20.760  44.561  1.00  0.00    -0.059 N
ENDROOT
BRANCH   3   9
HETATM    9  O1  UNL     1      49.411  22.472  41.740  1.00  0.00    -0.251 OA
ATOM     10  H1  UNL     1      48.915  22.036  41.057  1.00  0.00     0.248 HD
ENDBRANCH   3   9
BRANCH   8  11
HETATM   11  O2  UNL     1      51.252  19.810  45.225  1.00  0.00    -0.251 OA
ATOM     12  H2  UNL     1      50.933  19.219  45.897  1.00  0.00     0.248 HD
ENDBRANCH   8  11
TORSDOF 2
ENDMDL