MODEL 2
REMARK VINA RESULT: -4.886968324      0.058      2.889
REMARK  2 active torsions:
REMARK  status: ('A' for Active; 'I' for Inactive)
REMARK    1  A    between atoms: O1_1  and  N1_3
REMARK    2  A    between atoms: N4_8  and  O2_9
ROOT
HETATM    1  N1  UNL     1      53.799  24.984  40.972  1.00  0.00    -0.059 N
HETATM    2  N2  UNL     1      55.046  25.350  41.013  1.00  0.00    -0.185 N
ATOM      3  H2  UNL     1      55.376  26.249  41.365  1.00  0.00     0.214 HD
HETATM    4  N3  UNL     1      55.817  24.410  40.545  1.00  0.00    -0.185 N
ATOM      5  H3  UNL     1      56.834  24.444  40.467  1.00  0.00     0.214 HD
HETATM    6  N4  UNL     1      55.045  23.407  40.190  1.00  0.00    -0.059 N
HETATM    7  N5  UNL     1      53.797  23.760  40.454  1.00  0.00     0.072 NA
ENDROOT
BRANCH   1   8
HETATM    8  O1  UNL     1      52.650  25.662  41.365  1.00  0.00    -0.254 OA
ATOM      9  H1  UNL     1      52.170  25.633  42.184  1.00  0.00     0.248 HD
ENDBRANCH   1   8
BRANCH   6  10
HETATM   10  O2  UNL     1      55.524  22.246  39.653  1.00  0.00    -0.254 OA
ATOM     11  H2  UNL     1      55.036  21.720  39.030  1.00  0.00     0.248 HD
ENDBRANCH   6  10
TORSDOF 2
ENDMDL