MODEL 3
REMARK VINA RESULT: -4.726139529      1.162      3.190
REMARK  2 active torsions:
REMARK  status: ('A' for Active; 'I' for Inactive)
REMARK    1  A    between atoms: O1_1  and  N1_3
REMARK    2  A    between atoms: N3_5  and  O2_6
ROOT
HETATM    1  N1  UNL     1      55.426  24.091  40.531  1.00  0.00    -0.015 N
HETATM    2  N2  UNL     1      54.791  25.169  40.953  1.00  0.00     0.076 NA
HETATM    3  N3  UNL     1      53.491  24.937  40.993  1.00  0.00    -0.051 N
HETATM    4  N4  UNL     1      53.332  23.689  40.585  1.00  0.00     0.095 NA
HETATM    5  O3  UNL     1      54.513  23.203  40.313  1.00  0.00    -0.096 OA
ENDROOT
BRANCH   1   6
HETATM    6  O1  UNL     1      56.784  23.903  40.344  1.00  0.00    -0.248 OA
ATOM      7  H1  UNL     1      57.267  23.089  40.268  1.00  0.00     0.248 HD
ENDBRANCH   1   6
BRANCH   3   8
HETATM    8  O2  UNL     1      52.481  25.814  41.382  1.00  0.00    -0.256 OA
ATOM      9  H2  UNL     1      52.102  26.526  40.878  1.00  0.00     0.248 HD
ENDBRANCH   3   8
TORSDOF 2
ENDMDL