MODEL 1
REMARK VINA RESULT: -4.995801503      0.000      0.000
REMARK  1 active torsions:
REMARK  status: ('A' for Active; 'I' for Inactive)
REMARK    1  A    between atoms: N3_5  and  O2_6
ROOT
HETATM    1  C1  UNL     1      55.857  22.398  40.292  1.00  0.00     0.199 C
HETATM    2  N1  UNL     1      55.106  23.592  40.546  1.00  0.00    -0.197 N
HETATM    3  N2  UNL     1      55.623  24.806  40.359  1.00  0.00     0.070 NA
HETATM    4  O1  UNL     1      54.767  25.719  40.651  1.00  0.00    -0.095 OA
HETATM    5  N3  UNL     1      53.694  25.105  41.027  1.00  0.00    -0.018 N
HETATM    6  N4  UNL     1      53.885  23.797  40.968  1.00  0.00    -0.178 N
ATOM      7  H4  UNL     1      53.203  23.078  41.209  1.00  0.00     0.214 HD
ENDROOT
BRANCH   5   8
HETATM    8  O2  UNL     1      52.535  25.688  41.425  1.00  0.00    -0.246 OA
ATOM      9  H2  UNL     1      51.698  25.253  41.537  1.00  0.00     0.249 HD
ENDBRANCH   5   8
TORSDOF 1
ENDMDL