MODEL 2
REMARK VINA RESULT: -5.248573921      0.102      2.828
REMARK  2 active torsions:
REMARK  status: ('A' for Active; 'I' for Inactive)
REMARK    1  A    between atoms: O1_1  and  N1_3
REMARK    2  A    between atoms: N4_6  and  O2_7
ROOT
HETATM    1  N1  UNL     1      54.857  23.459  40.152  1.00  0.00    -0.062 N
HETATM    2  N2  UNL     1      55.586  24.571  40.181  1.00  0.00     0.039 NA
HETATM    3  N3  UNL     1      54.831  25.555  40.682  1.00  0.00     0.039 NA
HETATM    4  N4  UNL     1      53.638  25.051  40.961  1.00  0.00    -0.062 N
HETATM    5  N5  UNL     1      53.657  23.768  40.636  1.00  0.00     0.065 NA
ENDROOT
BRANCH   1   6
HETATM    6  O1  UNL     1      55.300  22.383  39.735  1.00  0.00    -0.257 OA
ATOM      7  H1  UNL     1      54.795  21.804  39.176  1.00  0.00     0.248 HD
ENDBRANCH   1   6
BRANCH   4   8
HETATM    8  O2  UNL     1      52.528  25.661  41.489  1.00  0.00    -0.257 OA
ATOM      9  H2  UNL     1      51.801  26.088  41.050  1.00  0.00     0.248 HD
ENDBRANCH   4   8
TORSDOF 2
ENDMDL