MODEL 2
REMARK VINA RESULT: -5.122643155      1.554      2.238
REMARK  2 active torsions:
REMARK  status: ('A' for Active; 'I' for Inactive)
REMARK    1  A    between atoms: O1_1  and  C1_3
REMARK    2  A    between atoms: N4_8  and  O2_9
ROOT
HETATM    1  C1  UNL     1      54.733  24.697  40.843  1.00  0.00     0.275 A
HETATM    2  N1  UNL     1      55.143  23.444  40.561  1.00  0.00    -0.248 N
ATOM      3  H1  UNL     1      56.112  23.178  40.389  1.00  0.00     0.187 HD
HETATM    4  N2  UNL     1      54.121  22.604  40.536  1.00  0.00    -0.003 NA
HETATM    5  N3  UNL     1      53.052  23.336  40.808  1.00  0.00     0.024 NA
HETATM    6  N4  UNL     1      53.403  24.597  40.995  1.00  0.00    -0.106 N
ENDROOT
BRANCH   1   7
HETATM    7  O1  UNL     1      55.514  25.843  40.954  1.00  0.00    -0.329 OA
ATOM      8  H1  UNL     1      55.395  26.672  40.507  1.00  0.00     0.221 HD
ENDBRANCH   1   7
BRANCH   6   9
HETATM    9  O2  UNL     1      52.549  25.621  41.293  1.00  0.00    -0.266 OA
ATOM     10  H2  UNL     1      52.192  26.248  40.676  1.00  0.00     0.246 HD
ENDBRANCH   6   9
TORSDOF 2
ENDMDL