MODEL 5
REMARK VINA RESULT: -2.543647185      1.413      4.551
REMARK  5 active torsions:
REMARK  status: ('A' for Active; 'I' for Inactive)
REMARK    1  A    between atoms: N1_1  and  C1_5
REMARK    2  A    between atoms: C1_5  and  C2_6
REMARK    3  A    between atoms: C2_6  and  C3_7
REMARK    4  A    between atoms: C3_7  and  N2_8
REMARK    5  A    between atoms: N2_8  and  C4_10
ROOT
HETATM    1  N2  UNL     1       8.711  35.617  11.236  1.00  0.00    -0.362 N
ATOM      2  H2  UNL     1       8.899  35.436  12.222  1.00  0.00     0.162 HD
ENDROOT
BRANCH   1   3
HETATM    3  C3  UNL     1       9.485  35.007  10.188  1.00  0.00     0.124 C
BRANCH   3   4
HETATM    4  C2  UNL     1       8.927  33.670   9.765  1.00  0.00     0.047 C
BRANCH   4   5
HETATM    5  C1  UNL     1       8.417  32.963  11.003  1.00  0.00     0.231 C
BRANCH   5   6
HETATM    6  N1  UNL     1       7.025  32.584  10.816  1.00  0.00    -0.079 N
ATOM      7  H13 UNL     1       6.546  33.197  10.157  1.00  0.00     0.274 HD
ATOM      8  H12 UNL     1       6.933  31.711  10.298  1.00  0.00     0.274 HD
ATOM      9  H11 UNL     1       6.553  32.547  11.719  1.00  0.00     0.274 HD
ENDBRANCH   5   6
ENDBRANCH   4   5
ENDBRANCH   3   4
ENDBRANCH   1   3
BRANCH   1  10
HETATM   10  C4  UNL     1       7.654  36.500  10.810  1.00  0.00     0.171 C
HETATM   11  N3  UNL     1       6.594  36.769  11.477  1.00  0.00    -0.361 N
HETATM   12  C5  UNL     1       5.704  37.681  10.816  1.00  0.00     0.142 C
ATOM     13  H3  UNL     1       6.401  36.371  12.396  1.00  0.00     0.162 HD
HETATM   14  C6  UNL     1       6.270  37.822   9.443  1.00  0.00     0.142 C
HETATM   15  N4  UNL     1       7.575  37.229   9.597  1.00  0.00    -0.361 N
ATOM     16  H4  UNL     1       8.337  37.322   8.925  1.00  0.00     0.162 HD
ENDBRANCH   1  10
TORSDOF 5
ENDMDL