MODEL 2
REMARK VINA RESULT: -3.542767798      1.103      1.233
REMARK  3 active torsions:
REMARK  status: ('A' for Active; 'I' for Inactive)
REMARK    1  A    between atoms: C2_4  and  N2_5
REMARK    2  A    between atoms: N2_5  and  C3_7
REMARK    3  A    between atoms: C3_7  and  C4_8
ROOT
HETATM    1  N2  UNL     1       9.648  34.468   9.811  1.00  0.00    -0.359 N
ATOM      2  H2  UNL     1      10.474  34.326   9.230  1.00  0.00     0.162 HD
ENDROOT
BRANCH   1   3
HETATM    3  C2  UNL     1       8.856  33.351  10.191  1.00  0.00     0.188 C
HETATM    4  N1  UNL     1       8.557  33.093  11.423  1.00  0.00    -0.346 N
HETATM    5  C1  UNL     1       7.757  31.907  11.428  1.00  0.00     0.259 C
ATOM      6  H1  UNL     1       8.839  33.635  12.240  1.00  0.00     0.163 HD
HETATM    7  N5  UNL     1       7.677  31.415  10.090  1.00  0.00    -0.119 NA
HETATM    8  N4  UNL     1       8.294  32.384   9.314  1.00  0.00    -0.274 N
ATOM      9  H4  UNL     1       8.337  32.400   8.295  1.00  0.00     0.185 HD
ENDBRANCH   1   3
BRANCH   1  10
HETATM   10  C3  UNL     1       9.295  35.813  10.239  1.00  0.00     0.157 C
BRANCH  10  11
HETATM   11  C4  UNL     1       7.795  35.890  10.375  1.00  0.00     0.229 A
HETATM   12  C5  UNL     1       7.091  37.145  10.398  1.00  0.00     0.267 A
HETATM   13  N3  UNL     1       7.327  36.380  11.649  1.00  0.00    -0.066 N
ATOM     14  H32 UNL     1       6.744  36.015  12.402  1.00  0.00     0.277 HD
ATOM     15  H31 UNL     1       7.751  36.576  12.556  1.00  0.00     0.277 HD
ENDBRANCH  10  11
ENDBRANCH   1  10
TORSDOF 3
ENDMDL