MODEL 3
REMARK VINA RESULT: -4.725539149      0.713      1.362
REMARK  4 active torsions:
REMARK  status: ('A' for Active; 'I' for Inactive)
REMARK    1  A    between atoms: N1_2  and  C2_5
REMARK    2  A    between atoms: C2_5  and  C3_6
REMARK    3  A    between atoms: C3_6  and  N2_7
REMARK    4  A    between atoms: N2_7  and  C4_9
ROOT
HETATM    1  C4  UNL     1       8.649  33.329  10.201  1.00  0.00     0.706 A
HETATM    2  N3  UNL     1       8.452  32.210   9.484  1.00  0.00    -0.114 N
ATOM      3  H3  UNL     1       8.931  31.980   8.613  1.00  0.00     0.203 HD
HETATM    4  N4  UNL     1       7.539  31.444  10.078  1.00  0.00     0.009 NA
HETATM    5  N5  UNL     1       7.157  32.090  11.184  1.00  0.00    -0.212 N
ATOM      6  H5  UNL     1       6.465  31.760  11.857  1.00  0.00     0.206 HD
HETATM    7  N6  UNL     1       7.817  33.211  11.257  1.00  0.00    -0.118 N
ATOM      8  H6  UNL     1       7.719  33.900  12.003  1.00  0.00     0.207 HD
ENDROOT
BRANCH   1   9
HETATM    9  N2  UNL     1       9.470  34.297   9.909  1.00  0.00    -0.222 N
ATOM     10  H2  UNL     1      10.242  34.171   9.253  1.00  0.00     0.177 HD
BRANCH   9  11
HETATM   11  C3  UNL     1       9.225  35.554  10.565  1.00  0.00     0.165 C
BRANCH  11  12
HETATM   12  C2  UNL     1       8.026  36.294  10.084  1.00  0.00     0.252 C
BRANCH  12  13
HETATM   13  N1  UNL     1       7.108  36.703  11.094  1.00  0.00    -0.077 N
HETATM   14  C1  UNL     1       6.072  37.526  10.545  1.00  0.00     0.267 C
ATOM     15  H12 UNL     1       7.583  37.164  11.870  1.00  0.00     0.276 HD
ATOM     16  H11 UNL     1       6.725  35.904  11.599  1.00  0.00     0.276 HD
ENDBRANCH  12  13
ENDBRANCH  11  12
ENDBRANCH   9  11
ENDBRANCH   1   9
TORSDOF 4
ENDMDL