MODEL 4
REMARK VINA RESULT: -3.307306241      2.442      4.643
REMARK  5 active torsions:
REMARK  status: ('A' for Active; 'I' for Inactive)
REMARK    1  A    between atoms: C2_2  and  O1_3
REMARK    2  A    between atoms: O1_3  and  C3_4
REMARK    3  A    between atoms: C3_4  and  C4_5
REMARK    4  A    between atoms: C5_9  and  N2_10
REMARK    5  A    between atoms: N2_10  and  N3_11
ROOT
HETATM    1  C4  UNL     1       8.176  35.815  11.168  1.00  0.00     0.353 C
HETATM    2  N1  UNL     1       8.967  35.742   9.952  1.00  0.00    -0.004 N
ATOM      3  H11 UNL     1       9.838  36.255   9.813  1.00  0.00     0.285 HD
ATOM      4  H12 UNL     1       8.675  36.149   9.064  1.00  0.00     0.285 HD
HETATM    5  C5  UNL     1       8.909  34.318  10.243  1.00  0.00     0.442 C
HETATM    6  O2  UNL     1       7.619  34.586  10.761  1.00  0.00    -0.310 OA
ENDROOT
BRANCH   1   7
HETATM    7  C3  UNL     1       7.213  36.956  11.241  1.00  0.00     0.235 C
BRANCH   7   8
HETATM    8  O1  UNL     1       6.261  36.970  10.210  1.00  0.00    -0.360 OA
BRANCH   8   9
HETATM    9  C2  UNL     1       5.921  38.202   9.676  1.00  0.00     0.124 C
HETATM   10  C1  UNL     1       5.608  38.377   8.406  1.00  0.00     0.037 C
ENDBRANCH   8   9
ENDBRANCH   7   8
ENDBRANCH   1   7
BRANCH   5  11
HETATM   11  N2  UNL     1       8.919  33.465   9.084  1.00  0.00    -0.087 NA
BRANCH  11  12
HETATM   12  N3  UNL     1       8.440  32.207   9.495  1.00  0.00    -0.344 N
ATOM     13  H32 UNL     1       8.519  31.338   8.968  1.00  0.00     0.172 HD
ATOM     14  H31 UNL     1       8.005  32.338  10.408  1.00  0.00     0.172 HD
ENDBRANCH  11  12
ENDBRANCH   5  11
TORSDOF 5
ENDMDL