MODEL 3
REMARK VINA RESULT: -2.184830671      1.157      1.740
REMARK  4 active torsions:
REMARK  status: ('A' for Active; 'I' for Inactive)
REMARK    1  A    between atoms: N1_1  and  N2_4
REMARK    2  A    between atoms: N2_4  and  C1_5
REMARK    3  A    between atoms: C1_5  and  C2_6
REMARK    4  A    between atoms: C2_6  and  C3_7
ROOT
HETATM    1  C3  UNL     1       8.223  35.425  11.142  1.00  0.00     0.212 C
HETATM    2  C4  UNL     1       7.612  34.314  11.963  1.00  0.00     0.265 C
HETATM    3  N3  UNL     1       7.543  33.089  11.168  1.00  0.00    -0.072 N
ATOM      4  H31 UNL     1       6.888  33.148  10.388  1.00  0.00     0.277 HD
ATOM      5  H32 UNL     1       7.089  32.315  11.653  1.00  0.00     0.277 HD
HETATM    6  C5  UNL     1       8.904  32.798  10.761  1.00  0.00     0.259 C
HETATM    7  C6  UNL     1       9.253  33.812   9.692  1.00  0.00     0.260 C
HETATM    8  N4  UNL     1       8.504  35.030   9.790  1.00  0.00    -0.068 N
ATOM      9  H41 UNL     1       8.972  35.782   9.285  1.00  0.00     0.277 HD
ATOM     10  H42 UNL     1       7.644  34.969   9.247  1.00  0.00     0.277 HD
ENDROOT
BRANCH   1  11
HETATM   11  C2  UNL     1       7.451  36.701  11.199  1.00  0.00     0.052 C
BRANCH  11  12
HETATM   12  C1  UNL     1       7.084  37.284   9.872  1.00  0.00     0.136 C
BRANCH  12  13
HETATM   13  N2  UNL     1       5.842  37.997  10.044  1.00  0.00    -0.148 NA
BRANCH  13  14
HETATM   14  N1  UNL     1       5.421  38.684   8.915  1.00  0.00    -0.348 N
ATOM     15  H12 UNL     1       5.533  38.301   7.976  1.00  0.00     0.172 HD
ATOM     16  H11 UNL     1       4.996  39.590   9.112  1.00  0.00     0.172 HD
ENDBRANCH  13  14
ENDBRANCH  12  13
ENDBRANCH  11  12
ENDBRANCH   1  11
TORSDOF 4
ENDMDL