MODEL 4
REMARK VINA RESULT: -3.997986060      3.514      4.604
REMARK  5 active torsions:
REMARK  status: ('A' for Active; 'I' for Inactive)
REMARK    1  A    between atoms: N1_1  and  C1_5
REMARK    2  A    between atoms: C1_5  and  C2_6
REMARK    3  A    between atoms: C2_6  and  N2_7
REMARK    4  A    between atoms: N2_7  and  N3_9
REMARK    5  A    between atoms: N3_9  and  C3_11
ROOT
HETATM    1  N3  UNL     1      10.381  35.953   9.467  1.00  0.00    -0.135 N
ATOM      2  H3  UNL     1      10.104  36.281   8.541  1.00  0.00     0.205 HD
ENDROOT
BRANCH   1   3
HETATM    3  N2  UNL     1      11.619  36.303  10.011  1.00  0.00    -0.321 N
ATOM      4  H2  UNL     1      11.934  35.830  10.857  1.00  0.00     0.180 HD
BRANCH   3   5
HETATM    5  C2  UNL     1      12.468  37.310   9.417  1.00  0.00     0.167 C
BRANCH   5   6
HETATM    6  C1  UNL     1      13.775  37.374  10.174  1.00  0.00     0.250 C
BRANCH   6   7
HETATM    7  N1  UNL     1      13.985  38.743  10.643  1.00  0.00    -0.078 N
ATOM      8  H13 UNL     1      13.118  39.277  10.685  1.00  0.00     0.274 HD
ATOM      9  H12 UNL     1      14.224  38.781  11.633  1.00  0.00     0.274 HD
ATOM     10  H11 UNL     1      14.690  39.190  10.056  1.00  0.00     0.274 HD
ENDBRANCH   6   7
ENDBRANCH   5   6
ENDBRANCH   3   5
ENDBRANCH   1   3
BRANCH   1  11
HETATM   11  C3  UNL     1       9.590  35.199  10.172  1.00  0.00     0.712 A
HETATM   12  N4  UNL     1       9.243  33.904   9.924  1.00  0.00    -0.184 N
HETATM   13  C4  UNL     1       8.410  33.500  10.893  1.00  0.00     0.215 A
ATOM     14  H4  UNL     1       9.562  33.340   9.136  1.00  0.00     0.185 HD
HETATM   15  N5  UNL     1       8.227  34.518  11.745  1.00  0.00    -0.281 N
HETATM   16  N6  UNL     1       8.935  35.515  11.301  1.00  0.00    -0.130 N
ATOM     17  H5  UNL     1       7.644  34.512  12.583  1.00  0.00     0.188 HD
ATOM     18  H6  UNL     1       8.986  36.427  11.755  1.00  0.00     0.205 HD
ENDBRANCH   1  11
TORSDOF 5
ENDMDL