MODEL 1
REMARK VINA RESULT: -3.249126504      0.000      0.000
REMARK  4 active torsions:
REMARK  status: ('A' for Active; 'I' for Inactive)
REMARK    1  A    between atoms: N1_1  and  C1_5
REMARK    2  A    between atoms: C1_5  and  C2_6
REMARK    3  A    between atoms: C2_6  and  N2_7
REMARK    4  A    between atoms: N2_7  and  C3_9
ROOT
HETATM    1  C3  UNL     1       8.599  35.171  11.105  1.00  0.00     0.174 C
HETATM    2  C4  UNL     1       8.267  33.860  11.850  1.00  0.00     0.073 C
HETATM    3  C5  UNL     1       7.502  33.011  10.847  1.00  0.00     0.238 C
HETATM    4  N3  UNL     1       8.385  32.583   9.785  1.00  0.00    -0.060 N
ATOM      5  H31 UNL     1       7.855  32.268   8.973  1.00  0.00     0.279 HD
ATOM      6  H32 UNL     1       8.850  31.708  10.027  1.00  0.00     0.279 HD
HETATM    7  C6  UNL     1       9.345  33.595   9.417  1.00  0.00     0.351 C
HETATM    8  N4  UNL     1       8.869  34.890   9.742  1.00  0.00    -0.380 N
ATOM      9  H4  UNL     1       8.725  35.595   9.019  1.00  0.00     0.156 HD
ENDROOT
BRANCH   1  10
HETATM   10  N2  UNL     1       7.484  36.042  11.264  1.00  0.00    -0.400 N
ATOM     11  H2  UNL     1       6.837  35.923  12.043  1.00  0.00     0.155 HD
BRANCH  10  12
HETATM   12  C2  UNL     1       7.295  37.069  10.325  1.00  0.00     0.143 C
BRANCH  12  13
HETATM   13  C1  UNL     1       5.861  37.596  10.426  1.00  0.00     0.248 C
BRANCH  13  14
HETATM   14  N1  UNL     1       5.540  38.495   9.359  1.00  0.00    -0.078 N
ATOM     15  H13 UNL     1       4.762  39.104   9.613  1.00  0.00     0.274 HD
ATOM     16  H12 UNL     1       6.266  39.200   9.240  1.00  0.00     0.274 HD
ATOM     17  H11 UNL     1       5.355  38.004   8.485  1.00  0.00     0.274 HD
ENDBRANCH  13  14
ENDBRANCH  12  13
ENDBRANCH  10  12
ENDBRANCH   1  10
TORSDOF 4
ENDMDL