MODEL 4
REMARK VINA RESULT: -3.706309559      1.168      1.529
REMARK  5 active torsions:
REMARK  status: ('A' for Active; 'I' for Inactive)
REMARK    1  A    between atoms: N1_1  and  C1_5
REMARK    2  A    between atoms: C1_5  and  C2_6
REMARK    3  A    between atoms: C2_6  and  C3_7
REMARK    4  A    between atoms: C3_7  and  N2_8
REMARK    5  A    between atoms: N2_8  and  C4_10
ROOT
HETATM    1  C4  UNL     1       8.748  33.484  10.248  1.00  0.00     0.709 A
HETATM    2  N3  UNL     1       8.559  32.434   9.400  1.00  0.00    -0.115 N
ATOM      3  H3  UNL     1       9.048  32.274   8.519  1.00  0.00     0.207 HD
HETATM    4  N4  UNL     1       7.625  31.662   9.931  1.00  0.00    -0.213 N
ATOM      5  H4  UNL     1       7.280  30.800   9.509  1.00  0.00     0.210 HD
HETATM    6  N5  UNL     1       7.203  32.151  11.066  1.00  0.00    -0.213 N
ATOM      7  H5  UNL     1       6.490  31.754  11.678  1.00  0.00     0.210 HD
HETATM    8  N6  UNL     1       7.889  33.264  11.262  1.00  0.00    -0.115 N
ATOM      9  H6  UNL     1       7.781  33.875  12.071  1.00  0.00     0.207 HD
ENDROOT
BRANCH   1  10
HETATM   10  N2  UNL     1       9.582  34.466  10.086  1.00  0.00    -0.223 N
ATOM     11  H2  UNL     1      10.463  34.335   9.589  1.00  0.00     0.177 HD
BRANCH  10  12
HETATM   12  C3  UNL     1       9.218  35.738  10.631  1.00  0.00     0.140 C
BRANCH  12  13
HETATM   13  C2  UNL     1       7.912  36.263  10.132  1.00  0.00     0.047 C
BRANCH  13  14
HETATM   14  C1  UNL     1       7.003  36.775  11.196  1.00  0.00     0.231 C
BRANCH  14  15
HETATM   15  N1  UNL     1       5.905  37.471  10.528  1.00  0.00    -0.079 N
ATOM     16  H13 UNL     1       5.726  37.122   9.586  1.00  0.00     0.274 HD
ATOM     17  H12 UNL     1       4.992  37.252  10.925  1.00  0.00     0.274 HD
ATOM     18  H11 UNL     1       6.122  38.468  10.550  1.00  0.00     0.274 HD
ENDBRANCH  14  15
ENDBRANCH  13  14
ENDBRANCH  12  13
ENDBRANCH  10  12
ENDBRANCH   1  10
TORSDOF 5
ENDMDL