MODEL 4
REMARK VINA RESULT: -8.157696536      2.750      6.368
REMARK  6 active torsions:
REMARK  status: ('A' for Active; 'I' for Inactive)
REMARK    1  A    between atoms: C2_2  and  N1_3
REMARK    2  A    between atoms: C3_4  and  C4_5
REMARK    3  A    between atoms: N2_9  and  C8_10
REMARK    4  A    between atoms: C8_10  and  C9_11
REMARK    5  A    between atoms: C9_11  and  C10_12
REMARK    6  A    between atoms: C10_12  and  C11_13
ROOT
HETATM    1  C4  UNL     1      49.256  50.402  18.088  1.00  0.00     0.153 C
HETATM    2  C5  UNL     1      49.235  49.686  16.716  1.00  0.00     0.035 C
HETATM    3  C6  UNL     1      49.042  50.812  15.734  1.00  0.00     0.022 C
HETATM    4  C7  UNL     1      48.313  51.858  16.598  1.00  0.00     0.123 C
HETATM    5  N2  UNL     1      49.051  51.755  17.806  1.00  0.00    -0.382 N
ENDROOT
BRANCH   1   6
HETATM    6  C3  UNL     1      50.403  49.969  18.851  1.00  0.00     0.125 A
HETATM    7  N1  UNL     1      51.675  50.308  18.868  1.00  0.00    -0.285 N
HETATM    8  C18 UNL     1      52.345  49.584  19.819  1.00  0.00     0.342 A
HETATM    9  N4  UNL     1      51.443  48.779  20.396  1.00  0.00    -0.250 N
HETATM   10  O1  UNL     1      53.570  49.689  20.068  1.00  0.00    -0.245 OA
HETATM   11  N3  UNL     1      50.284  49.002  19.824  1.00  0.00    -0.283 N
ATOM     12  H4  UNL     1      51.625  48.112  21.145  1.00  0.00     0.192 HD
ATOM     13  H3  UNL     1      49.416  48.526  20.066  1.00  0.00     0.188 HD
BRANCH   7  14
HETATM   14  C2  UNL     1      52.355  51.265  18.044  1.00  0.00     0.131 C
HETATM   15  C1  UNL     1      52.528  52.624  18.688  1.00  0.00     0.027 C
ENDBRANCH   7  14
ENDBRANCH   1   6
BRANCH   5  16
HETATM   16  C8  UNL     1      48.992  52.735  18.768  1.00  0.00     0.059 C
BRANCH  16  17
HETATM   17  C9  UNL     1      48.593  54.127  18.459  1.00  0.00     0.044 C
BRANCH  17  18
HETATM   18  C10 UNL     1      49.723  55.081  18.509  1.00  0.00     0.009 C
BRANCH  18  19
HETATM   19  C11 UNL     1      49.564  56.065  19.697  1.00  0.00    -0.014 C
HETATM   20  C12 UNL     1      48.106  56.261  20.007  1.00  0.00     0.004 C
HETATM   21  C13 UNL     1      47.919  57.717  20.347  1.00  0.00     0.000 C
HETATM   22  C14 UNL     1      48.525  57.941  21.716  1.00  0.00     0.000 C
HETATM   23  C15 UNL     1      50.028  57.958  21.666  1.00  0.00     0.000 C
HETATM   24  C16 UNL     1      50.641  56.607  21.900  1.00  0.00     0.000 C
HETATM   25  C17 UNL     1      50.277  55.566  20.911  1.00  0.00     0.004 C
ENDBRANCH  18  19
ENDBRANCH  17  18
ENDBRANCH  16  17
ENDBRANCH   5  16
TORSDOF 6
ENDMDL