MODEL 1
REMARK VINA RESULT: -7.628665421      0.000      0.000
REMARK  8 active torsions:
REMARK  status: ('A' for Active; 'I' for Inactive)
REMARK    1  A    between atoms: C2_2  and  O1_3
REMARK    2  A    between atoms: O1_3  and  C3_4
REMARK    3  A    between atoms: C3_4  and  C4_6
REMARK    4  A    between atoms: C4_6  and  C5_7
REMARK    5  A    between atoms: C5_7  and  C6_8
REMARK    6  A    between atoms: C6_8  and  O3_9
REMARK    7  A    between atoms: C9_13  and  N1_14
REMARK       I    between atoms: N1_14  and  C10_16
REMARK    8  A    between atoms: C10_16  and  C11_18
ROOT
HETATM    1  C5  UNL     1      48.885  50.084  17.088  1.00  0.00    -0.010 C
HETATM    2  C7  UNL     1      50.178  50.661  17.646  1.00  0.00     0.014 C
HETATM    3  C8  UNL     1      49.977  51.788  18.595  1.00  0.00     0.026 C
HETATM    4  C9  UNL     1      49.213  52.945  17.976  1.00  0.00     0.084 C
HETATM    5  C17 UNL     1      48.135  52.505  17.050  1.00  0.00     0.026 C
HETATM    6  C18 UNL     1      47.772  51.066  17.085  1.00  0.00     0.014 C
ENDROOT
BRANCH   4   7
HETATM    7  N1  UNL     1      48.781  53.860  19.008  1.00  0.00    -0.356 N
HETATM    8  C10 UNL     1      49.650  54.858  19.510  1.00  0.00     0.222 C
HETATM    9  O4  UNL     1      50.821  54.958  19.046  1.00  0.00    -0.273 OA
ATOM     10  H1  UNL     1      47.834  53.786  19.381  1.00  0.00     0.162 HD
BRANCH   8  11
HETATM   11  C11 UNL     1      49.249  55.813  20.574  1.00  0.00     0.078 C
HETATM   12  C12 UNL     1      50.465  56.700  20.808  1.00  0.00     0.014 C
HETATM   13  C13 UNL     1      50.197  57.891  21.659  1.00  0.00     0.001 C
HETATM   14  C14 UNL     1      48.753  58.219  21.848  1.00  0.00     0.000 C
HETATM   15  C15 UNL     1      48.069  58.045  20.519  1.00  0.00     0.001 C
HETATM   16  C16 UNL     1      48.080  56.625  20.070  1.00  0.00     0.014 C
ENDBRANCH   8  11
ENDBRANCH   4   7
BRANCH   1  17
HETATM   17  C4  UNL     1      49.254  49.500  15.767  1.00  0.00     0.122 C
BRANCH  17  18
HETATM   18  C3  UNL     1      48.177  49.188  14.841  1.00  0.00     0.259 C
HETATM   19  O2  UNL     1      47.967  49.926  13.817  1.00  0.00    -0.265 OA
BRANCH  18  20
HETATM   20  O1  UNL     1      47.314  48.115  14.978  1.00  0.00    -0.322 OA
BRANCH  20  21
HETATM   21  C2  UNL     1      45.913  48.174  14.822  1.00  0.00     0.174 C
HETATM   22  C1  UNL     1      45.294  48.485  16.161  1.00  0.00     0.034 C
ENDBRANCH  20  21
ENDBRANCH  18  20
ENDBRANCH  17  18
ENDBRANCH   1  17
BRANCH   1  23
HETATM   23  C6  UNL     1      48.495  48.957  18.045  1.00  0.00     0.174 C
BRANCH  23  24
HETATM   24  O3  UNL     1      49.593  48.103  18.270  1.00  0.00    -0.400 OA
ATOM     25  H3  UNL     1      49.405  47.503  18.982  1.00  0.00     0.209 HD
ENDBRANCH  23  24
ENDBRANCH   1  23
TORSDOF 8
ENDMDL