MODEL 1
REMARK VINA RESULT: -7.868912304      0.000      0.000
REMARK  6 active torsions:
REMARK  status: ('A' for Active; 'I' for Inactive)
REMARK    1  A    between atoms: C2_2  and  C5_5
REMARK    2  A    between atoms: C7_7  and  C8_8
REMARK    3  A    between atoms: C9_11  and  C10_12
REMARK    4  A    between atoms: C10_12  and  C11_13
REMARK    5  A    between atoms: C12_14  and  C13_15
REMARK    6  A    between atoms: C14_18  and  C15_19
ROOT
HETATM    1  C5  UNL     1      49.488  51.953  17.706  1.00  0.00     0.130 C
HETATM    2  C6  UNL     1      49.628  53.395  18.016  1.00  0.00     0.048 C
HETATM    3  C7  UNL     1      50.979  53.671  18.639  1.00  0.00     0.096 C
HETATM    4  C9  UNL     1      51.136  52.743  19.903  1.00  0.00     0.035 C
HETATM    5  C14 UNL     1      50.800  51.405  19.450  1.00  0.00     0.163 C
HETATM    6  O6  UNL     1      49.486  51.309  18.934  1.00  0.00    -0.376 OA
ENDROOT
BRANCH   4   7
HETATM    7  C10 UNL     1      50.444  53.497  20.962  1.00  0.00     0.035 C
BRANCH   7   8
HETATM    8  C11 UNL     1      51.046  53.616  22.282  1.00  0.00    -0.019 C
HETATM    9  C12 UNL     1      51.540  54.605  22.928  1.00  0.00     0.080 C
BRANCH   9  10
HETATM   10  C13 UNL     1      51.648  55.966  22.508  1.00  0.00     0.198 C
HETATM   11  O3  UNL     1      52.831  56.452  22.324  1.00  0.00    -0.645 OA
HETATM   12  O4  UNL     1      50.619  56.803  22.283  1.00  0.00    -0.645 OA
ENDBRANCH   9  10
ENDBRANCH   7   8
ENDBRANCH   4   7
BRANCH   3  13
HETATM   13  C8  UNL     1      50.981  55.088  18.952  1.00  0.00     0.177 C
HETATM   14  O1  UNL     1      52.033  55.766  19.140  1.00  0.00    -0.648 OA
HETATM   15  O2  UNL     1      49.795  55.851  19.079  1.00  0.00    -0.648 OA
ENDBRANCH   3  13
BRANCH   5  16
HETATM   16  C15 UNL     1      51.098  50.114  20.001  1.00  0.00     0.105 A
HETATM   17  C16 UNL     1      52.645  49.844  19.805  1.00  0.00     0.051 C
HETATM   18  C17 UNL     1      50.424  48.861  20.098  1.00  0.00     0.209 A
HETATM   19  O5  UNL     1      50.774  49.689  21.279  1.00  0.00    -0.373 OA
ENDBRANCH   5  16
BRANCH   1  20
HETATM   20  C2  UNL     1      48.251  51.693  16.895  1.00  0.00    -0.025 C
HETATM   21  C1  UNL     1      47.639  52.985  16.451  1.00  0.00     0.017 C
HETATM   22  C3  UNL     1      48.716  50.972  15.623  1.00  0.00     0.017 C
HETATM   23  C4  UNL     1      47.222  50.842  17.546  1.00  0.00     0.017 C
ENDBRANCH   1  20
TORSDOF 6
ENDMDL