MODEL 2
REMARK VINA RESULT: -7.689081919      2.178      3.100
REMARK  7 active torsions:
REMARK  status: ('A' for Active; 'I' for Inactive)
REMARK    1  A    between atoms: C2_2  and  C3_3
REMARK    2  A    between atoms: C3_3  and  C4_4
REMARK    3  A    between atoms: C4_4  and  C5_5
REMARK    4  A    between atoms: C5_5  and  C6_6
REMARK    5  A    between atoms: C10_14  and  N3_15
REMARK    6  A    between atoms: N3_15  and  C11_17
REMARK    7  A    between atoms: C11_17  and  C12_18
ROOT
HETATM    1  C5  UNL     1      48.062  49.249  17.894  1.00  0.00     0.083 C
HETATM    2  C8  UNL     1      47.569  50.539  17.199  1.00  0.00     0.159 C
HETATM    3  N1  UNL     1      48.729  51.371  16.940  1.00  0.00    -0.371 N
ATOM      4  H1  UNL     1      48.863  51.801  16.025  1.00  0.00     0.161 HD
HETATM    5  C9  UNL     1      49.681  51.580  17.982  1.00  0.00     0.152 A
HETATM    6  N2  UNL     1      50.534  52.621  17.979  1.00  0.00    -0.174 N
ATOM      7  H2  UNL     1      50.495  53.281  17.202  1.00  0.00     0.186 HD
HETATM    8  C10 UNL     1      51.432  52.828  18.953  1.00  0.00     0.679 A
HETATM    9  N4  UNL     1      51.471  51.952  19.968  1.00  0.00    -0.199 N
ATOM     10  H4  UNL     1      52.152  52.101  20.713  1.00  0.00     0.183 HD
HETATM   11  C16 UNL     1      50.659  50.888  20.049  1.00  0.00     0.146 A
HETATM   12  C17 UNL     1      49.730  50.693  19.022  1.00  0.00     0.130 A
HETATM   13  O2  UNL     1      48.857  49.622  19.031  1.00  0.00    -0.333 OA
ENDROOT
BRANCH   8  14
HETATM   14  N3  UNL     1      52.246  53.812  18.961  1.00  0.00    -0.224 N
ATOM     15  H3  UNL     1      53.230  53.581  18.821  1.00  0.00     0.177 HD
BRANCH  14  16
HETATM   16  C11 UNL     1      51.948  55.193  19.143  1.00  0.00     0.170 C
BRANCH  16  17
HETATM   17  C12 UNL     1      52.196  55.667  20.560  1.00  0.00     0.139 C
HETATM   18  C13 UNL     1      51.170  56.650  21.040  1.00  0.00     0.035 C
HETATM   19  C14 UNL     1      51.229  56.406  22.554  1.00  0.00     0.029 C
HETATM   20  C15 UNL     1      51.577  54.939  22.586  1.00  0.00     0.168 C
HETATM   21  O1  UNL     1      52.255  54.628  21.445  1.00  0.00    -0.384 OA
ENDBRANCH  16  17
ENDBRANCH  14  16
ENDBRANCH   8  14
BRANCH   1  22
HETATM   22  C4  UNL     1      46.858  48.576  18.409  1.00  0.00     0.040 C
BRANCH  22  23
HETATM   23  C3  UNL     1      45.541  48.923  17.799  1.00  0.00     0.003 C
BRANCH  23  24
HETATM   24  C2  UNL     1      44.524  47.788  18.029  1.00  0.00    -0.004 C
HETATM   25  C1  UNL     1      44.753  47.154  19.390  1.00  0.00     0.005 C
ENDBRANCH  23  24
ENDBRANCH  22  23
ENDBRANCH   1  22
BRANCH   1  26
HETATM   26  C6  UNL     1      48.913  48.562  16.898  1.00  0.00     0.036 C
HETATM   27  C7  UNL     1      48.781  47.093  16.762  1.00  0.00     0.008 C
ENDBRANCH   1  26
TORSDOF 7
ENDMDL