MODEL 4
REMARK VINA RESULT: -8.567684282      0.632      2.054
REMARK  7 active torsions:
REMARK  status: ('A' for Active; 'I' for Inactive)
REMARK    1  A    between atoms: N1_1  and  C1_4
REMARK    2  A    between atoms: N2_8  and  C4_9
REMARK    3  A    between atoms: C4_9  and  C5_10
REMARK    4  A    between atoms: C5_10  and  C6_11
REMARK       I    between atoms: C6_11  and  N3_13
REMARK    5  A    between atoms: N3_13  and  C7_15
REMARK    6  A    between atoms: C7_15  and  C8_16
REMARK    7  A    between atoms: C8_16  and  C9_17
ROOT
HETATM    1  C6  UNL     1      51.772  51.489  20.904  1.00  0.00     0.219 C
HETATM    2  O1  UNL     1      52.812  50.815  20.737  1.00  0.00    -0.274 OA
HETATM    3  N3  UNL     1      50.585  51.211  20.144  1.00  0.00    -0.361 N
ATOM      4  H3  UNL     1      49.730  51.754  20.269  1.00  0.00     0.162 HD
ENDROOT
BRANCH   3   5
HETATM    5  C7  UNL     1      50.660  50.133  19.202  1.00  0.00     0.123 C
BRANCH   5   6
HETATM    6  C8  UNL     1      49.664  49.058  19.291  1.00  0.00     0.029 C
BRANCH   6   7
HETATM    7  C9  UNL     1      48.606  48.924  18.273  1.00  0.00    -0.038 C
HETATM    8  C10 UNL     1      48.852  47.786  17.298  1.00  0.00     0.014 C
HETATM    9  C11 UNL     1      47.638  47.680  16.408  1.00  0.00    -0.013 C
HETATM   10  C12 UNL     1      47.359  48.918  15.610  1.00  0.00     0.009 C
HETATM   11  C16 UNL     1      46.422  47.288  17.255  1.00  0.00     0.009 C
HETATM   12  C13 UNL     1      47.112  50.049  16.592  1.00  0.00    -0.013 C
HETATM   13  C14 UNL     1      45.898  49.750  17.397  1.00  0.00     0.009 C
HETATM   14  C18 UNL     1      48.367  50.149  17.450  1.00  0.00     0.014 C
HETATM   15  C15 UNL     1      46.132  48.448  18.152  1.00  0.00    -0.013 C
HETATM   16  C17 UNL     1      47.310  48.641  19.067  1.00  0.00     0.014 C
ENDBRANCH   6   7
ENDBRANCH   5   6
ENDBRANCH   3   5
BRANCH   1  17
HETATM   17  C5  UNL     1      51.786  52.580  21.898  1.00  0.00     0.123 C
BRANCH  17  18
HETATM   18  C4  UNL     1      50.674  53.563  21.614  1.00  0.00     0.139 C
BRANCH  18  19
HETATM   19  N2  UNL     1      51.336  54.782  21.088  1.00  0.00    -0.337 N
HETATM   20  C1  UNL     1      51.766  55.707  21.936  1.00  0.00     0.144 A
HETATM   21  S1  UNL     1      52.432  56.896  20.910  1.00  0.00    -0.065 SA
HETATM   22  C2  UNL     1      52.121  56.132  19.415  1.00  0.00     0.070 A
HETATM   23  C3  UNL     1      51.504  54.973  19.808  1.00  0.00     0.100 A
BRANCH  20  24
HETATM   24  N1  UNL     1      51.717  55.746  23.246  1.00  0.00    -0.379 N
ATOM     25  H12 UNL     1      51.245  55.130  23.908  1.00  0.00     0.158 HD
ATOM     26  H11 UNL     1      52.169  56.434  23.850  1.00  0.00     0.158 HD
ENDBRANCH  20  24
ENDBRANCH  18  19
ENDBRANCH  17  18
ENDBRANCH   1  17
TORSDOF 7
ENDMDL