MODEL 4
REMARK VINA RESULT: -8.078582611      3.139      8.393
REMARK  6 active torsions:
REMARK  status: ('A' for Active; 'I' for Inactive)
REMARK    1  A    between atoms: C2_2  and  C3_3
REMARK    2  A    between atoms: C3_3  and  N1_4
REMARK       I    between atoms: C4_6  and  N2_7
REMARK       I    between atoms: C4_6  and  N4_11
REMARK    3  A    between atoms: N4_11  and  N5_13
REMARK    4  A    between atoms: N6_19  and  C10_20
REMARK    5  A    between atoms: C10_20  and  C11_21
REMARK    6  A    between atoms: C11_21  and  C12_22
ROOT
HETATM    1  N1  UNL     1      47.060  47.423  17.247  1.00  0.00    -0.224 N
ATOM      2  H1  UNL     1      47.219  46.654  16.596  1.00  0.00     0.177 HD
HETATM    3  C4  UNL     1      47.964  48.325  17.292  1.00  0.00     0.701 C
HETATM    4  N2  UNL     1      49.083  48.130  16.417  1.00  0.00    -0.125 N
ATOM      5  H2  UNL     1      49.702  47.339  16.589  1.00  0.00     0.197 HD
HETATM    6  C5  UNL     1      49.365  48.972  15.342  1.00  0.00     0.196 C
HETATM    7  N3  UNL     1      49.583  49.666  14.431  1.00  0.00    -0.171 NA
HETATM    8  N4  UNL     1      47.953  49.476  18.118  1.00  0.00    -0.132 N
ATOM      9  H4  UNL     1      47.042  49.848  18.385  1.00  0.00     0.205 HD
ENDROOT
BRANCH   1  10
HETATM   10  C3  UNL     1      45.846  47.371  18.011  1.00  0.00     0.138 C
BRANCH  10  11
HETATM   11  C2  UNL     1      44.763  48.141  17.275  1.00  0.00     0.016 C
HETATM   12  C1  UNL     1      44.691  47.765  15.826  1.00  0.00     0.006 C
ENDBRANCH  10  11
ENDBRANCH   1  10
BRANCH   8  13
HETATM   13  N5  UNL     1      49.074  50.139  18.594  1.00  0.00    -0.293 N
HETATM   14  C6  UNL     1      49.353  51.369  18.251  1.00  0.00     0.032 C
HETATM   15  C7  UNL     1      48.383  52.002  17.315  1.00  0.00     0.057 C
HETATM   16  C17 UNL     1      50.531  52.056  18.760  1.00  0.00     0.326 C
HETATM   17  C8  UNL     1      48.160  53.411  17.887  1.00  0.00     0.036 C
HETATM   18  C9  UNL     1      49.531  54.036  17.879  1.00  0.00     0.273 C
HETATM   19  N6  UNL     1      50.393  53.501  18.910  1.00  0.00     0.093 N
ATOM     20  H5  UNL     1      49.701  49.651  19.234  1.00  0.00     0.186 HD
BRANCH  19  21
HETATM   21  C10 UNL     1      49.997  53.871  20.225  1.00  0.00     0.273 C
BRANCH  21  22
HETATM   22  C11 UNL     1      50.597  55.139  20.697  1.00  0.00     0.034 C
BRANCH  22  23
HETATM   23  C12 UNL     1      49.669  56.161  21.248  1.00  0.00    -0.013 C
HETATM   24  C13 UNL     1      48.527  56.490  20.310  1.00  0.00     0.005 C
HETATM   25  C14 UNL     1      47.961  57.772  20.880  1.00  0.00     0.000 C
HETATM   26  C15 UNL     1      48.926  58.246  21.951  1.00  0.00     0.000 C
HETATM   27  C16 UNL     1      50.234  57.517  21.532  1.00  0.00     0.005 C
ENDBRANCH  22  23
ENDBRANCH  21  22
ENDBRANCH  19  21
ENDBRANCH   8  13
TORSDOF 6
ENDMDL