MODEL 5
REMARK VINA RESULT: -7.770219186      3.204      7.093
REMARK  6 active torsions:
REMARK  status: ('A' for Active; 'I' for Inactive)
REMARK    1  A    between atoms: N3_4  and  C2_6
REMARK    2  A    between atoms: C2_6  and  C3_7
REMARK    3  A    between atoms: C3_7  and  C4_8
REMARK    4  A    between atoms: C4_8  and  C5_9
REMARK    5  A    between atoms: C5_9  and  C6_10
REMARK    6  A    between atoms: C6_10  and  C7_11
ROOT
HETATM    1  C7  UNL     1      49.871  54.738  18.984  1.00  0.00     0.156 C
HETATM    2  O1  UNL     1      50.857  54.237  19.846  1.00  0.00    -0.382 OA
HETATM    3  C8  UNL     1      52.031  54.977  19.684  1.00  0.00     0.173 C
HETATM    4  C9  UNL     1      51.786  56.455  19.643  1.00  0.00     0.016 C
HETATM    5  C10 UNL     1      52.816  57.251  20.398  1.00  0.00     0.007 C
HETATM    6  C11 UNL     1      52.950  56.719  21.777  1.00  0.00     0.000 C
HETATM    7  C12 UNL     1      51.759  56.144  22.421  1.00  0.00     0.001 C
HETATM    8  C13 UNL     1      50.450  56.301  21.757  1.00  0.00     0.008 C
HETATM    9  C14 UNL     1      50.468  56.732  20.333  1.00  0.00     0.029 C
HETATM   10  C15 UNL     1      49.406  56.079  19.460  1.00  0.00     0.091 C
HETATM   11  C16 UNL     1      48.058  56.096  20.105  1.00  0.00     0.043 C
HETATM   12  C17 UNL     1      47.550  57.478  19.659  1.00  0.00     0.029 C
HETATM   13  C18 UNL     1      48.102  57.470  18.247  1.00  0.00     0.169 C
HETATM   14  O2  UNL     1      49.336  56.896  18.317  1.00  0.00    -0.377 OA
ENDROOT
BRANCH   1  15
HETATM   15  C6  UNL     1      48.751  53.737  18.806  1.00  0.00     0.035 C
BRANCH  15  16
HETATM   16  C5  UNL     1      48.414  53.542  17.348  1.00  0.00     0.003 C
BRANCH  16  17
HETATM   17  C4  UNL     1      47.710  52.243  17.070  1.00  0.00     0.002 C
BRANCH  17  18
HETATM   18  C3  UNL     1      48.462  51.410  16.071  1.00  0.00     0.020 C
BRANCH  18  19
HETATM   19  C2  UNL     1      49.319  50.362  16.766  1.00  0.00     0.122 C
BRANCH  19  20
HETATM   20  N3  UNL     1      50.701  50.804  16.829  1.00  0.00    -0.367 N
HETATM   21  C1  UNL     1      51.281  50.992  17.966  1.00  0.00     0.196 C
HETATM   22  N1  UNL     1      50.569  50.768  19.176  1.00  0.00    -0.067 NA
HETATM   23  N2  UNL     1      52.628  51.422  17.966  1.00  0.00    -0.067 NA
ATOM     24  H3  UNL     1      51.218  50.967  15.965  1.00  0.00     0.161 HD
ENDBRANCH  19  20
ENDBRANCH  18  19
ENDBRANCH  17  18
ENDBRANCH  16  17
ENDBRANCH  15  16
ENDBRANCH   1  15
TORSDOF 6
ENDMDL