MODEL 1
REMARK VINA RESULT: -7.683490804      0.000      0.000
REMARK  6 active torsions:
REMARK  status: ('A' for Active; 'I' for Inactive)
REMARK    1  A    between atoms: C2_2  and  C3_3
REMARK    2  A    between atoms: C3_3  and  C4_4
REMARK    3  A    between atoms: C5_5  and  C6_6
REMARK    4  A    between atoms: C6_6  and  C8_8
REMARK    5  A    between atoms: C11_13  and  O1_14
REMARK    6  A    between atoms: O1_14  and  S1_15
ROOT
HETATM    1  C8  UNL     1      51.007  52.297  19.448  1.00  0.00     0.103 C
HETATM    2  N1  UNL     1      51.561  53.229  18.456  1.00  0.00    -0.386 N
ATOM      3  H1  UNL     1      51.732  53.229  17.450  1.00  0.00     0.160 HD
HETATM    4  C9  UNL     1      51.748  54.123  19.528  1.00  0.00     0.014 C
HETATM    5  C10 UNL     1      52.443  55.093  20.054  1.00  0.00     0.032 C
HETATM    6  C11 UNL     1      51.971  55.590  21.393  1.00  0.00     0.169 C
HETATM    7  C12 UNL     1      51.572  54.456  22.294  1.00  0.00     0.039 C
HETATM    8  C13 UNL     1      50.663  53.453  21.665  1.00  0.00     0.020 C
HETATM    9  C14 UNL     1      50.569  53.530  20.178  1.00  0.00     0.019 C
HETATM   10  C15 UNL     1      49.278  54.149  19.693  1.00  0.00     0.024 C
ENDROOT
BRANCH   1  11
HETATM   11  C6  UNL     1      49.909  51.412  18.922  1.00  0.00     0.027 C
HETATM   12  C7  UNL     1      50.340  49.983  19.306  1.00  0.00     0.016 C
BRANCH  11  13
HETATM   13  C5  UNL     1      49.923  51.441  17.436  1.00  0.00    -0.024 C
HETATM   14  C4  UNL     1      48.821  51.441  16.717  1.00  0.00    -0.030 C
BRANCH  14  15
HETATM   15  C3  UNL     1      47.438  51.414  17.241  1.00  0.00     0.026 C
BRANCH  15  16
HETATM   16  C2  UNL     1      46.775  50.068  16.926  1.00  0.00    -0.001 C
HETATM   17  C1  UNL     1      46.910  49.189  18.159  1.00  0.00     0.005 C
ENDBRANCH  15  16
ENDBRANCH  14  15
ENDBRANCH  11  13
ENDBRANCH   1  11
BRANCH   6  18
HETATM   18  O1  UNL     1      52.990  56.324  21.958  1.00  0.00    -0.247 OA
BRANCH  18  19
HETATM   19  S1  UNL     1      53.084  57.822  21.248  1.00  0.00     0.252 S
HETATM   20  O2  UNL     1      53.382  58.826  22.333  1.00  0.00    -0.572 OA
HETATM   21  O3  UNL     1      51.754  58.189  20.621  1.00  0.00    -0.572 OA
HETATM   22  O4  UNL     1      54.311  57.923  20.115  1.00  0.00    -0.572 OA
ENDBRANCH  18  19
ENDBRANCH   6  18
TORSDOF 6
ENDMDL