MODEL 3
REMARK VINA RESULT: -7.814606318      1.338      1.725
REMARK  6 active torsions:
REMARK  status: ('A' for Active; 'I' for Inactive)
REMARK    1  A    between atoms: C2_2  and  C3_3
REMARK    2  A    between atoms: C3_3  and  N1_4
REMARK    3  A    between atoms: C6_11  and  N3_12
REMARK       I    between atoms: N3_12  and  C7_14
REMARK    4  A    between atoms: C7_14  and  C8_16
REMARK    5  A    between atoms: C8_16  and  C9_17
REMARK    6  A    between atoms: C9_17  and  C10_18
ROOT
HETATM    1  N1  UNL     1      47.605  48.815  17.733  1.00  0.00    -0.371 N
ATOM      2  H1  UNL     1      47.679  47.854  18.067  1.00  0.00     0.161 HD
HETATM    3  C4  UNL     1      48.492  49.677  18.026  1.00  0.00     0.142 C
HETATM    4  N2  UNL     1      48.480  51.037  17.611  1.00  0.00    -0.306 N
ATOM      5  H2  UNL     1      47.912  51.289  16.803  1.00  0.00     0.171 HD
HETATM    6  C5  UNL     1      49.217  52.061  18.263  1.00  0.00     0.247 C
HETATM    7  O1  UNL     1      49.182  53.207  17.738  1.00  0.00    -0.271 OA
HETATM    8  C6  UNL     1      49.973  51.764  19.489  1.00  0.00     0.186 C
HETATM    9  C16 UNL     1      50.929  50.590  19.292  1.00  0.00     0.117 C
HETATM   10  S1  UNL     1      49.876  49.125  19.049  1.00  0.00    -0.092 SA
ENDROOT
BRANCH   8  11
HETATM   11  N3  UNL     1      50.821  52.909  19.828  1.00  0.00    -0.347 N
HETATM   12  C7  UNL     1      51.018  53.327  21.175  1.00  0.00     0.218 C
HETATM   13  O2  UNL     1      50.421  52.655  22.067  1.00  0.00    -0.274 OA
ATOM     14  H3  UNL     1      51.285  53.421  19.077  1.00  0.00     0.163 HD
BRANCH  12  15
HETATM   15  C8  UNL     1      51.868  54.471  21.490  1.00  0.00     0.103 C
BRANCH  15  16
HETATM   16  C9  UNL     1      51.484  55.773  20.879  1.00  0.00     0.014 C
BRANCH  16  17
HETATM   17  C10 UNL     1      50.085  56.216  21.114  1.00  0.00    -0.014 C
HETATM   18  C11 UNL     1      49.340  56.280  19.772  1.00  0.00     0.004 C
HETATM   19  C12 UNL     1      47.882  56.562  20.154  1.00  0.00     0.000 C
HETATM   20  C13 UNL     1      47.768  57.929  20.742  1.00  0.00     0.000 C
HETATM   21  C14 UNL     1      48.741  58.206  21.841  1.00  0.00     0.000 C
HETATM   22  C15 UNL     1      50.102  57.641  21.624  1.00  0.00     0.004 C
ENDBRANCH  16  17
ENDBRANCH  15  16
ENDBRANCH  12  15
ENDBRANCH   8  11
BRANCH   1  23
HETATM   23  C3  UNL     1      46.488  49.233  16.914  1.00  0.00     0.121 C
BRANCH  23  24
HETATM   24  C2  UNL     1      45.156  48.866  17.566  1.00  0.00     0.015 C
HETATM   25  C1  UNL     1      45.329  47.779  18.577  1.00  0.00     0.006 C
ENDBRANCH  23  24
ENDBRANCH   1  23
TORSDOF 6
ENDMDL