MODEL 4
REMARK VINA RESULT: -6.735129983      3.058      4.833
REMARK  7 active torsions:
REMARK  status: ('A' for Active; 'I' for Inactive)
REMARK    1  A    between atoms: C2_2  and  C3_3
REMARK    2  A    between atoms: C3_3  and  C4_4
REMARK    3  A    between atoms: C6_9  and  C7_10
REMARK    4  A    between atoms: C7_10  and  C8_11
REMARK    5  A    between atoms: C14_17  and  O2_18
REMARK    6  A    between atoms: C15_20  and  N2_21
REMARK    7  A    between atoms: N3_23  and  N4_25
ROOT
HETATM    1  C4  UNL     1      50.430  55.684  20.309  1.00  0.00     0.104 C
HETATM    2  C5  UNL     1      51.724  55.501  19.610  1.00  0.00     0.224 C
HETATM    3  O1  UNL     1      52.259  56.513  19.059  1.00  0.00    -0.273 OA
HETATM    4  N1  UNL     1      52.311  54.219  19.583  1.00  0.00    -0.353 N
ATOM      5  H1  UNL     1      53.327  54.133  19.546  1.00  0.00     0.163 HD
HETATM    6  C6  UNL     1      51.513  53.052  19.606  1.00  0.00     0.115 C
HETATM    7  C14 UNL     1      50.190  53.181  20.311  1.00  0.00     0.165 C
HETATM    8  C15 UNL     1      49.517  54.499  20.129  1.00  0.00     0.144 C
ENDROOT
BRANCH   6   9
HETATM    9  C7  UNL     1      52.193  51.829  20.164  1.00  0.00     0.032 C
BRANCH   9  10
HETATM   10  C8  UNL     1      52.097  50.613  19.314  1.00  0.00    -0.013 C
HETATM   11  C9  UNL     1      51.280  50.812  18.072  1.00  0.00     0.005 C
HETATM   12  C10 UNL     1      50.171  49.811  17.914  1.00  0.00     0.000 C
HETATM   13  C11 UNL     1      49.366  49.831  19.193  1.00  0.00     0.000 C
HETATM   14  C12 UNL     1      50.205  49.247  20.275  1.00  0.00     0.000 C
HETATM   15  C13 UNL     1      51.665  49.456  20.153  1.00  0.00     0.005 C
ENDBRANCH   9  10
ENDBRANCH   6   9
BRANCH   7  16
HETATM   16  O2  UNL     1      50.301  52.913  21.687  1.00  0.00    -0.391 OA
ATOM     17  H2  UNL     1      50.559  53.684  22.178  1.00  0.00     0.210 HD
ENDBRANCH   7  16
BRANCH   8  18
HETATM   18  N2  UNL     1      48.847  54.540  18.853  1.00  0.00    -0.314 N
HETATM   19  N3  UNL     1      48.805  53.545  18.064  1.00  0.00    -0.250 N
ATOM     20  H3  UNL     1      49.267  52.682  18.350  1.00  0.00     0.207 HD
ATOM     21  H2  UNL     1      48.386  55.406  18.573  1.00  0.00     0.182 HD
BRANCH  19  22
HETATM   22  N4  UNL     1      48.166  53.572  16.837  1.00  0.00    -0.323 N
HETATM   23  C16 UNL     1      47.731  54.763  16.153  1.00  0.00     0.172 C
HETATM   24  C17 UNL     1      47.911  52.287  16.182  1.00  0.00     0.172 C
ENDBRANCH  19  22
ENDBRANCH   8  18
BRANCH   1  25
HETATM   25  C3  UNL     1      50.669  56.006  21.761  1.00  0.00     0.016 C
BRANCH  25  26
HETATM   26  C2  UNL     1      50.369  57.457  22.070  1.00  0.00    -0.004 C
HETATM   27  C1  UNL     1      48.964  57.833  21.653  1.00  0.00     0.005 C
ENDBRANCH  25  26
ENDBRANCH   1  25
TORSDOF 7
ENDMDL