MODEL 1
REMARK VINA RESULT: -5.664594021      0.000      0.000
REMARK  5 active torsions:
REMARK  status: ('A' for Active; 'I' for Inactive)
REMARK    1  A    between atoms: N1_1  and  C1_4
REMARK    2  A    between atoms: C2_7  and  N3_8
REMARK    3  A    between atoms: N3_8  and  N4_10
REMARK    4  A    between atoms: C3_17  and  C4_18
REMARK       I    between atoms: C4_18  and  N7_20
REMARK    5  A    between atoms: N7_20  and  N8_22
ROOT
HETATM    1  C1  UNL     1      17.608  56.420  11.567  1.00  0.00     0.148 A
HETATM    2  N2  UNL     1      17.505  57.317  10.570  1.00  0.00    -0.172 N
ATOM      3  H2  UNL     1      18.008  58.201  10.651  1.00  0.00     0.186 HD
HETATM    4  C2  UNL     1      16.766  57.092   9.470  1.00  0.00     0.712 A
HETATM    5  N5  UNL     1      16.116  55.919   9.391  1.00  0.00    -0.130 N
ATOM      6  H5  UNL     1      15.548  55.720   8.568  1.00  0.00     0.205 HD
HETATM    7  N6  UNL     1      16.195  55.005  10.363  1.00  0.00    -0.278 N
ATOM      8  H6  UNL     1      15.686  54.127  10.266  1.00  0.00     0.188 HD
HETATM    9  C3  UNL     1      16.926  55.219  11.458  1.00  0.00     0.162 A
ENDROOT
BRANCH   9  10
HETATM   10  C4  UNL     1      17.031  54.242  12.532  1.00  0.00     0.291 C
HETATM   11  O1  UNL     1      18.083  53.583  12.695  1.00  0.00    -0.264 OA
HETATM   12  N7  UNL     1      15.960  54.003  13.425  1.00  0.00    -0.271 N
ATOM     13  H7  UNL     1      15.100  54.537  13.298  1.00  0.00     0.189 HD
BRANCH  12  14
HETATM   14  N8  UNL     1      16.013  53.080  14.464  1.00  0.00    -0.342 N
ATOM     15  H82 UNL     1      16.494  53.368  15.317  1.00  0.00     0.176 HD
ATOM     16  H81 UNL     1      15.602  52.148  14.415  1.00  0.00     0.176 HD
ENDBRANCH  12  14
ENDBRANCH   9  10
BRANCH   1  17
HETATM   17  N1  UNL     1      18.312  56.613  12.632  1.00  0.00    -0.383 N
ATOM     18  H12 UNL     1      19.322  56.704  12.522  1.00  0.00     0.157 HD
ATOM     19  H11 UNL     1      17.912  56.677  13.569  1.00  0.00     0.157 HD
ENDBRANCH   1  17
BRANCH   4  20
HETATM   20  N3  UNL     1      16.705  57.985   8.547  1.00  0.00    -0.137 N
ATOM     21  H3  UNL     1      15.807  58.442   8.386  1.00  0.00     0.205 HD
BRANCH  20  22
HETATM   22  N4  UNL     1      17.771  58.363   7.761  1.00  0.00    -0.331 N
ATOM     23  H42 UNL     1      18.210  59.257   7.983  1.00  0.00     0.177 HD
ATOM     24  H41 UNL     1      18.138  57.811   6.987  1.00  0.00     0.177 HD
ENDBRANCH  20  22
ENDBRANCH   4  20
TORSDOF 5
ENDMDL