MODEL 5
REMARK VINA RESULT: -5.049283553      1.857      3.134
REMARK  4 active torsions:
REMARK  status: ('A' for Active; 'I' for Inactive)
REMARK    1  A    between atoms: N1_1  and  N2_4
REMARK    2  A    between atoms: N2_4  and  C1_6
REMARK    3  A    between atoms: C2_14  and  N5_15
REMARK    4  A    between atoms: N5_15  and  N6_17
ROOT
HETATM    1  C1  UNL     1      17.696  59.234   7.165  1.00  0.00     0.177 A
HETATM    2  N3  UNL     1      18.951  59.818   6.853  1.00  0.00    -0.248 N
ATOM      3  H3  UNL     1      19.144  60.625   6.260  1.00  0.00     0.182 HD
HETATM    4  S1  UNL     1      20.074  58.829   7.722  1.00  0.00     0.326 S
HETATM    5  O1  UNL     1      21.020  58.119   6.799  1.00  0.00    -0.182 OA
HETATM    6  O2  UNL     1      20.790  59.631   8.765  1.00  0.00    -0.182 OA
HETATM    7  N4  UNL     1      18.926  57.750   8.421  1.00  0.00    -0.248 N
ATOM      8  H4  UNL     1      19.138  56.966   9.039  1.00  0.00     0.182 HD
HETATM    9  C2  UNL     1      17.760  58.103   8.032  1.00  0.00     0.177 A
ENDROOT
BRANCH   1  10
HETATM   10  N2  UNL     1      16.579  59.718   6.682  1.00  0.00    -0.288 N
ATOM     11  H2  UNL     1      16.087  59.190   5.961  1.00  0.00     0.188 HD
BRANCH  10  12
HETATM   12  N1  UNL     1      16.045  60.911   7.109  1.00  0.00    -0.344 N
ATOM     13  H12 UNL     1      16.502  61.383   7.889  1.00  0.00     0.176 HD
ATOM     14  H11 UNL     1      15.220  61.328   6.677  1.00  0.00     0.176 HD
ENDBRANCH  10  12
ENDBRANCH   1  10
BRANCH   9  15
HETATM   15  N5  UNL     1      16.595  57.356   8.477  1.00  0.00    -0.288 N
ATOM     16  H5  UNL     1      15.665  57.694   8.230  1.00  0.00     0.188 HD
BRANCH  15  17
HETATM   17  N6  UNL     1      16.710  56.232   9.206  1.00  0.00    -0.344 N
ATOM     18  H62 UNL     1      17.194  56.287  10.102  1.00  0.00     0.176 HD
ATOM     19  H61 UNL     1      16.331  55.342   8.885  1.00  0.00     0.176 HD
ENDBRANCH  15  17
ENDBRANCH   9  15
TORSDOF 4
ENDMDL