MODEL 3
REMARK VINA RESULT: -5.623934609      1.689      5.038
REMARK  4 active torsions:
REMARK  status: ('A' for Active; 'I' for Inactive)
REMARK    1  A    between atoms: N1_1  and  N2_4
REMARK    2  A    between atoms: N2_4  and  C1_6
REMARK    3  A    between atoms: N5_11  and  C2_12
REMARK    4  A    between atoms: N6_15  and  N7_16
ROOT
HETATM    1  C1  UNL     1      16.799  54.476  12.445  1.00  0.00     0.207 A
HETATM    2  N3  UNL     1      17.259  53.684  13.420  1.00  0.00    -0.265 N
ATOM      3  H3  UNL     1      18.236  53.450  13.598  1.00  0.00     0.190 HD
HETATM    4  N4  UNL     1      16.222  53.263  14.106  1.00  0.00    -0.232 N
ATOM      5  H4  UNL     1      16.279  52.641  14.912  1.00  0.00     0.209 HD
HETATM    6  N5  UNL     1      15.111  53.745  13.623  1.00  0.00    -0.212 N
HETATM    7  C5  UNL     1      15.449  54.513  12.575  1.00  0.00     0.314 A
HETATM    8  O1  UNL     1      14.619  55.149  11.852  1.00  0.00    -0.262 OA
ENDROOT
BRANCH   6   9
HETATM    9  C2  UNL     1      13.782  53.520  14.091  1.00  0.00     0.150 C
HETATM   10  C3  UNL     1      13.549  53.108  15.318  1.00  0.00     0.065 A
HETATM   11  C4  UNL     1      12.638  52.699  16.426  1.00  0.00     0.208 A
HETATM   12  N6  UNL     1      14.060  52.708  16.631  1.00  0.00    -0.294 N
BRANCH  12  13
HETATM   13  N7  UNL     1      15.107  52.474  17.525  1.00  0.00    -0.342 N
ATOM     14  H72 UNL     1      16.056  52.723  17.806  1.00  0.00     0.177 HD
ATOM     15  H71 UNL     1      15.515  51.989  18.324  1.00  0.00     0.177 HD
ENDBRANCH  12  13
ENDBRANCH   6   9
BRANCH   1  16
HETATM   16  N2  UNL     1      17.482  55.098  11.543  1.00  0.00    -0.286 N
ATOM     17  H2  UNL     1      18.104  54.558  10.942  1.00  0.00     0.188 HD
BRANCH  16  18
HETATM   18  N1  UNL     1      17.402  56.474  11.357  1.00  0.00    -0.343 N
ATOM     19  H12 UNL     1      17.546  57.071  12.172  1.00  0.00     0.176 HD
ATOM     20  H11 UNL     1      17.209  56.897  10.449  1.00  0.00     0.176 HD
ENDBRANCH  16  18
ENDBRANCH   1  16
TORSDOF 4
ENDMDL