MODEL 2
REMARK VINA RESULT: -5.954315480      1.704      2.903
REMARK  4 active torsions:
REMARK  status: ('A' for Active; 'I' for Inactive)
REMARK    1  A    between atoms: N1_1  and  C1_4
REMARK    2  A    between atoms: C4_13  and  N4_14
REMARK    3  A    between atoms: N4_14  and  N5_16
REMARK    4  A    between atoms: N5_16  and  O3_18
ROOT
HETATM    1  C1  UNL     1      21.182  60.218   6.335  1.00  0.00     0.681 C
HETATM    2  N2  UNL     1      22.056  59.267   6.753  1.00  0.00    -0.141 N
ATOM      3  H2  UNL     1      22.975  59.247   6.313  1.00  0.00     0.189 HD
HETATM    4  C2  UNL     1      21.801  58.350   7.705  1.00  0.00     0.341 C
HETATM    5  O1  UNL     1      22.798  57.644   8.009  1.00  0.00    -0.246 OA
HETATM    6  N3  UNL     1      20.643  58.101   8.355  1.00  0.00    -0.272 N
ATOM      7  H3  UNL     1      20.714  57.457   9.143  1.00  0.00     0.174 HD
HETATM    8  C3  UNL     1      19.400  58.585   8.109  1.00  0.00     0.295 C
HETATM    9  O2  UNL     1      18.454  58.202   8.837  1.00  0.00    -0.264 OA
HETATM   10  C4  UNL     1      19.003  59.475   7.133  1.00  0.00     0.205 C
HETATM   11  N6  UNL     1      19.830  60.252   6.405  1.00  0.00    -0.170 N
ATOM     12  H6  UNL     1      19.376  60.961   5.829  1.00  0.00     0.186 HD
ENDROOT
BRANCH  10  13
HETATM   13  N4  UNL     1      17.737  59.561   6.909  1.00  0.00    -0.261 N
ATOM     14  H4  UNL     1      17.302  58.827   6.350  1.00  0.00     0.190 HD
BRANCH  13  15
HETATM   15  N5  UNL     1      16.931  60.577   7.371  1.00  0.00    -0.208 N
ATOM     16  H5  UNL     1      15.962  60.344   7.587  1.00  0.00     0.215 HD
BRANCH  15  17
HETATM   17  O3  UNL     1      17.289  61.757   7.546  1.00  0.00    -0.274 OA
ATOM     18  H3  UNL     1      18.155  62.101   7.366  1.00  0.00     0.246 HD
ENDBRANCH  15  17
ENDBRANCH  13  15
ENDBRANCH  10  13
BRANCH   1  19
HETATM   19  N1  UNL     1      21.753  61.250   5.784  1.00  0.00    -0.234 N
ATOM     20  H12 UNL     1      22.018  61.146   4.805  1.00  0.00     0.174 HD
ATOM     21  H11 UNL     1      21.864  62.044   6.413  1.00  0.00     0.174 HD
ENDBRANCH   1  19
TORSDOF 4
ENDMDL