MODEL 2
REMARK VINA RESULT: -6.224093484      1.019      1.574
REMARK  2 active torsions:
REMARK  status: ('A' for Active; 'I' for Inactive)
REMARK    1  A    between atoms: N1_1  and  C1_4
REMARK    2  A    between atoms: C2_7  and  N3_8
ROOT
HETATM    1  C1  UNL     1      20.879  57.673   7.477  1.00  0.00     0.694 A
HETATM    2  N2  UNL     1      19.671  57.845   8.014  1.00  0.00    -0.021 N
ATOM      3  H2  UNL     1      19.339  57.178   8.711  1.00  0.00     0.203 HD
HETATM    4  C2  UNL     1      18.866  58.889   7.659  1.00  0.00     0.723 A
HETATM    5  N7  UNL     1      19.350  59.736   6.741  1.00  0.00    -0.138 N
ATOM      6  H7  UNL     1      18.767  60.525   6.459  1.00  0.00     0.189 HD
HETATM    7  C4  UNL     1      20.564  59.606   6.169  1.00  0.00     0.352 A
HETATM    8  O1  UNL     1      20.994  60.420   5.306  1.00  0.00    -0.246 OA
HETATM    9  N8  UNL     1      21.324  58.546   6.561  1.00  0.00    -0.141 N
ATOM     10  H8  UNL     1      22.249  58.413   6.150  1.00  0.00     0.189 HD
ENDROOT
BRANCH   4  11
HETATM   11  N3  UNL     1      17.582  59.044   8.252  1.00  0.00    -0.039 N
HETATM   12  N4  UNL     1      17.119  58.923   9.490  1.00  0.00     0.005 NA
HETATM   13  N5  UNL     1      15.893  59.242   9.074  1.00  0.00    -0.254 N
HETATM   14  C3  UNL     1      16.365  59.367   7.806  1.00  0.00     0.243 A
ATOM     15  H5  UNL     1      14.982  59.347   9.521  1.00  0.00     0.187 HD
HETATM   16  N6  UNL     1      15.727  59.706   6.593  1.00  0.00    -0.060 NA
ENDBRANCH   4  11
BRANCH   1  17
HETATM   17  N1  UNL     1      21.584  56.668   7.857  1.00  0.00    -0.234 N
ATOM     18  H12 UNL     1      21.180  55.739   7.973  1.00  0.00     0.174 HD
ATOM     19  H11 UNL     1      22.576  56.812   8.048  1.00  0.00     0.174 HD
ENDBRANCH   1  17
TORSDOF 2
ENDMDL