MODEL 4
REMARK VINA RESULT: -5.441944808      3.129      4.561
REMARK  5 active torsions:
REMARK  status: ('A' for Active; 'I' for Inactive)
REMARK    1  A    between atoms: N1_1  and  C1_4
REMARK    2  A    between atoms: C2_9  and  C3_10
REMARK    3  A    between atoms: C3_10  and  O2_12
REMARK    4  A    between atoms: O2_12  and  N4_13
REMARK    5  A    between atoms: N4_13  and  N5_14
ROOT
HETATM    1  C1  UNL     1      16.125  60.456   7.525  1.00  0.00     0.693 A
HETATM    2  N2  UNL     1      15.536  59.723   8.465  1.00  0.00    -0.132 N
ATOM      3  H2  UNL     1      14.585  59.939   8.765  1.00  0.00     0.205 HD
HETATM    4  N3  UNL     1      16.192  58.716   9.006  1.00  0.00    -0.276 N
ATOM      5  H3  UNL     1      15.728  58.162   9.727  1.00  0.00     0.188 HD
HETATM    6  C2  UNL     1      17.452  58.383   8.649  1.00  0.00     0.194 A
HETATM    7  C4  UNL     1      18.050  59.147   7.679  1.00  0.00     0.294 A
HETATM    8  O3  UNL     1      19.212  58.891   7.305  1.00  0.00    -0.265 OA
HETATM    9  N6  UNL     1      17.400  60.176   7.115  1.00  0.00    -0.153 N
ATOM     10  H6  UNL     1      17.848  60.740   6.393  1.00  0.00     0.187 HD
ENDROOT
BRANCH   6  11
HETATM   11  C3  UNL     1      18.143  57.256   9.277  1.00  0.00     0.336 C
HETATM   12  O1  UNL     1      18.327  56.166   8.680  1.00  0.00    -0.256 OA
BRANCH  11  13
HETATM   13  O2  UNL     1      18.629  57.349  10.568  1.00  0.00    -0.180 OA
BRANCH  13  14
HETATM   14  N4  UNL     1      17.833  57.435  11.667  1.00  0.00     0.022 NA
BRANCH  14  15
HETATM   15  N5  UNL     1      18.445  57.063  12.846  1.00  0.00    -0.322 N
ATOM     16  H52 UNL     1      19.042  56.238  12.907  1.00  0.00     0.174 HD
ATOM     17  H51 UNL     1      18.250  57.678  13.636  1.00  0.00     0.174 HD
ENDBRANCH  14  15
ENDBRANCH  13  14
ENDBRANCH  11  13
ENDBRANCH   6  11
BRANCH   1  18
HETATM   18  N1  UNL     1      15.550  61.462   6.945  1.00  0.00    -0.233 N
ATOM     19  H12 UNL     1      14.594  61.307   6.628  1.00  0.00     0.174 HD
ATOM     20  H11 UNL     1      16.008  62.361   6.804  1.00  0.00     0.174 HD
ENDBRANCH   1  18
TORSDOF 5
ENDMDL