MODEL 1
REMARK VINA RESULT: -5.920170211      0.000      0.000
REMARK  3 active torsions:
REMARK  status: ('A' for Active; 'I' for Inactive)
REMARK    1  A    between atoms: N1_1  and  C1_4
REMARK    2  A    between atoms: C2_7  and  N3_8
REMARK    3  A    between atoms: N4_11  and  C3_12
ROOT
HETATM    1  C1  UNL     1      19.716  60.007   7.149  1.00  0.00     0.159 C
HETATM    2  N2  UNL     1      18.360  60.166   7.165  1.00  0.00    -0.173 N
ATOM      3  H2  UNL     1      18.000  61.030   6.760  1.00  0.00     0.186 HD
HETATM    4  C2  UNL     1      17.430  59.297   7.662  1.00  0.00     0.690 C
HETATM    5  N4  UNL     1      17.603  58.072   8.205  1.00  0.00    -0.071 N
HETATM    6  C4  UNL     1      18.763  57.421   8.391  1.00  0.00     0.349 C
HETATM    7  O2  UNL     1      18.681  56.177   8.632  1.00  0.00    -0.245 OA
HETATM    8  N5  UNL     1      20.034  57.894   8.361  1.00  0.00    -0.291 N
ATOM      9  H5  UNL     1      20.770  57.256   8.664  1.00  0.00     0.172 HD
HETATM   10  C5  UNL     1      20.425  59.148   7.963  1.00  0.00     0.147 C
HETATM   11  N6  UNL     1      21.545  59.571   8.382  1.00  0.00    -0.382 N
ATOM     12  H61 UNL     1      22.069  58.935   8.983  1.00  0.00     0.157 HD
ATOM     13  H62 UNL     1      21.835  60.503   8.086  1.00  0.00     0.157 HD
ENDROOT
BRANCH   1  14
HETATM   14  N1  UNL     1      20.380  60.712   6.310  1.00  0.00    -0.382 N
ATOM     15  H12 UNL     1      20.218  60.540   5.317  1.00  0.00     0.157 HD
ATOM     16  H11 UNL     1      21.026  61.404   6.688  1.00  0.00     0.157 HD
ENDBRANCH   1  14
BRANCH   4  17
HETATM   17  N3  UNL     1      16.217  59.674   7.619  1.00  0.00    -0.234 N
ATOM     18  H32 UNL     1      16.100  60.670   7.439  1.00  0.00     0.174 HD
ATOM     19  H31 UNL     1      15.509  58.955   7.765  1.00  0.00     0.174 HD
ENDBRANCH   4  17
BRANCH   5  20
HETATM   20  C3  UNL     1      16.420  57.403   8.624  1.00  0.00     0.381 C
HETATM   21  O1  UNL     1      15.950  57.694   9.753  1.00  0.00    -0.282 OA
ENDBRANCH   5  20
TORSDOF 3
ENDMDL