MODEL 5
REMARK VINA RESULT: -5.504455438      3.311      5.236
REMARK  4 active torsions:
REMARK  status: ('A' for Active; 'I' for Inactive)
REMARK    1  A    between atoms: N1_1  and  N2_4
REMARK    2  A    between atoms: N2_4  and  C1_6
REMARK    3  A    between atoms: C3_12  and  C4_13
REMARK       I    between atoms: C4_13  and  N5_15
REMARK    4  A    between atoms: N5_15  and  N6_17
ROOT
HETATM    1  C1  UNL     1      16.992  58.536   8.086  1.00  0.00     0.147 A
HETATM    2  N3  UNL     1      18.205  58.585   7.469  1.00  0.00    -0.336 N
ATOM      3  H3  UNL     1      18.328  59.037   6.563  1.00  0.00     0.168 HD
HETATM    4  C2  UNL     1      19.233  58.007   8.116  1.00  0.00     0.182 A
HETATM    5  N4  UNL     1      19.089  57.413   9.300  1.00  0.00    -0.346 N
ATOM      6  H4  UNL     1      19.909  56.993   9.738  1.00  0.00     0.167 HD
HETATM    7  C3  UNL     1      17.901  57.341   9.950  1.00  0.00     0.131 A
HETATM    8  C5  UNL     1      16.830  57.925   9.309  1.00  0.00     0.124 A
HETATM    9  N7  UNL     1      15.524  57.910   9.904  1.00  0.00    -0.096 NA
ENDROOT
BRANCH   7  10
HETATM   10  C4  UNL     1      17.739  56.700  11.228  1.00  0.00     0.288 C
HETATM   11  O1  UNL     1      18.044  57.341  12.270  1.00  0.00    -0.264 OA
HETATM   12  N5  UNL     1      17.257  55.385  11.405  1.00  0.00    -0.271 N
ATOM     13  H5  UNL     1      17.004  54.849  10.575  1.00  0.00     0.189 HD
BRANCH  12  14
HETATM   14  N6  UNL     1      17.108  54.780  12.653  1.00  0.00    -0.342 N
ATOM     15  H62 UNL     1      17.253  55.366  13.475  1.00  0.00     0.176 HD
ATOM     16  H61 UNL     1      16.866  53.797  12.776  1.00  0.00     0.176 HD
ENDBRANCH  12  14
ENDBRANCH   7  10
BRANCH   1  17
HETATM   17  N2  UNL     1      16.020  59.089   7.463  1.00  0.00    -0.290 N
ATOM     18  H2  UNL     1      15.074  58.890   7.790  1.00  0.00     0.188 HD
BRANCH  17  19
HETATM   19  N1  UNL     1      16.162  59.941   6.374  1.00  0.00    -0.344 N
ATOM     20  H12 UNL     1      17.079  60.366   6.243  1.00  0.00     0.176 HD
ATOM     21  H11 UNL     1      15.419  60.162   5.710  1.00  0.00     0.176 HD
ENDBRANCH  17  19
ENDBRANCH   1  17
TORSDOF 4
ENDMDL