MODEL 3
REMARK VINA RESULT: -5.630709891      1.393      2.688
REMARK  0 active torsions:
REMARK  status: ('A' for Active; 'I' for Inactive)
REMARK       I    between atoms: N1_1  and  C1_5
REMARK       I    between atoms: C1_5  and  N2_6
REMARK       I    between atoms: C1_5  and  N3_10
ROOT
HETATM    1  N1  UNL     1      22.009  59.545   6.434  1.00  0.00    -0.032 N
ATOM      2  H11 UNL     1      21.668  59.006   5.638  1.00  0.00     0.279 HD
ATOM      3  H12 UNL     1      23.026  59.629   6.418  1.00  0.00     0.279 HD
ATOM      4  H13 UNL     1      21.768  60.533   6.346  1.00  0.00     0.279 HD
HETATM    5  C1  UNL     1      21.543  58.997   7.691  1.00  0.00     0.494 C
HETATM    6  N2  UNL     1      22.030  59.767   8.827  1.00  0.00    -0.032 N
ATOM      7  H21 UNL     1      21.701  59.380   9.712  1.00  0.00     0.279 HD
ATOM      8  H22 UNL     1      21.788  60.754   8.739  1.00  0.00     0.279 HD
ATOM      9  H23 UNL     1      23.046  59.850   8.811  1.00  0.00     0.279 HD
HETATM   10  N3  UNL     1      20.100  58.972   7.641  1.00  0.00    -0.198 N
HETATM   11  C2  UNL     1      19.431  57.873   8.036  1.00  0.00     0.337 A
HETATM   12  O1  UNL     1      20.057  56.845   8.460  1.00  0.00    -0.246 OA
HETATM   13  N4  UNL     1      18.090  57.912   7.965  1.00  0.00    -0.260 N
ATOM     14  H4  UNL     1      17.565  57.089   8.260  1.00  0.00     0.175 HD
HETATM   15  C3  UNL     1      17.405  58.984   7.523  1.00  0.00     0.332 A
HETATM   16  O2  UNL     1      16.132  58.965   7.477  1.00  0.00    -0.246 OA
HETATM   17  N5  UNL     1      18.093  60.074   7.131  1.00  0.00    -0.260 N
ATOM     18  H5  UNL     1      17.602  60.901   6.793  1.00  0.00     0.175 HD
HETATM   19  C4  UNL     1      19.442  60.056   7.194  1.00  0.00     0.337 A
HETATM   20  O3  UNL     1      20.068  61.102   6.816  1.00  0.00    -0.246 OA
ENDROOT
TORSDOF 0
ENDMDL