MODEL 5
REMARK VINA RESULT: -7.830114874      1.425      1.743
REMARK  7 active torsions:
REMARK  status: ('A' for Active; 'I' for Inactive)
REMARK    1  A    between atoms: N1_1  and  C1_5
REMARK    2  A    between atoms: C1_5  and  C2_6
REMARK    3  A    between atoms: C2_6  and  N2_7
REMARK    4  A    between atoms: N2_7  and  C3_9
REMARK    5  A    between atoms: C6_17  and  C7_18
REMARK    6  A    between atoms: C7_18  and  N5_19
REMARK    7  A    between atoms: C12_25  and  N6_26
ROOT
HETATM    1  C3  UNL     1       2.682   0.807  23.772  1.00  0.00     0.119 A
HETATM    2  N3  UNL     1       3.247   1.968  23.423  1.00  0.00    -0.338 N
ATOM      3  H3  UNL     1       3.656   2.567  24.140  1.00  0.00     0.168 HD
HETATM    4  C4  UNL     1       3.281   2.350  22.140  1.00  0.00     0.184 A
HETATM    5  N4  UNL     1       2.735   1.545  21.213  1.00  0.00    -0.332 N
ATOM      6  H4  UNL     1       2.768   1.853  20.241  1.00  0.00     0.168 HD
HETATM    7  C5  UNL     1       2.149   0.364  21.473  1.00  0.00     0.165 A
HETATM    8  O1  UNL     1       1.563  -0.586  20.814  1.00  0.00    -0.293 OA
HETATM    9  C6  UNL     1       1.159  -1.552  21.594  1.00  0.00     0.111 A
HETATM   10  C12 UNL     1       1.493  -1.245  22.918  1.00  0.00     0.080 A
HETATM   11  C17 UNL     1       2.123  -0.022  22.823  1.00  0.00     0.088 A
ENDROOT
BRANCH   1  12
HETATM   12  N2  UNL     1       2.629   0.395  25.005  1.00  0.00    -0.374 N
ATOM     13  H2  UNL     1       3.141  -0.432  25.313  1.00  0.00     0.161 HD
BRANCH  12  14
HETATM   14  C2  UNL     1       1.812   1.163  25.919  1.00  0.00     0.148 C
BRANCH  14  15
HETATM   15  C1  UNL     1       2.655   1.796  27.016  1.00  0.00     0.249 C
BRANCH  15  16
HETATM   16  N1  UNL     1       2.849   3.193  26.688  1.00  0.00    -0.078 N
ATOM     17  H13 UNL     1       2.915   3.356  25.683  1.00  0.00     0.274 HD
ATOM     18  H12 UNL     1       2.018   3.758  26.864  1.00  0.00     0.274 HD
ATOM     19  H11 UNL     1       3.668   3.529  27.195  1.00  0.00     0.274 HD
ENDBRANCH  15  16
ENDBRANCH  14  15
ENDBRANCH  12  14
ENDBRANCH   1  12
BRANCH  10  20
HETATM   20  N6  UNL     1       1.250  -2.001  24.094  1.00  0.00    -0.378 N
HETATM   21  C13 UNL     1      -0.012  -1.903  24.827  1.00  0.00     0.123 C
HETATM   22  C14 UNL     1      -0.067  -3.160  25.659  1.00  0.00     0.021 C
HETATM   23  C15 UNL     1       1.393  -3.366  25.997  1.00  0.00     0.021 C
HETATM   24  C16 UNL     1       2.129  -2.943  24.763  1.00  0.00     0.123 C
ENDBRANCH  10  20
BRANCH   9  25
HETATM   25  C7  UNL     1       0.464  -2.776  21.193  1.00  0.00     0.339 C
BRANCH  25  26
HETATM   26  N5  UNL     1      -0.939  -2.812  21.417  1.00  0.00     0.098 N
HETATM   27  C8  UNL     1      -1.528  -4.100  21.513  1.00  0.00     0.299 C
HETATM   28  C9  UNL     1      -1.862  -4.689  20.159  1.00  0.00     0.198 C
HETATM   29  O2  UNL     1      -2.572  -3.834  19.342  1.00  0.00    -0.388 OA
HETATM   30  C10 UNL     1      -1.748  -2.730  19.112  1.00  0.00     0.198 C
HETATM   31  C11 UNL     1      -1.593  -2.011  20.410  1.00  0.00     0.299 C
ENDBRANCH  25  26
ENDBRANCH   9  25
TORSDOF 7
ENDMDL