MODEL 2
REMARK VINA RESULT: -7.858319150      1.023      1.073
REMARK  6 active torsions:
REMARK  status: ('A' for Active; 'I' for Inactive)
REMARK    1  A    between atoms: N1_2  and  C2_4
REMARK    2  A    between atoms: C4_8  and  C5_9
REMARK    3  A    between atoms: C5_9  and  N3_10
REMARK    4  A    between atoms: N7_25  and  C13_26
REMARK    5  A    between atoms: C13_26  and  C14_27
REMARK    6  A    between atoms: C14_27  and  C15_28
ROOT
HETATM    1  C2  UNL     1       0.935  -1.974  23.603  1.00  0.00     0.138 A
HETATM    2  C3  UNL     1       1.505  -0.895  24.260  1.00  0.00     0.123 A
HETATM    3  N2  UNL     1       1.639  -0.580  25.543  1.00  0.00    -0.338 N
ATOM      4  H2  UNL     1       1.307  -1.145  26.325  1.00  0.00     0.167 HD
HETATM    5  C4  UNL     1       2.288   0.611  25.655  1.00  0.00     0.112 A
HETATM    6  N5  UNL     1       2.550   1.024  24.413  1.00  0.00    -0.328 N
ATOM      7  H5  UNL     1       3.031   1.891  24.175  1.00  0.00     0.168 HD
HETATM    8  C10 UNL     1       2.091   0.139  23.532  1.00  0.00     0.143 A
HETATM    9  N6  UNL     1       2.073   0.033  22.189  1.00  0.00    -0.287 N
HETATM   10  C11 UNL     1       2.670   1.083  21.414  1.00  0.00     0.163 C
HETATM   11  C12 UNL     1       1.513  -1.023  21.572  1.00  0.00     0.331 A
HETATM   12  O1  UNL     1       1.521  -1.078  20.296  1.00  0.00    -0.246 OA
HETATM   13  N7  UNL     1       0.945  -2.028  22.223  1.00  0.00    -0.283 N
ENDROOT
BRANCH   5  14
HETATM   14  C5  UNL     1       2.610   1.271  26.945  1.00  0.00     0.348 C
BRANCH  14  15
HETATM   15  N3  UNL     1       2.427   2.691  26.900  1.00  0.00     0.098 N
HETATM   16  C6  UNL     1       1.843   3.236  28.089  1.00  0.00     0.300 C
HETATM   17  C7  UNL     1       2.440   4.616  28.377  1.00  0.00     0.262 C
HETATM   18  N4  UNL     1       3.813   4.540  28.780  1.00  0.00    -0.072 N
HETATM   19  C8  UNL     1       4.463   3.487  28.015  1.00  0.00     0.262 C
ATOM     20  H42 UNL     1       4.295   5.436  28.699  1.00  0.00     0.277 HD
ATOM     21  H41 UNL     1       3.920   4.414  29.786  1.00  0.00     0.277 HD
HETATM   22  C9  UNL     1       3.742   3.288  26.676  1.00  0.00     0.300 C
ENDBRANCH  14  15
ENDBRANCH   5  14
BRANCH   1  23
HETATM   23  N1  UNL     1       0.395  -2.926  24.240  1.00  0.00    -0.378 N
HETATM   24  C1  UNL     1      -0.508  -3.092  25.271  1.00  0.00     0.147 C
ATOM     25  H1  UNL     1       0.719  -3.828  23.890  1.00  0.00     0.160 HD
ENDBRANCH   1  23
BRANCH  13  26
HETATM   26  C13 UNL     1       0.336  -3.174  21.617  1.00  0.00     0.136 C
BRANCH  26  27
HETATM   27  C14 UNL     1      -1.063  -2.897  21.115  1.00  0.00     0.024 C
BRANCH  27  28
HETATM   28  C15 UNL     1      -1.473  -3.817  20.010  1.00  0.00    -0.021 C
HETATM   29  C16 UNL     1      -2.332  -4.965  20.478  1.00  0.00     0.009 C
HETATM   30  C17 UNL     1      -2.200  -3.107  18.897  1.00  0.00     0.009 C
ENDBRANCH  27  28
ENDBRANCH  26  27
ENDBRANCH  13  26
TORSDOF 6
ENDMDL