MODEL 5
REMARK VINA RESULT: -8.623838752      2.343      7.095
REMARK  5 active torsions:
REMARK  status: ('A' for Active; 'I' for Inactive)
REMARK    1  A    between atoms: C2_2  and  C4_4
REMARK    2  A    between atoms: C4_4  and  N1_5
REMARK    3  A    between atoms: C5_8  and  S1_9
REMARK    4  A    between atoms: S1_9  and  N3_12
REMARK    5  A    between atoms: N3_12  and  C6_14
ROOT
HETATM    1  N1  UNL     1      -0.904  -2.260  23.518  1.00  0.00    -0.241 N
HETATM    2  N2  UNL     1       0.346  -1.844  23.307  1.00  0.00    -0.278 N
ATOM      3  H2  UNL     1       0.873  -2.280  22.550  1.00  0.00     0.188 HD
HETATM    4  C5  UNL     1       0.954  -0.890  24.024  1.00  0.00     0.232 A
HETATM    5  C13 UNL     1       0.262  -0.297  25.045  1.00  0.00     0.291 A
HETATM    6  O3  UNL     1       0.785   0.617  25.771  1.00  0.00    -0.265 OA
HETATM    7  N4  UNL     1      -1.000  -0.703  25.274  1.00  0.00    -0.272 N
ATOM      8  H4  UNL     1      -1.535  -0.273  26.029  1.00  0.00     0.174 HD
HETATM    9  C14 UNL     1      -1.574  -1.672  24.520  1.00  0.00     0.344 A
HETATM   10  O4  UNL     1      -2.775  -2.004  24.793  1.00  0.00    -0.245 OA
ENDROOT
BRANCH   4  11
HETATM   11  S1  UNL     1       2.598  -0.473  23.651  1.00  0.00     0.281 S
HETATM   12  O1  UNL     1       3.452  -1.158  24.687  1.00  0.00    -0.199 OA
HETATM   13  O2  UNL     1       2.940  -1.135  22.342  1.00  0.00    -0.199 OA
BRANCH  11  14
HETATM   14  N3  UNL     1       2.796   1.197  23.620  1.00  0.00    -0.309 N
ATOM     15  H3  UNL     1       2.290   1.784  24.284  1.00  0.00     0.172 HD
BRANCH  14  16
HETATM   16  C6  UNL     1       3.660   1.786  22.679  1.00  0.00     0.093 C
HETATM   17  C7  UNL     1       3.317   1.446  21.239  1.00  0.00     0.026 C
HETATM   18  C8  UNL     1       2.440   2.476  20.599  1.00  0.00     0.002 C
HETATM   19  C9  UNL     1       3.118   3.752  20.251  1.00  0.00     0.000 C
HETATM   20  C10 UNL     1       4.593   3.772  20.521  1.00  0.00     0.000 C
HETATM   21  C11 UNL     1       4.938   3.736  21.981  1.00  0.00     0.002 C
HETATM   22  C12 UNL     1       3.793   3.299  22.856  1.00  0.00     0.026 C
ENDBRANCH  14  16
ENDBRANCH  11  14
ENDBRANCH   4  11
BRANCH   1  23
HETATM   23  C4  UNL     1      -1.501  -3.304  22.725  1.00  0.00     0.157 C
BRANCH  23  24
HETATM   24  C2  UNL     1      -1.068  -3.240  21.303  1.00  0.00    -0.003 C
HETATM   25  C1  UNL     1      -1.637  -1.960  20.669  1.00  0.00     0.011 C
HETATM   26  C3  UNL     1      -1.532  -4.386  20.444  1.00  0.00     0.011 C
ENDBRANCH  23  24
ENDBRANCH   1  23
TORSDOF 5
ENDMDL