MODEL 5
REMARK VINA RESULT: -7.928559858      4.502      5.777
REMARK  6 active torsions:
REMARK  status: ('A' for Active; 'I' for Inactive)
REMARK    1  A    between atoms: C3_5  and  C4_6
REMARK    2  A    between atoms: C5_7  and  N2_8
REMARK    3  A    between atoms: N2_8  and  C6_10
REMARK    4  A    between atoms: C9_15  and  C10_16
REMARK    5  A    between atoms: C10_16  and  N4_17
REMARK    6  A    between atoms: N4_17  and  S1_19
ROOT
HETATM    1  C6  UNL     1       1.861  -0.293  24.199  1.00  0.00     0.697 A
HETATM    2  N3  UNL     1       0.704  -0.561  24.872  1.00  0.00    -0.192 N
ATOM      3  H3  UNL     1       0.726  -0.514  25.890  1.00  0.00     0.184 HD
HETATM    4  C7  UNL     1      -0.400  -0.864  24.320  1.00  0.00     0.052 A
HETATM    5  C8  UNL     1      -1.695  -1.029  25.052  1.00  0.00     0.071 C
HETATM    6  C9  UNL     1      -0.449  -0.926  22.878  1.00  0.00     0.087 A
HETATM    7  N5  UNL     1       0.675  -0.645  22.245  1.00  0.00    -0.283 N
ATOM      8  H5  UNL     1       0.673  -0.664  21.225  1.00  0.00     0.187 HD
HETATM    9  N6  UNL     1       1.839  -0.331  22.882  1.00  0.00    -0.131 N
ATOM     10  H6  UNL     1       2.681  -0.127  22.345  1.00  0.00     0.205 HD
ENDROOT
BRANCH   1  11
HETATM   11  N2  UNL     1       2.939  -0.079  24.917  1.00  0.00    -0.200 N
ATOM     12  H2  UNL     1       3.648  -0.780  25.131  1.00  0.00     0.183 HD
BRANCH  11  13
HETATM   13  C5  UNL     1       2.971   1.292  25.358  1.00  0.00     0.108 C
HETATM   14  C4  UNL     1       3.255   2.407  24.899  1.00  0.00     0.047 C
BRANCH  14  15
HETATM   15  C3  UNL     1       3.731   2.809  23.577  1.00  0.00     0.040 A
HETATM   16  N1  UNL     1       2.992   2.562  22.516  1.00  0.00    -0.354 N
HETATM   17  C2  UNL     1       3.393   2.987  21.316  1.00  0.00     0.047 A
ATOM     18  H1  UNL     1       2.117   2.046  22.611  1.00  0.00     0.166 HD
HETATM   19  C1  UNL     1       2.647   2.772  20.016  1.00  0.00     0.076 C
HETATM   20  S2  UNL     1       4.853   3.771  21.681  1.00  0.00    -0.087 SA
HETATM   21  C12 UNL     1       4.897   3.517  23.366  1.00  0.00     0.081 A
ENDBRANCH  14  15
ENDBRANCH  11  13
ENDBRANCH   1  11
BRANCH   6  22
HETATM   22  C10 UNL     1      -1.676  -1.613  22.385  1.00  0.00     0.132 C
BRANCH  22  23
HETATM   23  N4  UNL     1      -1.909  -1.755  21.021  1.00  0.00    -0.293 N
ATOM     24  H4  UNL     1      -2.417  -1.084  20.446  1.00  0.00     0.177 HD
BRANCH  23  25
HETATM   25  S1  UNL     1      -1.218  -3.221  20.440  1.00  0.00     0.226 S
HETATM   26  C11 UNL     1      -2.039  -4.626  21.058  1.00  0.00     0.186 C
HETATM   27  O1  UNL     1       0.263  -3.262  20.539  1.00  0.00    -0.206 OA
HETATM   28  O2  UNL     1      -1.556  -3.251  18.894  1.00  0.00    -0.206 OA
ENDBRANCH  23  25
ENDBRANCH  22  23
ENDBRANCH   6  22
TORSDOF 6
ENDMDL