MODEL 2
REMARK VINA RESULT: -6.951744091      5.351      8.425
REMARK  7 active torsions:
REMARK  status: ('A' for Active; 'I' for Inactive)
REMARK    1  A    between atoms: C2_2  and  C3_3
REMARK    2  A    between atoms: C3_3  and  C4_4
REMARK    3  A    between atoms: C3_3  and  N7_26
REMARK    4  A    between atoms: C4_4  and  N1_5
REMARK    5  A    between atoms: N2_8  and  C7_9
REMARK    6  A    between atoms: N7_26  and  N8_28
REMARK    7  A    between atoms: N8_28  and  N9_29
ROOT
HETATM    1  N1  UNL     1       3.686   3.052  26.781  1.00  0.00     0.093 N
HETATM    2  C5  UNL     1       3.866   3.248  25.386  1.00  0.00     0.293 C
HETATM    3  C6  UNL     1       3.533   2.124  24.485  1.00  0.00     0.171 C
HETATM    4  N2  UNL     1       2.706   1.102  25.026  1.00  0.00    -0.214 N
HETATM    5  C13 UNL     1       2.628   0.915  26.454  1.00  0.00     0.171 C
HETATM    6  C14 UNL     1       2.464   2.301  27.045  1.00  0.00     0.293 C
ENDROOT
BRANCH   4   7
HETATM    7  C7  UNL     1       1.960   0.277  24.143  1.00  0.00     0.682 A
HETATM    8  N3  UNL     1       0.831  -0.416  24.385  1.00  0.00    -0.174 N
HETATM    9  C8  UNL     1       0.408  -1.087  23.307  1.00  0.00     0.160 A
ATOM     10  H3  UNL     1       0.354  -0.428  25.286  1.00  0.00     0.186 HD
HETATM   11  C9  UNL     1       1.313  -0.813  22.309  1.00  0.00     0.162 A
HETATM   12  N6  UNL     1      -0.641  -1.901  23.045  1.00  0.00    -0.287 N
HETATM   13  N4  UNL     1       2.239   0.009  22.835  1.00  0.00    -0.182 N
HETATM   14  C10 UNL     1       1.086  -1.400  21.083  1.00  0.00     0.280 A
ATOM     15  H4  UNL     1       3.040   0.381  22.324  1.00  0.00     0.184 HD
HETATM   16  O1  UNL     1       1.880  -1.185  20.136  1.00  0.00    -0.265 OA
HETATM   17  N5  UNL     1       0.034  -2.206  20.850  1.00  0.00    -0.273 N
HETATM   18  C11 UNL     1      -0.843  -2.461  21.847  1.00  0.00     0.330 A
ATOM     19  H5  UNL     1      -0.101  -2.622  19.929  1.00  0.00     0.173 HD
HETATM   20  O2  UNL     1      -1.842  -3.228  21.624  1.00  0.00    -0.246 OA
HETATM   21  C12 UNL     1      -1.577  -2.172  24.113  1.00  0.00     0.163 C
ENDBRANCH   4   7
BRANCH   1  22
HETATM   22  C4  UNL     1       3.571   4.252  27.552  1.00  0.00     0.300 C
BRANCH  22  23
HETATM   23  C3  UNL     1       4.188   4.267  28.890  1.00  0.00     0.142 C
BRANCH  23  24
HETATM   24  C2  UNL     1       5.600   3.770  28.950  1.00  0.00     0.025 C
HETATM   25  C1  UNL     1       5.687   2.458  29.703  1.00  0.00     0.007 C
ENDBRANCH  23  24
BRANCH  23  26
HETATM   26  N7  UNL     1       4.071   5.528  29.595  1.00  0.00    -0.246 N
ATOM     27  H7  UNL     1       3.206   5.742  30.093  1.00  0.00     0.197 HD
BRANCH  26  28
HETATM   28  N8  UNL     1       4.981   6.338  29.607  1.00  0.00    -0.248 NA
BRANCH  28  29
HETATM   29  N9  UNL     1       5.693   7.342  29.612  1.00  0.00    -0.261 N
ATOM     30  H92 UNL     1       6.537   6.777  29.518  1.00  0.00     0.193 HD
ATOM     31  H91 UNL     1       6.083   8.284  29.637  1.00  0.00     0.193 HD
ENDBRANCH  28  29
ENDBRANCH  26  28
ENDBRANCH  23  26
ENDBRANCH  22  23
ENDBRANCH   1  22
TORSDOF 7
ENDMDL