MODEL 5
REMARK VINA RESULT: -9.749639632      1.241      1.580
REMARK  5 active torsions:
REMARK  status: ('A' for Active; 'I' for Inactive)
REMARK    1  A    between atoms: C4_5  and  C5_6
REMARK    2  A    between atoms: N2_7  and  N3_9
REMARK    3  A    between atoms: N3_9  and  S1_11
REMARK    4  A    between atoms: S1_11  and  C6_14
REMARK    5  A    between atoms: C9_17  and  N4_18
ROOT
HETATM    1  S1  UNL     1       2.106   0.203  25.320  1.00  0.00     0.276 S
HETATM    2  O1  UNL     1       2.543   0.673  26.694  1.00  0.00    -0.199 OA
HETATM    3  O2  UNL     1       0.603   0.205  25.339  1.00  0.00    -0.199 OA
ENDROOT
BRANCH   1   4
HETATM    4  N3  UNL     1       2.635  -1.419  25.046  1.00  0.00    -0.223 N
ATOM      5  H3  UNL     1       3.565  -1.559  24.648  1.00  0.00     0.200 HD
BRANCH   4   6
HETATM    6  N2  UNL     1       1.886  -2.525  25.330  1.00  0.00    -0.302 N
HETATM    7  C5  UNL     1       1.024  -3.183  24.728  1.00  0.00     0.119 C
ATOM      8  H2  UNL     1       2.082  -2.900  26.258  1.00  0.00     0.186 HD
BRANCH   7   9
HETATM    9  C4  UNL     1       0.446  -3.014  23.406  1.00  0.00    -0.019 A
HETATM   10  C3  UNL     1       1.039  -2.283  22.408  1.00  0.00     0.014 A
HETATM   11  C2  UNL     1       0.417  -2.175  21.176  1.00  0.00     0.027 A
HETATM   12  C1  UNL     1      -0.788  -2.766  20.870  1.00  0.00     0.046 A
HETATM   13  N1  UNL     1      -1.358  -2.604  19.574  1.00  0.00    -0.102 NA
HETATM   14  C14 UNL     1      -1.381  -3.496  21.864  1.00  0.00     0.027 A
HETATM   15  C13 UNL     1      -0.780  -3.613  23.090  1.00  0.00     0.014 A
ENDBRANCH   7   9
ENDBRANCH   4   6
ENDBRANCH   1   4
BRANCH   1  16
HETATM   16  C6  UNL     1       2.713   1.303  24.141  1.00  0.00     0.081 C
HETATM   17  C7  UNL     1       2.326   1.135  22.830  1.00  0.00     0.028 C
HETATM   18  C8  UNL     1       2.680   1.834  21.686  1.00  0.00     0.042 C
HETATM   19  C9  UNL     1       3.708   2.751  21.568  1.00  0.00     0.152 C
HETATM   20  C10 UNL     1       4.457   3.344  22.562  1.00  0.00     0.204 C
HETATM   21  O5  UNL     1       5.349   4.131  22.144  1.00  0.00    -0.286 OA
HETATM   22  C11 UNL     1       4.355   3.190  23.914  1.00  0.00     0.059 C
HETATM   23  C12 UNL     1       3.556   2.287  24.606  1.00  0.00     0.029 C
BRANCH  19  24
HETATM   24  N4  UNL     1       4.007   3.103  20.236  1.00  0.00    -0.112 N
HETATM   25  O3  UNL     1       5.154   2.952  19.804  1.00  0.00    -0.532 OA
HETATM   26  O4  UNL     1       3.040   3.610  19.421  1.00  0.00    -0.532 OA
ENDBRANCH  19  24
ENDBRANCH   1  16
TORSDOF 5
ENDMDL