MODEL 5
REMARK VINA RESULT: -6.798668655      3.879      7.534
REMARK  6 active torsions:
REMARK  status: ('A' for Active; 'I' for Inactive)
REMARK    1  A    between atoms: C2_2  and  S1_3
REMARK    2  A    between atoms: S1_3  and  C3_4
REMARK    3  A    between atoms: C3_4  and  C5_6
REMARK       I    between atoms: C5_6  and  N1_8
REMARK    4  A    between atoms: N1_8  and  C6_10
REMARK    5  A    between atoms: C7_15  and  S2_16
REMARK    6  A    between atoms: S2_16  and  N4_19
REMARK       I    between atoms: N4_19  and  C8_21
ROOT
HETATM    1  C6  UNL     1       3.052   0.656  23.689  1.00  0.00     0.168 A
HETATM    2  N2  UNL     1       3.702   1.833  23.580  1.00  0.00    -0.278 N
ATOM      3  H2  UNL     1       4.192   2.085  22.722  1.00  0.00     0.189 HD
HETATM    4  N3  UNL     1       3.687   2.615  24.576  1.00  0.00    -0.281 N
ATOM      5  H3  UNL     1       4.174   3.508  24.506  1.00  0.00     0.188 HD
HETATM    6  C7  UNL     1       3.072   2.322  25.687  1.00  0.00     0.209 A
HETATM    7  S3  UNL     1       2.437   0.760  25.280  1.00  0.00    -0.020 SA
ENDROOT
BRANCH   1   8
HETATM    8  N1  UNL     1       2.961  -0.270  22.793  1.00  0.00    -0.305 N
HETATM    9  C5  UNL     1       2.040  -0.153  21.716  1.00  0.00     0.237 C
HETATM   10  O1  UNL     1       1.804   0.965  21.174  1.00  0.00    -0.272 OA
ATOM     11  H1  UNL     1       3.557  -1.095  22.858  1.00  0.00     0.171 HD
BRANCH   9  12
HETATM   12  C3  UNL     1       1.311  -1.331  21.176  1.00  0.00     0.135 C
HETATM   13  C4  UNL     1       2.101  -2.576  21.502  1.00  0.00     0.031 C
BRANCH  12  14
HETATM   14  S1  UNL     1      -0.408  -1.419  21.676  1.00  0.00    -0.155 SA
BRANCH  14  15
HETATM   15  C2  UNL     1      -1.275  -2.548  20.558  1.00  0.00     0.070 C
HETATM   16  C1  UNL     1      -1.354  -3.892  21.230  1.00  0.00     0.016 C
ENDBRANCH  14  15
ENDBRANCH  12  14
ENDBRANCH   9  12
ENDBRANCH   1   8
BRANCH   6  17
HETATM   17  S2  UNL     1       2.940   3.173  27.217  1.00  0.00     0.289 S
HETATM   18  O2  UNL     1       3.800   2.469  28.239  1.00  0.00    -0.198 OA
HETATM   19  O3  UNL     1       3.396   4.580  26.995  1.00  0.00    -0.198 OA
BRANCH  17  20
HETATM   20  N4  UNL     1       1.309   3.066  27.746  1.00  0.00    -0.249 N
HETATM   21  C8  UNL     1       0.931   3.833  28.867  1.00  0.00     0.227 C
HETATM   22  C9  UNL     1      -0.474   3.749  29.349  1.00  0.00     0.118 C
HETATM   23  O4  UNL     1       1.750   4.565  29.445  1.00  0.00    -0.273 OA
ATOM     24  H4  UNL     1       0.636   2.469  27.264  1.00  0.00     0.182 HD
ENDBRANCH  17  20
ENDBRANCH   6  17
TORSDOF 6
ENDMDL