MODEL 5
REMARK VINA RESULT: -7.139029106      2.989      6.213
REMARK  6 active torsions:
REMARK  status: ('A' for Active; 'I' for Inactive)
REMARK    1  A    between atoms: C2_2  and  C3_3
REMARK    2  A    between atoms: C3_3  and  C4_4
REMARK    3  A    between atoms: C3_3  and  N1_7
REMARK    4  A    between atoms: C4_4  and  O1_5
REMARK    5  A    between atoms: C6_12  and  N3_13
REMARK    6  A    between atoms: N7_28  and  C16_29
ROOT
HETATM    1  N1  UNL     1       1.084  -0.190  25.810  1.00  0.00    -0.367 N
ATOM      2  H1  UNL     1       0.431  -0.939  26.040  1.00  0.00     0.161 HD
HETATM    3  C5  UNL     1       1.299  -0.098  24.583  1.00  0.00     0.148 A
HETATM    4  N2  UNL     1       0.665  -0.966  23.758  1.00  0.00    -0.174 N
ATOM      5  H2  UNL     1       0.041  -1.653  24.181  1.00  0.00     0.186 HD
HETATM    6  C6  UNL     1       0.800  -0.984  22.425  1.00  0.00     0.683 A
HETATM    7  N5  UNL     1       1.622  -0.074  21.888  1.00  0.00    -0.174 N
ATOM      8  H5  UNL     1       1.750  -0.056  20.876  1.00  0.00     0.186 HD
HETATM    9  C12 UNL     1       2.284   0.819  22.650  1.00  0.00     0.155 A
HETATM   10  C13 UNL     1       2.138   0.828  24.020  1.00  0.00     0.123 A
HETATM   11  N6  UNL     1       2.916   1.821  24.481  1.00  0.00    -0.340 N
ATOM     12  H6  UNL     1       3.014   2.072  25.465  1.00  0.00     0.167 HD
HETATM   13  C14 UNL     1       3.545   2.436  23.471  1.00  0.00     0.081 A
HETATM   14  C15 UNL     1       4.494   3.590  23.615  1.00  0.00     0.089 C
HETATM   15  N7  UNL     1       3.155   1.821  22.349  1.00  0.00    -0.321 N
ENDROOT
BRANCH   1  16
HETATM   16  C3  UNL     1       1.536   0.502  26.945  1.00  0.00     0.106 C
BRANCH  16  17
HETATM   17  C2  UNL     1       0.500   1.471  27.507  1.00  0.00     0.023 C
HETATM   18  C1  UNL     1       1.076   2.800  27.862  1.00  0.00     0.007 C
ENDBRANCH  16  17
BRANCH  16  19
HETATM   19  C4  UNL     1       1.936  -0.471  28.036  1.00  0.00     0.189 C
BRANCH  19  20
HETATM   20  O1  UNL     1       2.389  -1.671  27.487  1.00  0.00    -0.399 OA
ATOM     21  H1  UNL     1       3.321  -1.780  27.640  1.00  0.00     0.209 HD
ENDBRANCH  19  20
ENDBRANCH  16  19
ENDBRANCH   1  16
BRANCH   6  22
HETATM   22  N3  UNL     1       0.095  -1.936  21.607  1.00  0.00    -0.214 N
HETATM   23  C7  UNL     1      -0.850  -1.486  20.651  1.00  0.00     0.171 C
HETATM   24  C8  UNL     1      -1.734  -2.512  20.061  1.00  0.00     0.292 C
HETATM   25  N4  UNL     1      -1.414  -3.871  20.387  1.00  0.00     0.087 N
HETATM   26  C9  UNL     1      -2.480  -4.774  20.078  1.00  0.00     0.310 C
HETATM   27  C10 UNL     1      -0.954  -4.057  21.739  1.00  0.00     0.292 C
HETATM   28  C11 UNL     1       0.398  -3.334  21.812  1.00  0.00     0.171 C
ENDBRANCH   6  22
BRANCH  15  29
HETATM   29  C16 UNL     1       3.576   2.143  21.015  1.00  0.00     0.127 C
HETATM   30  C17 UNL     1       2.547   2.904  20.236  1.00  0.00     0.027 C
ENDBRANCH  15  29
TORSDOF 6
ENDMDL