MODEL 2
REMARK VINA RESULT: -8.369787000      2.051      6.241
REMARK  6 active torsions:
REMARK  status: ('A' for Active; 'I' for Inactive)
REMARK    1  A    between atoms: C2_2  and  C3_3
REMARK    2  A    between atoms: C3_3  and  N1_4
REMARK    3  A    between atoms: N3_10  and  C6_12
REMARK    4  A    between atoms: C6_12  and  C7_13
REMARK    5  A    between atoms: C7_13  and  C8_14
REMARK    6  A    between atoms: C8_14  and  O2_15
ROOT
HETATM    1  N1  UNL     1      -0.513  -1.535  22.283  1.00  0.00    -0.280 N
HETATM    2  C4  UNL     1       0.460  -1.077  21.493  1.00  0.00     0.330 A
HETATM    3  O1  UNL     1       0.428  -1.399  20.293  1.00  0.00    -0.246 OA
HETATM    4  N2  UNL     1       1.435  -0.304  21.958  1.00  0.00    -0.292 N
ATOM      5  H2  UNL     1       2.155   0.022  21.313  1.00  0.00     0.172 HD
HETATM    6  C5  UNL     1       1.505   0.073  23.280  1.00  0.00     0.136 A
HETATM    7  N3  UNL     1       2.479   0.795  23.556  1.00  0.00    -0.374 N
ATOM      8  H3  UNL     1       2.554   1.089  24.529  1.00  0.00     0.161 HD
HETATM    9  C9  UNL     1       0.528  -0.380  24.101  1.00  0.00     0.131 A
HETATM   10  C10 UNL     1      -0.499  -1.201  23.581  1.00  0.00     0.145 A
HETATM   11  N4  UNL     1      -1.330  -1.513  24.577  1.00  0.00    -0.325 N
ATOM     12  H4  UNL     1      -2.165  -2.094  24.504  1.00  0.00     0.169 HD
HETATM   13  C11 UNL     1      -0.870  -0.926  25.691  1.00  0.00     0.123 A
HETATM   14  C12 UNL     1      -1.364  -0.938  26.976  1.00  0.00     0.005 A
HETATM   15  C13 UNL     1      -2.602  -1.699  27.273  1.00  0.00     0.054 C
HETATM   16  C14 UNL     1      -0.710  -0.252  27.959  1.00  0.00     0.016 A
HETATM   17  C15 UNL     1      -1.180  -0.217  29.366  1.00  0.00     0.069 C
HETATM   18  N5  UNL     1       0.398   0.419  27.654  1.00  0.00    -0.349 N
ATOM     19  H5  UNL     1       0.885   0.932  28.390  1.00  0.00     0.167 HD
HETATM   20  C16 UNL     1       0.906   0.443  26.376  1.00  0.00     0.086 A
HETATM   21  C17 UNL     1       2.132   1.243  26.245  1.00  0.00     0.089 C
HETATM   22  N6  UNL     1       0.275  -0.218  25.434  1.00  0.00    -0.280 N
ENDROOT
BRANCH   7  23
HETATM   23  C6  UNL     1       3.508   1.266  22.684  1.00  0.00     0.123 C
BRANCH  23  24
HETATM   24  C7  UNL     1       3.366   2.703  22.265  1.00  0.00     0.045 C
BRANCH  24  25
HETATM   25  C8  UNL     1       3.187   2.822  20.769  1.00  0.00     0.165 C
BRANCH  25  26
HETATM   26  O2  UNL     1       2.699   1.605  20.293  1.00  0.00    -0.401 OA
ATOM     27  H2  UNL     1       1.789   1.529  20.554  1.00  0.00     0.209 HD
ENDBRANCH  25  26
ENDBRANCH  24  25
ENDBRANCH  23  24
ENDBRANCH   7  23
BRANCH   1  28
HETATM   28  C3  UNL     1      -1.553  -2.372  21.739  1.00  0.00     0.162 C
BRANCH  28  29
HETATM   29  C2  UNL     1      -1.161  -3.810  21.750  1.00  0.00    -0.017 C
HETATM   30  C1  UNL     1      -1.893  -4.692  21.081  1.00  0.00     0.008 C
ENDBRANCH  28  29
ENDBRANCH   1  28
TORSDOF 6
ENDMDL