MODEL 1
REMARK VINA RESULT: -7.635426262      0.000      0.000
REMARK  4 active torsions:
REMARK  status: ('A' for Active; 'I' for Inactive)
REMARK    1  A    between atoms: C3_3  and  C4_4
REMARK    2  A    between atoms: N1_5  and  N2_7
REMARK    3  A    between atoms: C8_15  and  N6_16
REMARK    4  A    between atoms: N7_22  and  C13_23
ROOT
HETATM    1  C1  UNL     1       2.167  -1.435  20.587  1.00  0.00     0.069 C
HETATM    2  C2  UNL     1       1.587  -1.344  21.951  1.00  0.00     0.024 A
HETATM    3  C3  UNL     1       1.931  -0.416  22.892  1.00  0.00     0.028 A
HETATM    4  C6  UNL     1       1.176  -0.688  24.003  1.00  0.00     0.102 A
HETATM    5  C7  UNL     1       1.206   0.028  25.245  1.00  0.00     0.104 C
HETATM    6  N5  UNL     1       1.227   0.591  26.267  1.00  0.00    -0.191 NA
HETATM    7  C8  UNL     1       0.371  -1.807  23.697  1.00  0.00     0.128 A
HETATM    8  N7  UNL     1       0.629  -2.195  22.447  1.00  0.00    -0.322 N
ENDROOT
BRANCH   3   9
HETATM    9  C4  UNL     1       2.920   0.665  22.705  1.00  0.00     0.122 C
HETATM   10  N1  UNL     1       2.632   1.744  22.130  1.00  0.00    -0.309 N
ATOM     11  H1  UNL     1       1.669   1.815  21.800  1.00  0.00     0.186 HD
BRANCH  10  12
HETATM   12  N2  UNL     1       3.387   2.803  21.884  1.00  0.00    -0.276 N
HETATM   13  C5  UNL     1       3.745   3.482  20.894  1.00  0.00     0.215 C
HETATM   14  N3  UNL     1       4.617   4.594  21.162  1.00  0.00    -0.065 NA
HETATM   15  N4  UNL     1       3.305   3.170  19.562  1.00  0.00    -0.065 NA
ATOM     16  H2  UNL     1       3.792   3.171  22.745  1.00  0.00     0.189 HD
ENDBRANCH  10  12
ENDBRANCH   3   9
BRANCH   7  17
HETATM   17  N6  UNL     1      -0.576  -2.384  24.602  1.00  0.00    -0.364 N
HETATM   18  C9  UNL     1      -1.991  -2.100  24.454  1.00  0.00     0.134 C
HETATM   19  C10 UNL     1      -2.485  -1.185  25.530  1.00  0.00     0.093 C
HETATM   20  S1  UNL     1      -1.916  -1.739  27.172  1.00  0.00    -0.166 SA
HETATM   21  C11 UNL     1      -0.644  -3.002  27.016  1.00  0.00     0.093 C
HETATM   22  C12 UNL     1      -0.149  -3.266  25.651  1.00  0.00     0.134 C
ENDBRANCH   7  17
BRANCH   8  23
HETATM   23  C13 UNL     1       0.049  -3.258  21.653  1.00  0.00     0.254 C
HETATM   24  C14 UNL     1      -1.077  -2.823  20.832  1.00  0.00     0.079 C
HETATM   25  N8  UNL     1      -1.956  -2.470  20.163  1.00  0.00    -0.196 NA
ENDBRANCH   8  23
TORSDOF 4
ENDMDL