MODEL 2
REMARK VINA RESULT: -7.392667768      0.938      1.192
REMARK  11 active torsions:
REMARK  status: ('A' for Active; 'I' for Inactive)
REMARK    1  A    between atoms: C1_2  and  N1_3
REMARK    2  A    between atoms: N4_6  and  N5_7
REMARK    3  A    between atoms: N5_7  and  N6_9
REMARK    4  A    between atoms: C2_11  and  C3_12
REMARK    5  A    between atoms: C4_13  and  O2_14
REMARK    6  A    between atoms: C6_17  and  O3_18
REMARK    7  A    between atoms: C7_20  and  O4_21
REMARK    8  A    between atoms: C8_23  and  C9_24
REMARK       I    between atoms: C9_24  and  N7_26
REMARK    9  A    between atoms: N7_26  and  C10_28
REMARK   10  A    between atoms: C10_28  and  O6_29
REMARK   11  A    between atoms: C11_31  and  O7_32
ROOT
HETATM    1  C3  UNL     1       3.769  -9.546  27.472  1.00  0.00     0.083 A
HETATM    2  C4  UNL     1       5.119  -9.931  27.317  1.00  0.00     0.098 A
HETATM    3  C5  UNL     1       5.493 -10.388  26.064  1.00  0.00     0.064 A
HETATM    4  C6  UNL     1       6.794 -10.786  25.824  1.00  0.00     0.115 A
HETATM    5  C7  UNL     1       7.158 -11.241  24.567  1.00  0.00     0.118 A
HETATM    6  C8  UNL     1       6.265 -11.316  23.535  1.00  0.00     0.103 A
HETATM    7  C11 UNL     1       4.930 -10.911  23.772  1.00  0.00     0.112 A
HETATM    8  C12 UNL     1       4.564 -10.455  25.029  1.00  0.00     0.085 A
HETATM    9  N8  UNL     1       3.284 -10.064  25.262  1.00  0.00    -0.320 N
ATOM     10  H8  UNL     1       2.610 -10.114  24.499  1.00  0.00     0.169 HD
HETATM   11  C13 UNL     1       2.875  -9.618  26.445  1.00  0.00     0.260 A
HETATM   12  O8  UNL     1       1.672  -9.254  26.656  1.00  0.00    -0.267 OA
ENDROOT
BRANCH   1  13
HETATM   13  C2  UNL     1       3.374  -9.063  28.790  1.00  0.00     0.128 C
HETATM   14  N6  UNL     1       3.486  -7.841  29.080  1.00  0.00    -0.295 N
ATOM     15  H6  UNL     1       3.859  -7.226  28.357  1.00  0.00     0.187 HD
BRANCH  14  16
HETATM   16  N5  UNL     1       3.149  -7.255  30.289  1.00  0.00    -0.219 N
ATOM     17  H5  UNL     1       2.629  -7.794  30.982  1.00  0.00     0.210 HD
BRANCH  16  18
HETATM   18  N4  UNL     1       3.510  -5.945  30.569  1.00  0.00    -0.111 N
HETATM   19  N3  UNL     1       3.068  -4.851  29.946  1.00  0.00     0.021 NA
HETATM   20  N2  UNL     1       3.642  -3.769  30.496  1.00  0.00     0.007 NA
HETATM   21  N1  UNL     1       4.450  -4.149  31.469  1.00  0.00    -0.163 N
HETATM   22  C14 UNL     1       4.362  -5.498  31.508  1.00  0.00     0.382 A
HETATM   23  O9  UNL     1       4.978  -6.259  32.297  1.00  0.00    -0.242 OA
BRANCH  21  24
HETATM   24  C1  UNL     1       5.259  -3.359  32.321  1.00  0.00     0.378 C
HETATM   25  O1  UNL     1       5.017  -3.239  33.546  1.00  0.00    -0.282 OA
ENDBRANCH  21  24
ENDBRANCH  16  18
ENDBRANCH  14  16
ENDBRANCH   1  13
BRANCH   2  26
HETATM   26  O2  UNL     1       5.927  -9.826  28.379  1.00  0.00    -0.359 OA
ATOM     27  H2  UNL     1       6.711 -10.362  28.397  1.00  0.00     0.217 HD
ENDBRANCH   2  26
BRANCH   4  28
HETATM   28  O3  UNL     1       7.684 -10.712  26.853  1.00  0.00    -0.357 OA
ATOM     29  H3  UNL     1       8.055 -11.523  27.179  1.00  0.00     0.217 HD
ENDBRANCH   4  28
BRANCH   5  30
HETATM   30  O4  UNL     1       8.471 -11.615  24.419  1.00  0.00    -0.357 OA
ATOM     31  H4  UNL     1       8.637 -12.550  24.394  1.00  0.00     0.217 HD
ENDBRANCH   5  30
BRANCH   7  32
HETATM   32  O7  UNL     1       4.028 -10.985  22.732  1.00  0.00    -0.357 OA
ATOM     33  H7  UNL     1       3.165 -11.340  22.907  1.00  0.00     0.217 HD
ENDBRANCH   7  32
BRANCH   6  34
HETATM   34  C9  UNL     1       6.596 -11.777  22.234  1.00  0.00     0.259 C
HETATM   35  O5  UNL     1       5.863 -12.724  21.735  1.00  0.00    -0.267 OA
HETATM   36  N7  UNL     1       7.620 -11.338  21.409  1.00  0.00    -0.336 N
ATOM     37  H7  UNL     1       8.236 -10.594  21.739  1.00  0.00     0.164 HD
BRANCH  36  38
HETATM   38  C10 UNL     1       7.849 -11.916  20.067  1.00  0.00     0.290 C
BRANCH  38  39
HETATM   39  O6  UNL     1       6.713 -11.915  19.300  1.00  0.00    -0.382 OA
ATOM     40  H6  UNL     1       5.975 -12.309  19.749  1.00  0.00     0.211 HD
ENDBRANCH  38  39
ENDBRANCH  36  38
ENDBRANCH   6  34
TORSDOF 11
ENDMDL