MODEL 2
REMARK VINA RESULT: -6.487963637      2.035      2.596
REMARK  11 active torsions:
REMARK  status: ('A' for Active; 'I' for Inactive)
REMARK    1  A    between atoms: O1_2  and  C2_3
REMARK       I    between atoms: C2_3  and  N1_5
REMARK       I    between atoms: N1_5  and  C3_7
REMARK       I    between atoms: C3_7  and  N2_8
REMARK       I    between atoms: C3_7  and  N11_35
REMARK    2  A    between atoms: N2_8  and  O3_10
REMARK    3  A    between atoms: O3_10  and  C4_11
REMARK    4  A    between atoms: C4_11  and  N4_15
REMARK    5  A    between atoms: N4_15  and  N5_17
REMARK    6  A    between atoms: N6_19  and  C6_21
REMARK    7  A    between atoms: C8_25  and  N8_26
REMARK    8  A    between atoms: C9_31  and  N10_32
REMARK    9  A    between atoms: C11_41  and  N14_42
REMARK   10  A    between atoms: N14_42  and  O4_43
REMARK   11  A    between atoms: N14_42  and  O5_45
ROOT
HETATM    1  C4  UNL     1       7.793  -0.588  31.168  1.00  0.00     0.259 C
HETATM    2  N3  UNL     1       7.765   0.023  32.301  1.00  0.00    -0.362 N
ATOM      3  H31 UNL     1       8.116  -0.496  33.106  1.00  0.00     0.159 HD
ATOM      4  H32 UNL     1       7.417   0.976  32.409  1.00  0.00     0.159 HD
ENDROOT
BRANCH   1   5
HETATM    5  O3  UNL     1       7.317   0.117  30.072  1.00  0.00    -0.185 OA
BRANCH   5   6
HETATM    6  N2  UNL     1       6.042   0.464  29.868  1.00  0.00    -0.087 N
HETATM    7  C3  UNL     1       5.351  -0.071  28.758  1.00  0.00     0.717 C
HETATM    8  N1  UNL     1       5.557  -1.508  28.699  1.00  0.00    -0.133 N
HETATM    9  N11 UNL     1       5.367   0.588  27.514  1.00  0.00    -0.109 N
HETATM   10  C2  UNL     1       4.563  -2.479  28.983  1.00  0.00     0.378 C
ATOM     11  H1  UNL     1       6.483  -1.843  28.434  1.00  0.00     0.190 HD
HETATM   12  O2  UNL     1       3.397  -2.143  29.317  1.00  0.00    -0.238 OA
HETATM   13  C10 UNL     1       4.231   0.870  26.802  1.00  0.00     0.226 A
HETATM   14  C11 UNL     1       6.352   1.053  26.768  1.00  0.00     0.248 A
HETATM   15  N12 UNL     1       4.538   1.482  25.676  1.00  0.00    -0.293 N
HETATM   16  N13 UNL     1       5.823   1.608  25.626  1.00  0.00    -0.270 N
ATOM     17  H12 UNL     1       3.877   1.800  24.967  1.00  0.00     0.187 HD
ATOM     18  H13 UNL     1       6.353   2.043  24.872  1.00  0.00     0.189 HD
ATOM     19  H2  UNL     1       5.574   1.107  30.507  1.00  0.00     0.214 HD
BRANCH  10  20
HETATM   20  O1  UNL     1       4.823  -3.839  28.908  1.00  0.00    -0.308 OA
HETATM   21  C1  UNL     1       5.947  -4.432  29.544  1.00  0.00     0.215 C
ENDBRANCH  10  20
BRANCH  14  22
HETATM   22  N14 UNL     1       7.742   1.045  26.985  1.00  0.00     0.002 NA
BRANCH  22  23
HETATM   23  O4  UNL     1       8.139   1.898  27.978  1.00  0.00    -0.282 OA
ATOM     24  H4  UNL     1       8.513   1.451  28.729  1.00  0.00     0.240 HD
ENDBRANCH  22  23
BRANCH  22  25
HETATM   25  O5  UNL     1       8.139  -0.191  27.477  1.00  0.00    -0.282 OA
ATOM     26  H5  UNL     1       8.324  -0.128  28.406  1.00  0.00     0.240 HD
ENDBRANCH  22  25
ENDBRANCH  14  22
ENDBRANCH   5   6
ENDBRANCH   1   5
BRANCH   1  27
HETATM   27  N4  UNL     1       8.283  -1.926  31.015  1.00  0.00    -0.245 N
HETATM   28  C5  UNL     1       8.212  -2.891  32.094  1.00  0.00     0.183 C
BRANCH  27  29
HETATM   29  N5  UNL     1       8.848  -2.325  29.804  1.00  0.00    -0.237 N
HETATM   30  N6  UNL     1       9.997  -2.034  29.424  1.00  0.00    -0.281 N
ATOM     31  H6  UNL     1      10.338  -2.367  28.522  1.00  0.00     0.188 HD
ATOM     32  H5  UNL     1       8.276  -2.899  29.184  1.00  0.00     0.208 HD
BRANCH  30  33
HETATM   33  C6  UNL     1      10.831  -1.237  30.251  1.00  0.00     0.109 A
HETATM   34  C7  UNL     1      11.502  -1.717  31.356  1.00  0.00     0.141 A
HETATM   35  N7  UNL     1      12.266  -0.881  32.072  1.00  0.00    -0.200 N
HETATM   36  C8  UNL     1      12.428   0.422  31.785  1.00  0.00     0.677 A
ATOM     37  H7  UNL     1      12.755  -1.256  32.886  1.00  0.00     0.183 HD
HETATM   38  N9  UNL     1      11.781   0.909  30.712  1.00  0.00    -0.175 N
HETATM   39  C9  UNL     1      11.001   0.109  29.958  1.00  0.00     0.144 A
ATOM     40  H9  UNL     1      11.883   1.894  30.464  1.00  0.00     0.186 HD
BRANCH  36  41
HETATM   41  N8  UNL     1      13.181   1.209  32.508  1.00  0.00    -0.234 N
ATOM     42  H82 UNL     1      13.153   1.150  33.526  1.00  0.00     0.174 HD
ATOM     43  H81 UNL     1      13.812   1.895  32.091  1.00  0.00     0.174 HD
ENDBRANCH  36  41
BRANCH  39  44
HETATM   44  N10 UNL     1      10.398   0.605  28.937  1.00  0.00    -0.383 N
ATOM     45 2H10 UNL     1       9.752   0.019  28.409  1.00  0.00     0.157 HD
ATOM     46 1H10 UNL     1      10.578   1.576  28.680  1.00  0.00     0.157 HD
ENDBRANCH  39  44
ENDBRANCH  30  33
ENDBRANCH  27  29
ENDBRANCH   1  27
TORSDOF 11
ENDMDL