MODEL 2
REMARK VINA RESULT: -7.416137703      3.417     10.531
REMARK  10 active torsions:
REMARK  status: ('A' for Active; 'I' for Inactive)
REMARK    1  A    between atoms: C2_5  and  C3_6
REMARK    2  A    between atoms: C3_6  and  O1_7
REMARK    3  A    between atoms: C3_6  and  N3_9
REMARK    4  A    between atoms: N3_9  and  C4_11
REMARK    5  A    between atoms: C4_11  and  C5_12
REMARK    6  A    between atoms: C5_12  and  C6_13
REMARK    7  A    between atoms: N4_15  and  C8_16
REMARK    8  A    between atoms: C11_26  and  N8_27
REMARK    9  A    between atoms: N12_36  and  N13_38
REMARK   10  A    between atoms: C13_43  and  N15_44
ROOT
HETATM    1  C4  UNL     1       6.128 -10.653  24.327  1.00  0.00     0.122 C
ENDROOT
BRANCH   1   2
HETATM    2  N3  UNL     1       6.909 -11.723  23.841  1.00  0.00    -0.392 N
ATOM      3  H3  UNL     1       7.351 -12.400  24.463  1.00  0.00     0.156 HD
BRANCH   2   4
HETATM    4  C3  UNL     1       7.038 -11.796  22.433  1.00  0.00     0.270 C
BRANCH   4   5
HETATM    5  C2  UNL     1       7.879 -12.957  22.057  1.00  0.00     0.120 A
HETATM    6  N2  UNL     1       8.529 -13.666  23.014  1.00  0.00    -0.281 N
HETATM    7  N1  UNL     1       9.361 -14.656  22.781  1.00  0.00    -0.128 N
ATOM      8  H2  UNL     1       8.360 -13.411  23.987  1.00  0.00     0.187 HD
HETATM    9  C1  UNL     1      10.014 -15.360  23.869  1.00  0.00     0.197 C
HETATM   10  C13 UNL     1       9.570 -14.973  21.494  1.00  0.00     0.694 A
HETATM   11  N14 UNL     1       8.970 -14.325  20.527  1.00  0.00    -0.172 N
HETATM   12  C12 UNL     1       8.086 -13.278  20.739  1.00  0.00     0.163 A
ATOM     13  H14 UNL     1       9.163 -14.606  19.565  1.00  0.00     0.186 HD
HETATM   14  N12 UNL     1       7.540 -12.788  19.719  1.00  0.00    -0.290 N
ATOM     15  H12 UNL     1       7.893 -13.222  18.866  1.00  0.00     0.188 HD
BRANCH  10  16
HETATM   16  N15 UNL     1      10.401 -15.958  21.290  1.00  0.00    -0.233 N
ATOM     17 2H15 UNL     1      10.520 -16.735  21.941  1.00  0.00     0.174 HD
ATOM     18 1H15 UNL     1      10.936 -15.905  20.423  1.00  0.00     0.174 HD
ENDBRANCH  10  16
BRANCH  14  19
HETATM   19  N13 UNL     1       6.634 -11.865  19.447  1.00  0.00    -0.344 N
ATOM     20 2H13 UNL     1       5.985 -12.215  18.742  1.00  0.00     0.176 HD
ATOM     21 1H13 UNL     1       6.416 -10.915  19.747  1.00  0.00     0.176 HD
ENDBRANCH  14  19
ENDBRANCH   4   5
BRANCH   4  22
HETATM   22  O1  UNL     1       7.413 -10.600  21.837  1.00  0.00    -0.371 OA
ATOM     23  H1  UNL     1       7.413  -9.853  22.423  1.00  0.00     0.212 HD
ENDBRANCH   4  22
ENDBRANCH   2   4
ENDBRANCH   1   2
BRANCH   1  24
HETATM   24  C5  UNL     1       4.641 -10.770  24.060  1.00  0.00     0.079 C
BRANCH  24  25
HETATM   25  C6  UNL     1       3.850 -10.090  25.125  1.00  0.00     0.043 A
HETATM   26  C7  UNL     1       3.098 -10.692  26.112  1.00  0.00     0.159 A
HETATM   27  N4  UNL     1       2.518  -9.748  26.911  1.00  0.00    -0.080 N
HETATM   28  N10 UNL     1       2.918  -8.593  26.409  1.00  0.00    -0.001 NA
HETATM   29  N11 UNL     1       3.708  -8.772  25.351  1.00  0.00    -0.286 N
ATOM     30  H11 UNL     1       4.137  -8.029  24.801  1.00  0.00     0.184 HD
BRANCH  27  31
HETATM   31  C8  UNL     1       1.682 -10.006  28.022  1.00  0.00     0.705 A
HETATM   32  N5  UNL     1       0.650 -10.836  27.983  1.00  0.00    -0.172 N
HETATM   33  C9  UNL     1      -0.158 -11.081  29.070  1.00  0.00     0.159 A
ATOM     34  H5  UNL     1       0.444 -11.316  27.106  1.00  0.00     0.186 HD
HETATM   35  N6  UNL     1      -1.203 -11.912  29.059  1.00  0.00    -0.296 N
HETATM   36  C10 UNL     1       0.104 -10.457  30.228  1.00  0.00     0.129 A
HETATM   37  S1  UNL     1      -1.806 -11.823  30.622  1.00  0.00     0.069 SA
ATOM     38  H6  UNL     1      -1.554 -12.470  28.281  1.00  0.00     0.177 HD
HETATM   39  N7  UNL     1      -0.706 -10.725  31.257  1.00  0.00    -0.306 N
ATOM     40  H7  UNL     1      -0.666 -10.351  32.204  1.00  0.00     0.176 HD
HETATM   41  C11 UNL     1       1.199  -9.576  30.276  1.00  0.00     0.146 A
HETATM   42  N9  UNL     1       1.935  -9.387  29.185  1.00  0.00    -0.173 N
ATOM     43  H9  UNL     1       2.726  -8.745  29.235  1.00  0.00     0.186 HD
BRANCH  41  44
HETATM   44  N8  UNL     1       1.499  -8.949  31.356  1.00  0.00    -0.383 N
ATOM     45  H82 UNL     1       1.854  -9.471  32.157  1.00  0.00     0.157 HD
ATOM     46  H81 UNL     1       1.388  -7.937  31.426  1.00  0.00     0.157 HD
ENDBRANCH  41  44
ENDBRANCH  27  31
ENDBRANCH  24  25
ENDBRANCH   1  24
TORSDOF 10
ENDMDL