MODEL 5
REMARK VINA RESULT: -6.654310795     14.493     16.115
REMARK  11 active torsions:
REMARK  status: ('A' for Active; 'I' for Inactive)
REMARK       I    between atoms: C2_2  and  N1_4
REMARK    1  A    between atoms: N1_4  and  C3_6
REMARK    2  A    between atoms: N3_10  and  N4_12
REMARK    3  A    between atoms: N4_12  and  C5_13
REMARK    4  A    between atoms: C5_13  and  C7_16
REMARK    5  A    between atoms: N6_18  and  C9_19
REMARK    6  A    between atoms: C9_19  and  C10_20
REMARK    7  A    between atoms: C10_20  and  O2_21
REMARK    8  A    between atoms: C10_20  and  O3_23
REMARK    9  A    between atoms: N11_37  and  N12_38
REMARK   10  A    between atoms: N12_38  and  O4_40
REMARK   11  A    between atoms: C14_42  and  O5_43
ROOT
HETATM    1  C5  UNL     1       7.342 -13.198  21.051  1.00  0.00     0.240 C
HETATM    2  C6  UNL     1       7.069 -12.474  19.803  1.00  0.00     0.137 C
HETATM    3  N5  UNL     1       6.874 -11.904  18.818  1.00  0.00    -0.188 NA
ENDROOT
BRANCH   1   4
HETATM    4  N4  UNL     1       7.566 -14.358  21.025  1.00  0.00    -0.297 NA
BRANCH   4   5
HETATM    5  N3  UNL     1       7.805 -15.619  21.005  1.00  0.00    -0.062 N
HETATM    6  C4  UNL     1       8.893 -16.224  21.384  1.00  0.00     0.734 A
HETATM    7  N2  UNL     1      10.008 -15.597  21.888  1.00  0.00    -0.168 N
HETATM    8  N11 UNL     1       9.143 -17.542  21.334  1.00  0.00    -0.036 N
HETATM    9  C3  UNL     1      10.948 -16.496  22.149  1.00  0.00     0.177 A
ATOM     10  H2  UNL     1      10.098 -14.592  22.038  1.00  0.00     0.186 HD
HETATM   11  C14 UNL     1      10.388 -17.729  21.795  1.00  0.00     0.227 A
ATOM     12  H3  UNL     1       7.056 -16.215  20.653  1.00  0.00     0.221 HD
BRANCH   9  13
HETATM   13  N1  UNL     1      12.285 -16.347  22.662  1.00  0.00    -0.309 N
HETATM   14  C2  UNL     1      12.512 -16.134  24.010  1.00  0.00     0.219 C
HETATM   15  C1  UNL     1      13.832 -15.935  24.614  1.00  0.00     0.117 C
HETATM   16  O1  UNL     1      11.515 -16.092  24.843  1.00  0.00    -0.274 OA
ATOM     17  H1  UNL     1      13.077 -16.398  22.021  1.00  0.00     0.170 HD
ENDBRANCH   9  13
BRANCH  11  18
HETATM   18  O5  UNL     1      11.005 -18.987  21.892  1.00  0.00    -0.342 OA
ATOM     19  H5  UNL     1      11.055 -19.535  22.666  1.00  0.00     0.219 HD
ENDBRANCH  11  18
BRANCH   8  20
HETATM   20  N12 UNL     1       8.274 -18.552  20.888  1.00  0.00    -0.183 N
HETATM   21  C13 UNL     1       7.420 -19.317  21.746  1.00  0.00     0.209 C
BRANCH  20  22
HETATM   22  O4  UNL     1       8.228 -18.832  19.545  1.00  0.00    -0.272 OA
ATOM     23  H4  UNL     1       8.104 -19.733  19.273  1.00  0.00     0.246 HD
ENDBRANCH  20  22
ENDBRANCH   8  20
ENDBRANCH   4   5
ENDBRANCH   1   4
BRANCH   1  24
HETATM   24  C7  UNL     1       7.297 -12.379  22.258  1.00  0.00     0.120 A
HETATM   25  C8  UNL     1       6.194 -11.631  22.686  1.00  0.00     0.151 A
HETATM   26  N6  UNL     1       6.494 -10.998  23.857  1.00  0.00    -0.222 N
HETATM   27  N9  UNL     1       7.732 -11.340  24.139  1.00  0.00    -0.236 N
HETATM   28  N10 UNL     1       8.230 -12.161  23.204  1.00  0.00    -0.281 N
ATOM     29  H9  UNL     1       8.246 -11.023  24.961  1.00  0.00     0.208 HD
ATOM     30  H10 UNL     1       9.170 -12.558  23.208  1.00  0.00     0.188 HD
BRANCH  26  31
HETATM   31  C9  UNL     1       5.577 -10.135  24.588  1.00  0.00     0.431 C
HETATM   32  N7  UNL     1       5.468 -10.633  25.941  1.00  0.00    -0.014 N
HETATM   33  C11 UNL     1       4.270 -10.042  26.475  1.00  0.00     0.265 C
ATOM     34  H72 UNL     1       5.486 -11.651  26.004  1.00  0.00     0.282 HD
ATOM     35  H71 UNL     1       6.298 -10.461  26.508  1.00  0.00     0.282 HD
HETATM   36  C12 UNL     1       3.388  -9.928  25.253  1.00  0.00     0.265 C
HETATM   37  N8  UNL     1       4.238 -10.192  24.095  1.00  0.00    -0.014 N
ATOM     38  H82 UNL     1       4.063  -9.569  23.307  1.00  0.00     0.282 HD
ATOM     39  H81 UNL     1       4.015 -11.061  23.611  1.00  0.00     0.282 HD
BRANCH  31  40
HETATM   40  C10 UNL     1       6.128  -8.731  24.646  1.00  0.00     0.344 C
BRANCH  40  41
HETATM   41  O2  UNL     1       7.026  -8.672  25.710  1.00  0.00    -0.366 OA
ATOM     42  H2  UNL     1       6.914  -7.830  26.135  1.00  0.00     0.212 HD
ENDBRANCH  40  41
BRANCH  40  43
HETATM   43  O3  UNL     1       6.744  -8.390  23.451  1.00  0.00    -0.366 OA
ATOM     44  H3  UNL     1       6.195  -7.808  22.939  1.00  0.00     0.212 HD
ENDBRANCH  40  43
ENDBRANCH  31  40
ENDBRANCH  26  31
ENDBRANCH   1  24
TORSDOF 11
ENDMDL