MODEL 2
REMARK VINA RESULT: -6.198682225      4.857      7.246
REMARK  9 active torsions:
REMARK  status: ('A' for Active; 'I' for Inactive)
REMARK    1  A    between atoms: C1_4  and  C2_5
REMARK    2  A    between atoms: C1_4  and  N4_11
REMARK    3  A    between atoms: C4_15  and  C5_16
REMARK    4  A    between atoms: C6_19  and  S1_20
REMARK    5  A    between atoms: S1_20  and  S2_21
REMARK    6  A    between atoms: S2_21  and  C7_22
REMARK    7  A    between atoms: C9_30  and  C10_31
REMARK    8  A    between atoms: C10_31  and  O5_32
REMARK    9  A    between atoms: C11_34  and  O6_35
ROOT
HETATM    1  N4  UNL     1      10.888  -0.502  31.800  1.00  0.00    -0.217 N
HETATM    2  N5  UNL     1      12.086   0.206  32.097  1.00  0.00    -0.113 NA
HETATM    3  C3  UNL     1      12.689   0.398  30.762  1.00  0.00     0.265 C
HETATM    4  N6  UNL     1      12.205  -0.779  30.090  1.00  0.00    -0.304 N
HETATM    5  C4  UNL     1      11.867  -1.971  29.389  1.00  0.00     0.133 C
HETATM    6  C6  UNL     1      10.616  -1.971  29.751  1.00  0.00     0.102 C
HETATM    7  C11 UNL     1      10.760  -0.669  30.392  1.00  0.00     0.276 C
ENDROOT
BRANCH   6   8
HETATM    8  S1  UNL     1       9.181  -2.966  29.511  1.00  0.00    -0.046 SA
BRANCH   8   9
HETATM    9  S2  UNL     1       8.369  -2.681  27.606  1.00  0.00    -0.035 SA
BRANCH   9  10
HETATM   10  C7  UNL     1       7.670  -1.053  27.489  1.00  0.00     0.105 C
HETATM   11  N7  UNL     1       8.528  -0.108  27.389  1.00  0.00    -0.283 N
HETATM   12  N8  UNL     1       8.319   1.256  27.282  1.00  0.00    -0.244 N
ATOM     13  H7  UNL     1       9.505  -0.402  27.388  1.00  0.00     0.188 HD
HETATM   14  N9  UNL     1       7.263   1.897  26.662  1.00  0.00    -0.100 NA
ATOM     15  H8  UNL     1       9.025   1.855  27.708  1.00  0.00     0.203 HD
HETATM   16  C8  UNL     1       6.351   0.888  26.100  1.00  0.00     0.305 C
HETATM   17  O4  UNL     1       5.710   0.279  27.143  1.00  0.00    -0.360 OA
HETATM   18  C9  UNL     1       6.201  -0.961  27.517  1.00  0.00     0.205 C
BRANCH  18  19
HETATM   19  C10 UNL     1       5.663  -1.185  28.939  1.00  0.00     0.203 C
BRANCH  19  20
HETATM   20  O5  UNL     1       6.472  -0.428  29.785  1.00  0.00    -0.398 OA
ATOM     21  H5  UNL     1       6.739  -1.010  30.488  1.00  0.00     0.209 HD
ENDBRANCH  19  20
ENDBRANCH  18  19
ENDBRANCH   9  10
ENDBRANCH   8   9
ENDBRANCH   6   8
BRANCH   5  22
HETATM   22  C5  UNL     1      12.757  -2.807  28.555  1.00  0.00     0.228 C
HETATM   23  O2  UNL     1      12.370  -3.745  27.838  1.00  0.00    -0.643 OA
HETATM   24  O3  UNL     1      14.153  -2.578  28.525  1.00  0.00    -0.643 OA
ENDBRANCH   5  22
BRANCH   7  25
HETATM   25  O6  UNL     1      10.162   0.398  29.718  1.00  0.00    -0.348 OA
ATOM     26  H6  UNL     1      10.442   0.516  28.818  1.00  0.00     0.215 HD
ENDBRANCH   7  25
BRANCH   1  27
HETATM   27  C1  UNL     1       9.983  -0.956  32.777  1.00  0.00     0.166 C
HETATM   28  N1  UNL     1      10.403  -1.601  33.804  1.00  0.00    -0.381 N
ATOM     29  H12 UNL     1       9.747  -1.930  34.512  1.00  0.00     0.157 HD
ATOM     30  H11 UNL     1      11.404  -1.776  33.893  1.00  0.00     0.157 HD
BRANCH  27  31
HETATM   31  C2  UNL     1       8.559  -0.708  32.651  1.00  0.00     0.194 A
HETATM   32  N2  UNL     1       7.416  -1.414  32.645  1.00  0.00    -0.220 N
HETATM   33  O1  UNL     1       6.690  -0.351  32.482  1.00  0.00    -0.153 OA
ATOM     34  H2  UNL     1       7.202  -2.407  32.735  1.00  0.00     0.198 HD
HETATM   35  N3  UNL     1       7.755   0.355  32.482  1.00  0.00    -0.220 N
ATOM     36  H3  UNL     1       7.930   1.356  32.388  1.00  0.00     0.198 HD
ENDBRANCH  27  31
ENDBRANCH   1  27
TORSDOF 9
ENDMDL