MODEL 3
REMARK VINA RESULT: -6.438456048      2.196      2.460
REMARK  13 active torsions:
REMARK  status: ('A' for Active; 'I' for Inactive)
REMARK    1  A    between atoms: O1_2  and  C2_3
REMARK    2  A    between atoms: C2_3  and  C3_5
REMARK    3  A    between atoms: C4_6  and  C5_7
REMARK    4  A    between atoms: N2_9  and  O3_11
REMARK    5  A    between atoms: C6_15  and  N4_16
REMARK    6  A    between atoms: N5_19  and  C7_20
REMARK    7  A    between atoms: C7_20  and  O4_21
REMARK    8  A    between atoms: O4_21  and  C8_22
REMARK    9  A    between atoms: C8_22  and  C9_24
REMARK   10  A    between atoms: C10_27  and  O6_28
REMARK   11  A    between atoms: C11_30  and  C12_31
REMARK   12  A    between atoms: C12_31  and  N7_32
REMARK   13  A    between atoms: C12_31  and  O7_36
ROOT
HETATM    1  C3  UNL     1       8.857 -14.543  22.929  1.00  0.00     0.138 A
HETATM    2  C4  UNL     1       8.480 -15.249  21.817  1.00  0.00     0.114 A
HETATM    3  N3  UNL     1       7.736 -14.624  20.859  1.00  0.00    -0.187 N
ATOM      4  H3  UNL     1       7.457 -15.152  20.033  1.00  0.00     0.184 HD
HETATM    5  C6  UNL     1       7.354 -13.328  20.963  1.00  0.00     0.683 A
HETATM    6  N5  UNL     1       7.721 -12.639  22.049  1.00  0.00    -0.124 N
HETATM    7  C13 UNL     1       8.455 -13.204  23.027  1.00  0.00     0.282 A
HETATM    8  O8  UNL     1       8.797 -12.559  24.038  1.00  0.00    -0.266 OA
ENDROOT
BRANCH   6   9
HETATM    9  C7  UNL     1       7.309 -11.244  22.166  1.00  0.00     0.332 C
BRANCH   9  10
HETATM   10  O4  UNL     1       6.086 -11.149  22.872  1.00  0.00    -0.295 OA
BRANCH  10  11
HETATM   11  C8  UNL     1       5.900 -10.052  23.701  1.00  0.00     0.319 C
HETATM   12  O5  UNL     1       6.541  -8.993  23.649  1.00  0.00    -0.257 OA
BRANCH  11  13
HETATM   13  C9  UNL     1       4.844 -10.162  24.733  1.00  0.00     0.153 A
HETATM   14  N6  UNL     1       4.331 -11.262  25.268  1.00  0.00    -0.325 N
HETATM   15  C10 UNL     1       3.404 -11.167  26.167  1.00  0.00     0.158 A
ATOM     16  H6  UNL     1       4.666 -12.179  24.974  1.00  0.00     0.168 HD
HETATM   17  C11 UNL     1       2.993  -9.911  26.527  1.00  0.00     0.091 A
HETATM   18  S1  UNL     1       3.977  -8.929  25.537  1.00  0.00    -0.062 SA
BRANCH  15  19
HETATM   19  O6  UNL     1       2.823 -12.311  26.771  1.00  0.00    -0.345 OA
ATOM     20  H6  UNL     1       2.151 -12.241  27.439  1.00  0.00     0.219 HD
ENDBRANCH  15  19
BRANCH  17  21
HETATM   21  C12 UNL     1       1.966  -9.457  27.512  1.00  0.00     0.362 C
BRANCH  21  22
HETATM   22  N7  UNL     1       1.488  -8.166  27.028  1.00  0.00    -0.048 N
ATOM     23  H73 UNL     1       1.702  -7.995  26.046  1.00  0.00     0.277 HD
ATOM     24  H72 UNL     1       0.472  -8.114  26.945  1.00  0.00     0.277 HD
ATOM     25  H71 UNL     1       1.880  -7.467  27.659  1.00  0.00     0.277 HD
ENDBRANCH  21  22
BRANCH  21  26
HETATM   26  O7  UNL     1       0.873 -10.308  27.535  1.00  0.00    -0.366 OA
ATOM     27  H7  UNL     1       1.117 -11.179  27.824  1.00  0.00     0.212 HD
ENDBRANCH  21  26
ENDBRANCH  17  21
ENDBRANCH  11  13
ENDBRANCH  10  11
ENDBRANCH   9  10
ENDBRANCH   6   9
BRANCH   5  28
HETATM   28  N4  UNL     1       6.653 -12.809  20.016  1.00  0.00    -0.234 N
ATOM     29  H42 UNL     1       5.826 -12.239  20.192  1.00  0.00     0.174 HD
ATOM     30  H41 UNL     1       6.934 -12.972  19.049  1.00  0.00     0.174 HD
ENDBRANCH   5  28
BRANCH   1  31
HETATM   31  C2  UNL     1       9.650 -15.078  24.012  1.00  0.00     0.300 C
HETATM   32  O2  UNL     1      10.801 -15.598  23.812  1.00  0.00    -0.259 OA
BRANCH  31  33
HETATM   33  O1  UNL     1       9.241 -15.078  25.342  1.00  0.00    -0.322 OA
HETATM   34  C1  UNL     1       8.326 -16.009  25.842  1.00  0.00     0.213 C
ENDBRANCH  31  33
ENDBRANCH   1  31
BRANCH   2  35
HETATM   35  C5  UNL     1       8.845 -16.649  21.635  1.00  0.00     0.164 C
HETATM   36  N1  UNL     1       7.932 -17.732  21.962  1.00  0.00    -0.078 NA
HETATM   37  N2  UNL     1       9.943 -17.051  21.186  1.00  0.00    -0.253 N
ATOM     38  H2  UNL     1       9.949 -18.071  21.157  1.00  0.00     0.195 HD
BRANCH  37  39
HETATM   39  O3  UNL     1      11.079 -16.597  20.745  1.00  0.00    -0.288 OA
ATOM     40  H3  UNL     1      11.998 -16.833  20.698  1.00  0.00     0.244 HD
ENDBRANCH  37  39
ENDBRANCH   2  35
TORSDOF 13
ENDMDL