MODEL 1
REMARK VINA RESULT: -6.573251518      0.000      0.000
REMARK  15 active torsions:
REMARK  status: ('A' for Active; 'I' for Inactive)
REMARK    1  A    between atoms: O1_2  and  C2_3
REMARK    2  A    between atoms: C2_3  and  C3_8
REMARK    3  A    between atoms: N1_4  and  O2_6
REMARK    4  A    between atoms: C4_11  and  C5_12
REMARK    5  A    between atoms: C5_12  and  O3_13
REMARK    6  A    between atoms: O3_13  and  C6_14
REMARK    7  A    between atoms: C6_14  and  N3_15
REMARK    8  A    between atoms: C6_14  and  N7_22
REMARK    9  A    between atoms: N3_15  and  N4_16
REMARK   10  A    between atoms: N4_16  and  N5_17
REMARK   11  A    between atoms: N5_17  and  N6_19
REMARK   12  A    between atoms: N7_22  and  C7_24
REMARK   13  A    between atoms: C8_30  and  C9_31
REMARK   14  A    between atoms: C9_31  and  O5_32
REMARK   15  A    between atoms: C9_31  and  N10_34
REMARK       I    between atoms: N10_34  and  C10_36
REMARK       I    between atoms: C10_36  and  N11_37
REMARK       I    between atoms: C10_36  and  N12_41
ROOT
HETATM    1  C6  UNL     1       5.561  -8.694  25.233  1.00  0.00     0.320 C
ENDROOT
BRANCH   1   2
HETATM    2  O3  UNL     1       6.516  -7.913  25.834  1.00  0.00    -0.304 OA
BRANCH   2   3
HETATM    3  C5  UNL     1       7.258  -7.597  26.844  1.00  0.00     0.239 C
BRANCH   3   4
HETATM    4  C4  UNL     1       6.623  -7.673  28.241  1.00  0.00     0.066 A
HETATM    5  N2  UNL     1       5.351  -7.454  28.444  1.00  0.00    -0.347 N
HETATM    6  C3  UNL     1       4.784  -7.697  29.593  1.00  0.00     0.129 A
ATOM      7  H2  UNL     1       4.784  -7.082  27.682  1.00  0.00     0.166 HD
HETATM    8  S1  UNL     1       6.144  -8.293  30.519  1.00  0.00    -0.051 SA
HETATM    9  C11 UNL     1       7.335  -8.177  29.305  1.00  0.00     0.114 A
HETATM   10  N13 UNL     1       8.725  -8.505  29.366  1.00  0.00    -0.092 NA
BRANCH   6  11
HETATM   11  C2  UNL     1       3.408  -7.831  30.091  1.00  0.00     0.196 C
HETATM   12  N1  UNL     1       2.348  -7.769  29.499  1.00  0.00    -0.245 N
ATOM     13  H1  UNL     1       1.619  -7.893  30.202  1.00  0.00     0.196 HD
BRANCH  11  14
HETATM   14  O1  UNL     1       3.301  -8.057  31.522  1.00  0.00    -0.337 OA
HETATM   15  C1  UNL     1       2.494  -7.132  32.260  1.00  0.00     0.211 C
ENDBRANCH  11  14
BRANCH  12  16
HETATM   16  O2  UNL     1       1.743  -7.616  28.372  1.00  0.00    -0.288 OA
ATOM     17  H2  UNL     1       1.583  -7.953  27.499  1.00  0.00     0.244 HD
ENDBRANCH  12  16
ENDBRANCH   6  11
ENDBRANCH   3   4
ENDBRANCH   2   3
ENDBRANCH   1   2
BRANCH   1  18
HETATM   18  N3  UNL     1       4.459  -8.509  25.623  1.00  0.00    -0.264 NA
BRANCH  18  19
HETATM   19  N4  UNL     1       3.294  -8.564  26.248  1.00  0.00     0.078 NA
BRANCH  19  20
HETATM   20  N5  UNL     1       2.682  -9.754  26.132  1.00  0.00    -0.221 N
ATOM     21  H5  UNL     1       3.071 -10.477  25.528  1.00  0.00     0.206 HD
BRANCH  20  22
HETATM   22  N6  UNL     1       1.548  -9.980  26.823  1.00  0.00    -0.332 N
ATOM     23  H62 UNL     1       0.769  -9.327  26.735  1.00  0.00     0.178 HD
ATOM     24  H61 UNL     1       1.487 -10.802  27.425  1.00  0.00     0.178 HD
ENDBRANCH  20  22
ENDBRANCH  19  20
ENDBRANCH  18  19
ENDBRANCH   1  18
BRANCH   1  25
HETATM   25  N7  UNL     1       6.104  -9.547  24.253  1.00  0.00    -0.291 N
ATOM     26  H7  UNL     1       5.726  -9.356  23.325  1.00  0.00     0.172 HD
BRANCH  25  27
HETATM   27  C7  UNL     1       6.923 -10.467  24.238  1.00  0.00     0.164 A
HETATM   28  N8  UNL     1       7.993 -10.816  25.010  1.00  0.00    -0.223 N
HETATM   29  O4  UNL     1       8.435 -11.944  24.659  1.00  0.00    -0.155 OA
ATOM     30  H8  UNL     1       8.379 -10.247  25.764  1.00  0.00     0.198 HD
HETATM   31  N9  UNL     1       7.761 -12.451  23.682  1.00  0.00    -0.234 N
HETATM   32  C8  UNL     1       6.781 -11.574  23.357  1.00  0.00     0.153 A
ATOM     33  H9  UNL     1       7.935 -13.351  23.234  1.00  0.00     0.197 HD
BRANCH  32  34
HETATM   34  C9  UNL     1       5.820 -11.742  22.274  1.00  0.00     0.172 C
BRANCH  34  35
HETATM   35  O5  UNL     1       4.595 -11.988  22.642  1.00  0.00    -0.344 OA
ATOM     36  H5  UNL     1       3.937 -11.908  21.960  1.00  0.00     0.219 HD
ENDBRANCH  34  35
BRANCH  34  37
HETATM   37  N10 UNL     1       6.240 -11.628  20.978  1.00  0.00    -0.320 N
HETATM   38  C10 UNL     1       7.244 -12.251  20.185  1.00  0.00     0.482 C
HETATM   39  N11 UNL     1       6.961 -12.129  18.753  1.00  0.00    -0.033 N
HETATM   40  N12 UNL     1       8.556 -11.598  20.369  1.00  0.00    -0.033 N
ATOM     41 3H11 UNL     1       6.034 -12.487  18.527  1.00  0.00     0.278 HD
ATOM     42 2H11 UNL     1       6.826 -11.154  18.483  1.00  0.00     0.278 HD
ATOM     43 1H11 UNL     1       7.681 -12.575  18.185  1.00  0.00     0.278 HD
ATOM     44 3H12 UNL     1       8.504 -10.595  20.187  1.00  0.00     0.278 HD
ATOM     45 2H12 UNL     1       8.823 -11.566  21.354  1.00  0.00     0.278 HD
ATOM     46 1H12 UNL     1       9.276 -12.045  19.801  1.00  0.00     0.278 HD
ATOM     47  H10 UNL     1       5.708 -10.932  20.456  1.00  0.00     0.165 HD
ENDBRANCH  34  37
ENDBRANCH  32  34
ENDBRANCH  25  27
ENDBRANCH   1  25
TORSDOF 15
ENDMDL