MODEL 3
REMARK VINA RESULT: -7.108101564      2.295      5.166
REMARK  11 active torsions:
REMARK  status: ('A' for Active; 'I' for Inactive)
REMARK    1  A    between atoms: C2_2  and  N1_3
REMARK    2  A    between atoms: C2_2  and  O1_7
REMARK    3  A    between atoms: C2_2  and  C3_9
REMARK    4  A    between atoms: C3_9  and  O2_10
REMARK    5  A    between atoms: C3_9  and  C4_12
REMARK    6  A    between atoms: C4_12  and  O3_13
REMARK    7  A    between atoms: C4_12  and  N2_15
REMARK    8  A    between atoms: N2_15  and  C5_17
REMARK    9  A    between atoms: C6_23  and  N5_24
REMARK   10  A    between atoms: C7_29  and  C8_30
REMARK   11  A    between atoms: C12_38  and  N11_39
ROOT
HETATM    1  C8  UNL     1       6.228  -0.110  28.720  1.00  0.00     0.059 A
HETATM    2  C9  UNL     1       5.127  -0.081  29.571  1.00  0.00     0.101 A
HETATM    3  C10 UNL     1       5.319  -0.597  30.890  1.00  0.00     0.104 C
HETATM    4  N8  UNL     1       5.492  -1.008  31.974  1.00  0.00    -0.191 NA
HETATM    5  C11 UNL     1       3.904   0.412  29.193  1.00  0.00     0.139 A
HETATM    6  N9  UNL     1       2.791   0.440  30.058  1.00  0.00    -0.081 NA
HETATM    7  N10 UNL     1       3.733   0.897  27.945  1.00  0.00    -0.329 N
ATOM      8  H10 UNL     1       2.830   1.267  27.649  1.00  0.00     0.168 HD
HETATM    9  C12 UNL     1       4.780   0.882  27.101  1.00  0.00     0.122 A
HETATM   10  C13 UNL     1       6.020   0.394  27.450  1.00  0.00     0.103 A
HETATM   11  C14 UNL     1       7.107   0.402  26.504  1.00  0.00     0.104 C
HETATM   12  N12 UNL     1       7.968   0.407  25.732  1.00  0.00    -0.191 NA
ENDROOT
BRANCH   1  13
HETATM   13  C7  UNL     1       7.514  -0.643  29.161  1.00  0.00     0.151 A
HETATM   14  N7  UNL     1       8.042  -1.847  28.924  1.00  0.00    -0.267 N
HETATM   15  N6  UNL     1       9.231  -1.882  29.526  1.00  0.00    -0.218 N
ATOM     16  H7  UNL     1       7.616  -2.599  28.382  1.00  0.00     0.190 HD
HETATM   17  N5  UNL     1       9.475  -0.740  30.139  1.00  0.00    -0.158 N
ATOM     18  H6  UNL     1       9.865  -2.682  29.515  1.00  0.00     0.210 HD
HETATM   19  N13 UNL     1       8.410   0.021  29.909  1.00  0.00    -0.259 N
ATOM     20  H13 UNL     1       8.290   0.974  30.252  1.00  0.00     0.191 HD
BRANCH  17  21
HETATM   21  C6  UNL     1      10.649  -0.407  30.889  1.00  0.00     0.214 A
HETATM   22  C5  UNL     1      11.155  -1.074  31.979  1.00  0.00     0.175 A
HETATM   23  N3  UNL     1      12.257  -0.404  32.347  1.00  0.00    -0.222 N
HETATM   24  O4  UNL     1      12.442   0.604  31.558  1.00  0.00    -0.153 OA
ATOM     25  H3  UNL     1      12.860  -0.652  33.132  1.00  0.00     0.198 HD
HETATM   26  N4  UNL     1      11.497   0.616  30.689  1.00  0.00    -0.219 N
ATOM     27  H4  UNL     1      11.402   1.310  29.947  1.00  0.00     0.198 HD
BRANCH  22  28
HETATM   28  N2  UNL     1      10.606  -2.247  32.595  1.00  0.00    -0.343 N
ATOM     29  H2  UNL     1      10.837  -3.177  32.244  1.00  0.00     0.164 HD
BRANCH  28  30
HETATM   30  C4  UNL     1       9.723  -2.084  33.714  1.00  0.00     0.253 C
BRANCH  30  31
HETATM   31  C3  UNL     1       8.277  -2.266  33.449  1.00  0.00     0.228 C
BRANCH  31  32
HETATM   32  C2  UNL     1       7.593  -3.367  34.208  1.00  0.00     0.248 C
HETATM   33  C1  UNL     1       7.987  -3.542  35.626  1.00  0.00     0.081 C
BRANCH  32  34
HETATM   34  N1  UNL     1       7.705  -4.613  33.479  1.00  0.00    -0.045 N
ATOM     35  H13 UNL     1       8.449  -4.574  32.782  1.00  0.00     0.278 HD
ATOM     36  H12 UNL     1       8.080  -5.358  34.065  1.00  0.00     0.278 HD
ATOM     37  H11 UNL     1       6.812  -4.875  33.062  1.00  0.00     0.278 HD
ENDBRANCH  32  34
BRANCH  32  38
HETATM   38  O1  UNL     1       6.209  -3.042  34.144  1.00  0.00    -0.363 OA
ATOM     39  H1  UNL     1       5.698  -3.839  34.217  1.00  0.00     0.212 HD
ENDBRANCH  32  38
ENDBRANCH  31  32
BRANCH  31  40
HETATM   40  O2  UNL     1       8.134  -2.645  32.077  1.00  0.00    -0.386 OA
ATOM     41  H2  UNL     1       8.832  -3.274  31.935  1.00  0.00     0.210 HD
ENDBRANCH  31  40
ENDBRANCH  30  31
BRANCH  30  42
HETATM   42  O3  UNL     1      10.005  -0.906  34.423  1.00  0.00    -0.374 OA
ATOM     43  H3  UNL     1      10.922  -0.828  34.663  1.00  0.00     0.212 HD
ENDBRANCH  30  42
ENDBRANCH  28  30
ENDBRANCH  22  28
ENDBRANCH  17  21
ENDBRANCH   1  13
BRANCH   9  44
HETATM   44  N11 UNL     1       4.611   1.346  25.912  1.00  0.00    -0.384 N
ATOM     45 2H11 UNL     1       4.310   0.707  25.176  1.00  0.00     0.157 HD
ATOM     46 1H11 UNL     1       4.785   2.337  25.752  1.00  0.00     0.157 HD
ENDBRANCH   9  44
TORSDOF 11
ENDMDL