MODEL 1
REMARK VINA RESULT: -7.389322283      0.000      0.000
REMARK  11 active torsions:
REMARK  status: ('A' for Active; 'I' for Inactive)
REMARK    1  A    between atoms: C4_6  and  N2_7
REMARK    2  A    between atoms: N2_7  and  N3_8
REMARK    3  A    between atoms: N2_7  and  O1_12
REMARK    4  A    between atoms: N3_8  and  N4_9
REMARK    5  A    between atoms: O1_12  and  C5_13
REMARK    6  A    between atoms: N7_19  and  N8_20
REMARK       I    between atoms: N8_20  and  C6_22
REMARK    7  A    between atoms: N10_24  and  C7_26
REMARK    8  A    between atoms: C7_26  and  C8_27
REMARK    9  A    between atoms: C10_29  and  O4_30
REMARK   10  A    between atoms: C11_32  and  O5_33
REMARK   11  A    between atoms: C12_35  and  N11_36
ROOT
HETATM    1  N8  UNL     1       5.981  -7.289  27.811  1.00  0.00    -0.256 N
ATOM      2  H8  UNL     1       5.352  -7.171  28.606  1.00  0.00     0.191 HD
HETATM    3  C6  UNL     1       7.047  -6.367  27.625  1.00  0.00     0.204 C
HETATM    4  N9  UNL     1       8.228  -6.708  26.904  1.00  0.00    -0.062 NA
HETATM    5  N10 UNL     1       6.955  -5.166  28.126  1.00  0.00    -0.358 N
ATOM      6  H10 UNL     1       6.114  -4.912  28.644  1.00  0.00     0.162 HD
ENDROOT
BRANCH   1   7
HETATM    7  N7  UNL     1       5.782  -8.310  26.964  1.00  0.00    -0.185 N
HETATM    8  C2  UNL     1       5.891  -9.633  27.433  1.00  0.00     0.149 C
HETATM    9  C1  UNL     1       4.535 -10.172  27.827  1.00  0.00     0.066 C
HETATM   10  C3  UNL     1       6.808  -9.703  28.632  1.00  0.00     0.066 C
HETATM   11  N1  UNL     1       6.459 -10.492  26.408  1.00  0.00    -0.193 N
HETATM   12  C4  UNL     1       6.482 -10.155  25.162  1.00  0.00     0.734 C
ATOM     13  H1  UNL     1       6.852 -11.392  26.683  1.00  0.00     0.180 HD
HETATM   14  N5  UNL     1       5.929  -8.897  24.798  1.00  0.00    -0.111 N
HETATM   15  N6  UNL     1       5.278  -8.088  25.736  1.00  0.00     0.013 NA
ATOM     16  H5  UNL     1       6.009  -8.578  23.831  1.00  0.00     0.203 HD
BRANCH  12  17
HETATM   17  N2  UNL     1       7.027 -10.968  24.134  1.00  0.00     0.045 N
BRANCH  17  18
HETATM   18  N3  UNL     1       7.952 -11.961  24.483  1.00  0.00     0.016 NA
BRANCH  18  19
HETATM   19  N4  UNL     1       8.648 -12.435  23.363  1.00  0.00    -0.326 N
ATOM     20  H42 UNL     1       8.377 -12.224  22.403  1.00  0.00     0.174 HD
ATOM     21  H41 UNL     1       9.447 -13.009  23.633  1.00  0.00     0.174 HD
ENDBRANCH  18  19
ENDBRANCH  17  18
BRANCH  17  22
HETATM   22  O1  UNL     1       6.711 -10.848  22.811  1.00  0.00    -0.136 OA
BRANCH  22  23
HETATM   23  C5  UNL     1       5.770 -11.696  22.244  1.00  0.00     0.357 C
HETATM   24  O2  UNL     1       6.141 -12.393  21.266  1.00  0.00    -0.622 OA
HETATM   25  O3  UNL     1       4.487 -11.737  22.773  1.00  0.00    -0.622 OA
ENDBRANCH  22  23
ENDBRANCH  17  22
ENDBRANCH  12  17
ENDBRANCH   1   7
BRANCH   5  26
HETATM   26  C7  UNL     1       7.995  -4.186  27.976  1.00  0.00     0.179 C
BRANCH  26  27
HETATM   27  C8  UNL     1       7.376  -2.928  27.482  1.00  0.00     0.031 A
HETATM   28  C9  UNL     1       8.019  -2.073  26.601  1.00  0.00     0.066 A
HETATM   29  C10 UNL     1       7.445  -0.910  26.146  1.00  0.00     0.104 A
HETATM   30  C11 UNL     1       6.179  -0.569  26.575  1.00  0.00     0.149 A
HETATM   31  C12 UNL     1       5.548  -1.417  27.447  1.00  0.00     0.210 A
HETATM   32  N12 UNL     1       6.127  -2.550  27.880  1.00  0.00    -0.337 N
ATOM     33  H12 UNL     1       5.615  -3.148  28.527  1.00  0.00     0.167 HD
BRANCH  29  34
HETATM   34  O4  UNL     1       8.097  -0.052  25.258  1.00  0.00    -0.358 OA
ATOM     35  H4  UNL     1       7.633   0.599  24.746  1.00  0.00     0.217 HD
ENDBRANCH  29  34
BRANCH  30  36
HETATM   36  O5  UNL     1       5.568   0.588  26.143  1.00  0.00    -0.355 OA
ATOM     37  H5  UNL     1       4.817   0.558  25.562  1.00  0.00     0.218 HD
ENDBRANCH  30  36
BRANCH  31  38
HETATM   38  N11 UNL     1       4.240  -1.078  27.900  1.00  0.00    -0.095 N
HETATM   39  O6  UNL     1       3.971  -0.750  29.055  1.00  0.00    -0.530 OA
HETATM   40  O7  UNL     1       3.230  -1.127  26.969  1.00  0.00    -0.530 OA
ENDBRANCH  31  38
ENDBRANCH  26  27
ENDBRANCH   5  26
TORSDOF 11
ENDMDL