MODEL 3
REMARK VINA RESULT: -6.370874855      1.061      1.091
REMARK  11 active torsions:
REMARK  status: ('A' for Active; 'I' for Inactive)
REMARK    1  A    between atoms: O1_2  and  N1_3
REMARK    2  A    between atoms: N1_3  and  C2_4
REMARK    3  A    between atoms: C2_4  and  O2_5
REMARK    4  A    between atoms: C2_4  and  C3_7
REMARK    5  A    between atoms: C4_8  and  N2_9
REMARK    6  A    between atoms: N2_9  and  C5_11
REMARK    7  A    between atoms: C5_11  and  N3_12
REMARK    8  A    between atoms: C5_11  and  O3_16
REMARK    9  A    between atoms: N5_22  and  N6_23
REMARK   10  A    between atoms: C8_26  and  N7_27
REMARK   11  A    between atoms: N10_36  and  O5_37
ROOT
HETATM    1  C3  UNL     1       6.719  -1.415  28.383  1.00  0.00     0.063 A
HETATM    2  C4  UNL     1       5.435  -0.850  28.503  1.00  0.00     0.075 A
HETATM    3  C6  UNL     1       4.909  -0.831  29.774  1.00  0.00     0.143 A
HETATM    4  N4  UNL     1       3.633  -0.247  30.029  1.00  0.00    -0.094 NA
HETATM    5  C7  UNL     1       5.615  -1.348  30.866  1.00  0.00     0.294 A
HETATM    6  O4  UNL     1       5.066  -1.292  31.979  1.00  0.00    -0.264 OA
HETATM    7  N5  UNL     1       6.825  -1.875  30.700  1.00  0.00    -0.208 N
HETATM    8  C8  UNL     1       7.382  -1.913  29.478  1.00  0.00     0.146 A
ENDROOT
BRANCH   8   9
HETATM    9  N7  UNL     1       8.680  -2.475  29.334  1.00  0.00    -0.312 N
HETATM   10  C9  UNL     1       8.903  -3.863  29.058  1.00  0.00     0.152 C
HETATM   11  C10 UNL     1      10.206  -4.347  29.560  1.00  0.00     0.143 C
HETATM   12  N8  UNL     1      11.283  -3.497  29.100  1.00  0.00    -0.379 N
HETATM   13  C11 UNL     1      12.489  -3.958  28.467  1.00  0.00     0.150 C
HETATM   14  C12 UNL     1      11.069  -2.087  29.332  1.00  0.00     0.102 A
HETATM   15  C13 UNL     1       9.792  -1.597  29.445  1.00  0.00     0.155 A
HETATM   16  C14 UNL     1      11.921  -1.016  29.478  1.00  0.00     0.085 A
HETATM   17  N9  UNL     1       9.936  -0.273  29.651  1.00  0.00    -0.257 N
HETATM   18  N10 UNL     1      11.201   0.102  29.675  1.00  0.00    -0.164 N
ATOM     19  H9  UNL     1       9.152   0.369  29.775  1.00  0.00     0.191 HD
HETATM   20  C15 UNL     1      13.408  -1.106  29.419  1.00  0.00     0.075 C
BRANCH  18  21
HETATM   21  O5  UNL     1      11.735   1.354  29.859  1.00  0.00    -0.268 OA
ATOM     22  H5  UNL     1      11.916   2.032  29.219  1.00  0.00     0.247 HD
ENDBRANCH  18  21
ENDBRANCH   8   9
BRANCH   1  23
HETATM   23  C2  UNL     1       7.436  -1.423  27.120  1.00  0.00     0.278 C
BRANCH  23  24
HETATM   24  N1  UNL     1       7.756  -0.110  26.608  1.00  0.00    -0.064 NA
BRANCH  24  25
HETATM   25  O1  UNL     1       7.814   0.828  27.549  1.00  0.00    -0.289 OA
HETATM   26  C1  UNL     1       8.623   1.896  27.231  1.00  0.00     0.231 C
ENDBRANCH  24  25
ENDBRANCH  23  24
BRANCH  23  27
HETATM   27  O2  UNL     1       6.651  -2.118  26.158  1.00  0.00    -0.373 OA
ATOM     28  H2  UNL     1       7.226  -2.485  25.496  1.00  0.00     0.212 HD
ENDBRANCH  23  27
ENDBRANCH   1  23
BRANCH   7  29
HETATM   29  N6  UNL     1       7.540  -2.396  31.779  1.00  0.00    -0.334 N
ATOM     30  H62 UNL     1       8.247  -1.812  32.226  1.00  0.00     0.177 HD
ATOM     31  H61 UNL     1       7.366  -3.341  32.121  1.00  0.00     0.177 HD
ENDBRANCH   7  29
BRANCH   2  32
HETATM   32  N2  UNL     1       4.774  -0.410  27.347  1.00  0.00    -0.340 N
ATOM     33  H2  UNL     1       4.440  -1.155  26.735  1.00  0.00     0.164 HD
BRANCH  32  34
HETATM   34  C5  UNL     1       4.492   0.921  26.886  1.00  0.00     0.424 C
BRANCH  34  35
HETATM   35  N3  UNL     1       5.295   1.297  25.732  1.00  0.00    -0.035 N
ATOM     36  H33 UNL     1       6.279   1.071  25.881  1.00  0.00     0.279 HD
ATOM     37  H32 UNL     1       5.105   0.686  24.938  1.00  0.00     0.279 HD
ATOM     38  H31 UNL     1       5.178   2.278  25.474  1.00  0.00     0.279 HD
ENDBRANCH  34  35
BRANCH  34  39
HETATM   39  O3  UNL     1       4.841   1.869  27.890  1.00  0.00    -0.355 OA
ATOM     40  H3  UNL     1       5.637   2.325  27.643  1.00  0.00     0.213 HD
ENDBRANCH  34  39
ENDBRANCH  32  34
ENDBRANCH   2  32
TORSDOF 11
ENDMDL