MODEL 1
REMARK VINA RESULT: -6.154885027      0.000      0.000
REMARK  3 active torsions:
REMARK  status: ('A' for Active; 'I' for Inactive)
REMARK    1  A    between atoms: N1_1  and  C1_5
REMARK    2  A    between atoms: C1_5  and  C2_6
REMARK    3  A    between atoms: C2_6  and  O1_7
ROOT
HETATM    1  C2  UNL     1     -15.691  -2.541 -30.373  1.00  0.00     0.081 C
HETATM    2  C3  UNL     1     -15.213  -3.863 -30.881  1.00  0.00     0.039 C
HETATM    3  C4  UNL     1     -14.079  -4.451 -30.119  1.00  0.00     0.003 C
HETATM    4  C5  UNL     1     -14.458  -5.650 -29.283  1.00  0.00     0.000 C
HETATM    5  C6  UNL     1     -14.088  -5.462 -27.831  1.00  0.00     0.000 C
HETATM    6  C7  UNL     1     -14.929  -6.382 -26.987  1.00  0.00     0.000 C
HETATM    7  C8  UNL     1     -15.636  -5.617 -25.870  1.00  0.00     0.000 C
HETATM    8  C9  UNL     1     -17.069  -5.321 -26.214  1.00  0.00     0.000 C
HETATM    9  C10 UNL     1     -17.360  -3.829 -26.255  1.00  0.00     0.000 C
HETATM   10  C11 UNL     1     -18.577  -3.611 -27.119  1.00  0.00     0.000 C
HETATM   11  C12 UNL     1     -18.275  -2.597 -28.206  1.00  0.00     0.000 C
HETATM   12  C13 UNL     1     -17.886  -3.365 -29.460  1.00  0.00     0.003 C
HETATM   13  C14 UNL     1     -17.221  -2.537 -30.485  1.00  0.00     0.039 C
ENDROOT
BRANCH   1  14
HETATM   14  C1  UNL     1     -15.259  -1.380 -31.261  1.00  0.00     0.267 C
BRANCH  14  15
HETATM   15  N1  UNL     1     -14.477  -1.767 -32.372  1.00  0.00    -0.076 N
ATOM     16  H13 UNL     1     -14.940  -2.509 -32.895  1.00  0.00     0.274 HD
ATOM     17  H12 UNL     1     -14.474  -1.033 -33.082  1.00  0.00     0.274 HD
ATOM     18  H11 UNL     1     -13.523  -2.037 -32.133  1.00  0.00     0.274 HD
ENDBRANCH  14  15
ENDBRANCH   1  14
BRANCH   1  19
HETATM   19  O1  UNL     1     -15.284  -2.256 -29.090  1.00  0.00    -0.388 OA
ATOM     20  H1  UNL     1     -16.013  -2.441 -28.510  1.00  0.00     0.210 HD
ENDBRANCH   1  19
TORSDOF 3
ENDMDL