MODEL 3
REMARK VINA RESULT: -7.271309071      1.397      5.877
REMARK  2 active torsions:
REMARK  status: ('A' for Active; 'I' for Inactive)
REMARK    1  A    between atoms: C6_6  and  N1_7
REMARK    2  A    between atoms: N1_7  and  N2_9
ROOT
HETATM    1  N1  UNL     1     -15.365  -2.690 -27.723  1.00  0.00    -0.306 N
ATOM      2  H1  UNL     1     -14.731  -1.908 -27.558  1.00  0.00     0.182 HD
ENDROOT
BRANCH   1   3
HETATM    3  C6  UNL     1     -15.044  -4.001 -27.216  1.00  0.00     0.299 C
HETATM    4  C5  UNL     1     -16.185  -4.466 -26.360  1.00  0.00     0.060 C
HETATM    5  C4  UNL     1     -16.246  -5.929 -26.142  1.00  0.00     0.039 C
HETATM    6  C3  UNL     1     -15.349  -6.730 -26.982  1.00  0.00    -0.059 C
HETATM    7  C2  UNL     1     -15.524  -8.032 -27.036  1.00  0.00    -0.027 C
HETATM    8  C14 UNL     1     -14.250  -6.117 -27.775  1.00  0.00     0.268 C
HETATM    9  C1  UNL     1     -16.604  -8.683 -26.264  1.00  0.00     0.036 C
HETATM   10  N3  UNL     1     -14.785  -4.882 -28.335  1.00  0.00    -0.050 N
ATOM     11  H32 UNL     1     -15.601  -5.028 -28.930  1.00  0.00     0.280 HD
ATOM     12  H31 UNL     1     -14.183  -4.467 -29.045  1.00  0.00     0.280 HD
ENDBRANCH   1   3
BRANCH   1  13
HETATM   13  N2  UNL     1     -16.536  -2.495 -28.435  1.00  0.00    -0.311 N
HETATM   14  C7  UNL     1     -16.504  -2.384 -29.702  1.00  0.00     0.004 C
HETATM   15  C8  UNL     1     -17.728  -2.173 -30.534  1.00  0.00     0.054 C
HETATM   16  C13 UNL     1     -15.215  -2.461 -30.422  1.00  0.00     0.058 C
HETATM   17  C9  UNL     1     -17.479  -2.951 -31.831  1.00  0.00     0.006 C
HETATM   18  C10 UNL     1     -16.406  -2.182 -32.583  1.00  0.00     0.005 C
HETATM   19  C11 UNL     1     -15.357  -1.617 -31.681  1.00  0.00    -0.013 C
HETATM   20  C12 UNL     1     -13.996  -1.529 -32.319  1.00  0.00     0.010 C
ATOM     21  H2  UNL     1     -17.428  -2.440 -27.942  1.00  0.00     0.186 HD
ENDBRANCH   1  13
TORSDOF 2
ENDMDL