MODEL 2
REMARK VINA RESULT: -7.160315404      0.830      1.416
REMARK  5 active torsions:
REMARK  status: ('A' for Active; 'I' for Inactive)
REMARK    1  A    between atoms: C2_2  and  S1_4
REMARK    2  A    between atoms: S1_4  and  C4_5
REMARK    3  A    between atoms: C4_5  and  N2_9
REMARK    4  A    between atoms: N2_9  and  C5_11
REMARK    5  A    between atoms: C5_11  and  C6_12
ROOT
HETATM    1  N2  UNL     1     -17.578  -4.090 -27.173  1.00  0.00    -0.370 N
ATOM      2  H2  UNL     1     -18.343  -4.761 -27.116  1.00  0.00     0.161 HD
ENDROOT
BRANCH   1   3
HETATM    3  C4  UNL     1     -16.434  -4.170 -26.294  1.00  0.00     0.138 C
HETATM    4  N1  UNL     1     -15.853  -3.072 -26.076  1.00  0.00    -0.380 N
ATOM      5  H12 UNL     1     -15.046  -3.129 -25.455  1.00  0.00     0.158 HD
ATOM      6  H11 UNL     1     -16.167  -2.166 -26.422  1.00  0.00     0.158 HD
BRANCH   3   7
HETATM    7  S1  UNL     1     -15.900  -5.709 -25.705  1.00  0.00    -0.061 SA
BRANCH   7   8
HETATM    8  C2  UNL     1     -15.111  -6.735 -26.887  1.00  0.00    -0.027 C
HETATM    9  C1  UNL     1     -15.097  -8.041 -26.916  1.00  0.00     0.026 C
HETATM   10  C3  UNL     1     -14.409  -6.006 -28.030  1.00  0.00     0.055 C
ENDBRANCH   7   8
ENDBRANCH   3   7
ENDBRANCH   1   3
BRANCH   1  11
HETATM   11  C5  UNL     1     -17.588  -3.025 -28.127  1.00  0.00     0.126 C
BRANCH  11  12
HETATM   12  C6  UNL     1     -17.141  -3.420 -29.511  1.00  0.00     0.003 C
HETATM   13  C7  UNL     1     -15.672  -3.304 -29.700  1.00  0.00     0.006 C
HETATM   14  C8  UNL     1     -15.168  -1.977 -30.150  1.00  0.00     0.000 C
HETATM   15  C9  UNL     1     -15.234  -1.753 -31.643  1.00  0.00     0.000 C
HETATM   16  C10 UNL     1     -16.639  -1.506 -32.147  1.00  0.00     0.000 C
HETATM   17  C11 UNL     1     -17.460  -2.762 -31.874  1.00  0.00     0.000 C
HETATM   18  C12 UNL     1     -17.982  -2.642 -30.486  1.00  0.00     0.006 C
ENDBRANCH  11  12
ENDBRANCH   1  11
TORSDOF 5
ENDMDL