MODEL 3
REMARK VINA RESULT: -7.402207544      0.567      1.031
REMARK  2 active torsions:
REMARK  status: ('A' for Active; 'I' for Inactive)
REMARK    1  A    between atoms: C2_2  and  N1_4
REMARK    2  A    between atoms: N1_4  and  C4_7
ROOT
HETATM    1  C4  UNL     1     -16.272  -3.199 -29.622  1.00  0.00     0.191 C
HETATM    2  C5  UNL     1     -15.165  -4.095 -29.298  1.00  0.00     0.034 C
HETATM    3  C6  UNL     1     -15.391  -5.215 -28.364  1.00  0.00     0.011 C
HETATM    4  C7  UNL     1     -15.899  -4.868 -27.000  1.00  0.00    -0.043 C
HETATM    5  C8  UNL     1     -14.729  -4.395 -26.144  1.00  0.00     0.015 C
HETATM    6  C9  UNL     1     -16.276  -6.244 -26.411  1.00  0.00     0.015 C
HETATM    7  C10 UNL     1     -17.101  -4.062 -26.914  1.00  0.00     0.002 C
HETATM    8  C11 UNL     1     -17.985  -4.315 -28.141  1.00  0.00     0.013 C
HETATM    9  C12 UNL     1     -17.395  -3.046 -28.696  1.00  0.00     0.025 C
HETATM   10  C13 UNL     1     -17.109  -2.649 -27.294  1.00  0.00    -0.038 C
HETATM   11  C14 UNL     1     -18.397  -1.988 -26.747  1.00  0.00     0.015 C
HETATM   12  C15 UNL     1     -16.002  -1.737 -27.001  1.00  0.00     0.015 C
ENDROOT
BRANCH   1  13
HETATM   13  N1  UNL     1     -15.726  -1.845 -29.835  1.00  0.00    -0.067 N
ATOM     14  H12 UNL     1     -14.774  -1.748 -29.481  1.00  0.00     0.278 HD
ATOM     15  H11 UNL     1     -16.170  -1.147 -29.239  1.00  0.00     0.278 HD
BRANCH  13  16
HETATM   16  C2  UNL     1     -15.831  -1.524 -31.235  1.00  0.00     0.178 C
HETATM   17  C1  UNL     1     -14.603  -1.812 -32.036  1.00  0.00     0.039 C
HETATM   18  C3  UNL     1     -17.056  -2.207 -31.850  1.00  0.00     0.039 C
ENDBRANCH  13  16
ENDBRANCH   1  13
TORSDOF 2
ENDMDL