MODEL 2
REMARK VINA RESULT: -7.497547092      2.019      4.269
REMARK  2 active torsions:
REMARK  status: ('A' for Active; 'I' for Inactive)
REMARK    1  A    between atoms: N1_2  and  C2_4
REMARK    2  A    between atoms: C5_7  and  C6_8
ROOT
HETATM    1  C2  UNL     1     -15.792  -2.741 -29.765  1.00  0.00     0.076 C
HETATM    2  C3  UNL     1     -17.140  -2.286 -29.303  1.00  0.00     0.025 C
HETATM    3  C4  UNL     1     -17.881  -3.319 -28.496  1.00  0.00     0.013 C
HETATM    4  C5  UNL     1     -17.115  -3.914 -27.372  1.00  0.00    -0.024 C
HETATM    5  C8  UNL     1     -17.926  -5.145 -26.915  1.00  0.00     0.011 C
HETATM    6  C9  UNL     1     -17.211  -5.949 -25.895  1.00  0.00     0.001 C
HETATM    7  C10 UNL     1     -15.767  -6.198 -26.120  1.00  0.00     0.000 C
HETATM    8  C11 UNL     1     -15.048  -5.079 -26.834  1.00  0.00     0.005 C
HETATM    9  C12 UNL     1     -15.852  -4.474 -27.933  1.00  0.00    -0.003 C
HETATM   10  C13 UNL     1     -15.038  -3.563 -28.785  1.00  0.00     0.030 C
ENDROOT
BRANCH   1  11
HETATM   11  N1  UNL     1     -15.822  -3.411 -31.047  1.00  0.00    -0.421 N
HETATM   12  C1  UNL     1     -16.057  -2.567 -32.162  1.00  0.00     0.140 C
ATOM     13  H1  UNL     1     -15.685  -4.418 -31.143  1.00  0.00     0.153 HD
ENDBRANCH   1  11
BRANCH   4  14
HETATM   14  C6  UNL     1     -16.961  -3.069 -26.160  1.00  0.00     0.063 C
HETATM   15  C7  UNL     1     -18.151  -2.173 -25.972  1.00  0.00     0.023 C
HETATM   16  S1  UNL     1     -15.412  -2.189 -26.005  1.00  0.00    -0.092 SA
ENDBRANCH   4  14
TORSDOF 2
ENDMDL