MODEL 2
REMARK VINA RESULT: -8.086023280      0.669      1.775
REMARK  4 active torsions:
REMARK  status: ('A' for Active; 'I' for Inactive)
REMARK    1  A    between atoms: N1_1  and  C1_5
REMARK    2  A    between atoms: C4_8  and  O1_9
REMARK    3  A    between atoms: C4_8  and  C5_11
REMARK    4  A    between atoms: C5_11  and  C6_12
ROOT
HETATM    1  C1  UNL     1     -16.983  -6.363 -25.742  1.00  0.00     0.186 C
HETATM    2  C2  UNL     1     -15.632  -5.764 -25.981  1.00  0.00     0.036 C
HETATM    3  C3  UNL     1     -15.829  -4.523 -26.837  1.00  0.00     0.040 C
HETATM    4  C4  UNL     1     -17.279  -4.289 -26.954  1.00  0.00     0.060 C
HETATM    5  C14 UNL     1     -17.849  -5.714 -26.759  1.00  0.00     0.070 C
ENDROOT
BRANCH   4   6
HETATM    6  O1  UNL     1     -17.743  -3.589 -25.821  1.00  0.00    -0.390 OA
ATOM      7  H1  UNL     1     -18.234  -4.176 -25.259  1.00  0.00     0.210 HD
ENDBRANCH   4   6
BRANCH   4   8
HETATM    8  C5  UNL     1     -17.857  -3.792 -28.204  1.00  0.00     0.042 C
BRANCH   8   9
HETATM    9  C6  UNL     1     -17.187  -2.729 -29.006  1.00  0.00    -0.012 C
HETATM   10  C7  UNL     1     -15.753  -2.579 -28.647  1.00  0.00     0.005 C
HETATM   11  C8  UNL     1     -14.961  -1.649 -29.551  1.00  0.00     0.000 C
HETATM   12  C9  UNL     1     -14.398  -2.321 -30.773  1.00  0.00     0.000 C
HETATM   13  C10 UNL     1     -14.992  -1.678 -32.032  1.00  0.00     0.000 C
HETATM   14  C11 UNL     1     -16.286  -2.291 -32.440  1.00  0.00     0.000 C
HETATM   15  C12 UNL     1     -17.415  -2.040 -31.439  1.00  0.00     0.000 C
HETATM   16  C13 UNL     1     -17.396  -3.166 -30.471  1.00  0.00     0.005 C
ENDBRANCH   8   9
ENDBRANCH   4   8
BRANCH   1  17
HETATM   17  N1  UNL     1     -16.916  -7.796 -26.006  1.00  0.00    -0.075 N
ATOM     18  H13 UNL     1     -16.784  -8.343 -25.156  1.00  0.00     0.274 HD
ATOM     19  H12 UNL     1     -17.818  -8.184 -26.285  1.00  0.00     0.274 HD
ATOM     20  H11 UNL     1     -16.187  -7.969 -26.698  1.00  0.00     0.274 HD
ENDBRANCH   1  17
TORSDOF 4
ENDMDL