MODEL 5
REMARK VINA RESULT: -7.698189820      1.861      3.539
REMARK  5 active torsions:
REMARK  status: ('A' for Active; 'I' for Inactive)
REMARK    1  A    between atoms: C2_2  and  C3_3
REMARK    2  A    between atoms: C2_2  and  C15_15
REMARK    3  A    between atoms: C3_3  and  C4_4
REMARK    4  A    between atoms: C4_4  and  C6_6
REMARK    5  A    between atoms: C15_15  and  O1_16
ROOT
HETATM    1  C6  UNL     1     -16.705  -2.597 -28.222  1.00  0.00    -0.066 C
HETATM    2  C7  UNL     1     -15.368  -1.860 -28.268  1.00  0.00     0.036 C
HETATM    3  C8  UNL     1     -14.765  -1.769 -29.612  1.00  0.00     0.009 C
HETATM    4  C9  UNL     1     -15.049  -2.860 -30.579  1.00  0.00    -0.013 C
HETATM    5  C10 UNL     1     -16.101  -2.289 -31.555  1.00  0.00     0.005 C
HETATM    6  C11 UNL     1     -17.188  -1.982 -30.522  1.00  0.00     0.014 C
HETATM    7  C12 UNL     1     -17.111  -3.119 -29.510  1.00  0.00    -0.020 C
HETATM    8  C13 UNL     1     -18.257  -4.045 -29.626  1.00  0.00     0.020 C
HETATM    9  C14 UNL     1     -15.884  -3.976 -29.967  1.00  0.00     0.018 C
ENDROOT
BRANCH   1  10
HETATM   10  C4  UNL     1     -17.254  -2.671 -27.045  1.00  0.00    -0.058 C
HETATM   11  C5  UNL     1     -17.696  -1.533 -26.240  1.00  0.00     0.048 C
BRANCH  10  12
HETATM   12  C3  UNL     1     -17.482  -4.033 -26.402  1.00  0.00     0.015 C
BRANCH  12  13
HETATM   13  C2  UNL     1     -16.475  -4.876 -26.407  1.00  0.00    -0.044 C
HETATM   14  C1  UNL     1     -15.462  -5.725 -26.413  1.00  0.00     0.021 C
BRANCH  13  15
HETATM   15  C15 UNL     1     -17.690  -6.280 -26.214  1.00  0.00     0.201 C
BRANCH  15  16
HETATM   16  O1  UNL     1     -17.575  -6.373 -24.869  1.00  0.00    -0.396 OA
ATOM     17  H1  UNL     1     -16.872  -7.011 -24.878  1.00  0.00     0.209 HD
ENDBRANCH  15  16
ENDBRANCH  13  15
ENDBRANCH  12  13
ENDBRANCH  10  12
ENDBRANCH   1  10
TORSDOF 5
ENDMDL