MODEL 4
REMARK VINA RESULT: -7.215124148      2.151      4.082
REMARK  3 active torsions:
REMARK  status: ('A' for Active; 'I' for Inactive)
REMARK    1  A    between atoms: C2_2  and  C3_3
REMARK    2  A    between atoms: C3_3  and  C4_4
REMARK    3  A    between atoms: C9_9  and  N1_10
ROOT
HETATM    1  C4  UNL     1     -16.729  -3.604 -27.111  1.00  0.00    -0.033 C
HETATM    2  C5  UNL     1     -17.884  -2.652 -27.220  1.00  0.00     0.011 C
HETATM    3  C6  UNL     1     -17.037  -1.635 -26.494  1.00  0.00     0.006 C
HETATM    4  C7  UNL     1     -15.855  -2.347 -27.176  1.00  0.00    -0.003 C
HETATM    5  C8  UNL     1     -15.589  -1.787 -28.489  1.00  0.00     0.044 C
HETATM    6  C9  UNL     1     -15.911  -2.539 -29.711  1.00  0.00     0.124 C
HETATM    7  C10 UNL     1     -14.588  -2.996 -30.353  1.00  0.00     0.039 C
HETATM    8  C11 UNL     1     -14.284  -4.323 -29.778  1.00  0.00     0.007 C
HETATM    9  C12 UNL     1     -14.794  -4.594 -28.393  1.00  0.00    -0.014 C
HETATM   10  C13 UNL     1     -14.424  -6.062 -28.131  1.00  0.00     0.010 C
HETATM   11  C14 UNL     1     -16.319  -4.423 -28.273  1.00  0.00     0.000 C
HETATM   12  C15 UNL     1     -16.729  -3.763 -29.577  1.00  0.00     0.044 C
ENDROOT
BRANCH   6  13
HETATM   13  N1  UNL     1     -16.556  -1.698 -30.736  1.00  0.00    -0.070 N
ATOM     14  H13 UNL     1     -16.900  -2.262 -31.513  1.00  0.00     0.275 HD
ATOM     15  H12 UNL     1     -17.445  -1.325 -30.400  1.00  0.00     0.275 HD
ATOM     16  H11 UNL     1     -15.947  -0.950 -31.066  1.00  0.00     0.275 HD
ENDBRANCH   6  13
BRANCH   1  17
HETATM   17  C3  UNL     1     -16.620  -4.298 -25.812  1.00  0.00     0.010 C
BRANCH  17  18
HETATM   18  C2  UNL     1     -16.833  -5.742 -25.699  1.00  0.00    -0.004 C
HETATM   19  C1  UNL     1     -18.207  -6.218 -26.086  1.00  0.00     0.005 C
ENDBRANCH  17  18
ENDBRANCH   1  17
TORSDOF 3
ENDMDL