MODEL 1
REMARK VINA RESULT: -7.039332703      0.000      0.000
REMARK  3 active torsions:
REMARK  status: ('A' for Active; 'I' for Inactive)
REMARK    1  A    between atoms: C4_7  and  N2_8
REMARK    2  A    between atoms: N2_8  and  C5_10
REMARK    3  A    between atoms: C5_10  and  C6_11
ROOT
HETATM    1  S1  UNL     1     -15.092  -1.848 -32.021  1.00  0.00    -0.040 SA
HETATM    2  C1  UNL     1     -16.210  -2.471 -30.985  1.00  0.00     0.177 A
HETATM    3  N1  UNL     1     -17.431  -2.808 -31.441  1.00  0.00    -0.343 N
ATOM      4  H1  UNL     1     -17.664  -2.679 -32.425  1.00  0.00     0.167 HD
HETATM    5  C2  UNL     1     -18.329  -3.309 -30.602  1.00  0.00     0.094 A
HETATM    6  C3  UNL     1     -17.974  -3.469 -29.274  1.00  0.00     0.065 A
HETATM    7  C4  UNL     1     -16.730  -3.128 -28.802  1.00  0.00     0.104 A
HETATM    8  N3  UNL     1     -15.854  -2.623 -29.695  1.00  0.00    -0.319 N
ATOM      9  H3  UNL     1     -14.917  -2.355 -29.391  1.00  0.00     0.169 HD
ENDROOT
BRANCH   7  10
HETATM   10  N2  UNL     1     -16.338  -3.250 -27.588  1.00  0.00    -0.376 N
ATOM     11  H2  UNL     1     -17.004  -3.047 -26.843  1.00  0.00     0.161 HD
BRANCH  10  12
HETATM   12  C5  UNL     1     -15.020  -3.656 -27.223  1.00  0.00     0.126 C
BRANCH  12  13
HETATM   13  C6  UNL     1     -15.110  -5.017 -26.515  1.00  0.00     0.003 C
HETATM   14  C7  UNL     1     -16.367  -5.148 -25.715  1.00  0.00     0.006 C
HETATM   15  C8  UNL     1     -17.276  -6.244 -26.143  1.00  0.00     0.000 C
HETATM   16  C9  UNL     1     -16.636  -7.515 -26.538  1.00  0.00     0.000 C
HETATM   17  C10 UNL     1     -15.147  -7.424 -26.754  1.00  0.00     0.000 C
HETATM   18  C11 UNL     1     -14.899  -6.118 -27.509  1.00  0.00     0.006 C
ENDBRANCH  12  13
ENDBRANCH  10  12
ENDBRANCH   7  10
TORSDOF 3
ENDMDL