MODEL 4
REMARK VINA RESULT: -7.667891192      1.724      4.380
REMARK  2 active torsions:
REMARK  status: ('A' for Active; 'I' for Inactive)
REMARK    1  A    between atoms: C2_2  and  N1_4
REMARK    2  A    between atoms: N1_4  and  C4_6
ROOT
HETATM    1  C4  UNL     1     -15.904  -4.198 -26.728  1.00  0.00     0.027 C
HETATM    2  C5  UNL     1     -17.158  -4.548 -27.486  1.00  0.00     0.035 C
HETATM    3  C6  UNL     1     -17.987  -3.379 -27.898  1.00  0.00    -0.012 C
HETATM    4  C7  UNL     1     -18.075  -2.295 -26.846  1.00  0.00     0.009 C
HETATM    5  C8  UNL     1     -16.739  -1.937 -26.262  1.00  0.00    -0.012 C
HETATM    6  C9  UNL     1     -15.896  -1.351 -27.348  1.00  0.00     0.010 C
HETATM    7  C10 UNL     1     -15.363  -2.359 -28.328  1.00  0.00    -0.008 C
HETATM    8  C11 UNL     1     -14.917  -3.642 -27.706  1.00  0.00     0.035 C
HETATM    9  C12 UNL     1     -16.252  -2.509 -29.524  1.00  0.00    -0.014 C
HETATM   10  C13 UNL     1     -15.566  -3.405 -30.547  1.00  0.00     0.010 C
HETATM   11  C14 UNL     1     -17.661  -2.864 -29.263  1.00  0.00     0.009 C
HETATM   12  C15 UNL     1     -16.126  -3.163 -25.657  1.00  0.00     0.035 C
ENDROOT
BRANCH   1  13
HETATM   13  N1  UNL     1     -15.499  -5.405 -26.089  1.00  0.00    -0.409 N
ATOM     14  H1  UNL     1     -14.895  -5.390 -25.268  1.00  0.00     0.154 HD
BRANCH  13  15
HETATM   15  C2  UNL     1     -15.963  -6.625 -26.632  1.00  0.00     0.069 C
HETATM   16  C1  UNL     1     -14.857  -7.664 -26.470  1.00  0.00     0.031 C
HETATM   17  C3  UNL     1     -17.121  -7.112 -25.764  1.00  0.00     0.031 C
ENDBRANCH  13  15
ENDBRANCH   1  13
TORSDOF 2
ENDMDL