MODEL 2
REMARK VINA RESULT: -6.431312920      4.740      6.902
REMARK  12 active torsions:
REMARK  status: ('A' for Active; 'I' for Inactive)
REMARK    1  A    between atoms: C2_2  and  S1_3
REMARK    2  A    between atoms: S1_3  and  C3_4
REMARK    3  A    between atoms: C4_5  and  C5_6
REMARK    4  A    between atoms: C5_6  and  O2_8
REMARK    5  A    between atoms: N3_14  and  C7_15
REMARK    6  A    between atoms: C8_20  and  N6_21
REMARK       I    between atoms: N6_21  and  C9_23
REMARK    7  A    between atoms: C9_23  and  C10_25
REMARK    8  A    between atoms: C10_25  and  N7_26
REMARK    9  A    between atoms: C11_28  and  O4_29
REMARK   10  A    between atoms: C11_28  and  C12_31
REMARK   11  A    between atoms: C14_37  and  N9_38
REMARK   12  A    between atoms: C16_43  and  N11_44
ROOT
HETATM    1  C7  UNL     1      28.560  22.541   9.950  1.00  0.00     0.189 A
HETATM    2  N4  UNL     1      27.318  22.169   9.596  1.00  0.00    -0.267 N
ATOM      3  H4  UNL     1      26.865  22.655   8.822  1.00  0.00     0.189 HD
HETATM    4  N5  UNL     1      26.662  21.207  10.204  1.00  0.00    -0.130 N
ATOM      5  H5  UNL     1      25.722  20.979   9.880  1.00  0.00     0.205 HD
HETATM    6  C8  UNL     1      27.186  20.490  11.260  1.00  0.00     0.701 A
HETATM    7  N10 UNL     1      28.425  20.848  11.625  1.00  0.00    -0.172 N
ATOM      8  H10 UNL     1      28.870  20.356  12.399  1.00  0.00     0.186 HD
HETATM    9  C16 UNL     1      29.115  21.848  10.999  1.00  0.00     0.162 A
ENDROOT
BRANCH   6  10
HETATM   10  N6  UNL     1      26.504  19.588  11.798  1.00  0.00    -0.153 N
HETATM   11  C9  UNL     1      25.601  18.626  11.490  1.00  0.00     0.275 C
HETATM   12  O3  UNL     1      24.626  18.470  12.336  1.00  0.00    -0.266 OA
ATOM     13  H6  UNL     1      26.690  19.572  12.801  1.00  0.00     0.187 HD
BRANCH  11  14
HETATM   14  C10 UNL     1      25.571  17.720  10.320  1.00  0.00     0.165 C
BRANCH  14  15
HETATM   15  N7  UNL     1      26.711  16.951  10.184  1.00  0.00    -0.340 N
HETATM   16  C11 UNL     1      26.878  15.599  10.150  1.00  0.00     0.170 C
ATOM     17  H7  UNL     1      27.575  17.487  10.093  1.00  0.00     0.167 HD
BRANCH  16  18
HETATM   18  O4  UNL     1      28.116  15.159   9.749  1.00  0.00    -0.344 OA
ATOM     19  H4  UNL     1      28.118  14.482   9.083  1.00  0.00     0.219 HD
ENDBRANCH  16  18
BRANCH  16  20
HETATM   20  C12 UNL     1      25.750  14.705   9.726  1.00  0.00     0.120 A
HETATM   21  N8  UNL     1      25.483  14.479   8.462  1.00  0.00    -0.311 N
HETATM   22  C13 UNL     1      24.427  13.752   8.132  1.00  0.00     0.290 A
ATOM     23  H8  UNL     1      26.088  14.861   7.735  1.00  0.00     0.170 HD
HETATM   24  O5  UNL     1      24.040  13.449   6.943  1.00  0.00    -0.260 OA
HETATM   25  S2  UNL     1      23.751  13.349   9.628  1.00  0.00    -0.009 SA
HETATM   26  C14 UNL     1      24.892  14.159  10.657  1.00  0.00     0.106 A
BRANCH  26  27
HETATM   27  N9  UNL     1      24.880  14.174  12.079  1.00  0.00    -0.387 N
HETATM   28  C15 UNL     1      25.040  12.910  12.773  1.00  0.00     0.147 C
ATOM     29  H9  UNL     1      24.764  15.046  12.595  1.00  0.00     0.159 HD
ENDBRANCH  26  27
ENDBRANCH  16  20
ENDBRANCH  14  15
ENDBRANCH  11  14
ENDBRANCH   6  10
BRANCH   9  30
HETATM   30  N11 UNL     1      30.302  22.167  11.372  1.00  0.00    -0.382 N
ATOM     31 2H11 UNL     1      31.121  21.764  10.917  1.00  0.00     0.157 HD
ATOM     32 1H11 UNL     1      30.400  22.837  12.134  1.00  0.00     0.157 HD
ENDBRANCH   9  30
BRANCH   1  33
HETATM   33  N3  UNL     1      29.242  23.596   9.282  1.00  0.00    -0.212 N
HETATM   34  C3  UNL     1      29.960  23.437   8.129  1.00  0.00     0.131 A
HETATM   35  C4  UNL     1      30.482  24.645   7.739  1.00  0.00     0.160 A
HETATM   36  N1  UNL     1      30.052  25.521   8.695  1.00  0.00    -0.278 N
HETATM   37  N2  UNL     1      29.329  24.881   9.584  1.00  0.00    -0.233 N
ATOM     38  H1  UNL     1      30.260  26.519   8.715  1.00  0.00     0.189 HD
ATOM     39  H2  UNL     1      28.894  25.315  10.398  1.00  0.00     0.209 HD
BRANCH  34  40
HETATM   40  S1  UNL     1      30.182  21.853   7.346  1.00  0.00    -0.108 SA
BRANCH  40  41
HETATM   41  C2  UNL     1      31.905  21.309   7.378  1.00  0.00     0.076 C
HETATM   42  C1  UNL     1      32.677  21.736   8.573  1.00  0.00     0.016 C
ENDBRANCH  40  41
ENDBRANCH  34  40
BRANCH  35  43
HETATM   43  C5  UNL     1      31.272  24.951   6.562  1.00  0.00     0.314 C
HETATM   44  O1  UNL     1      32.485  24.654   6.470  1.00  0.00    -0.257 OA
BRANCH  43  45
HETATM   45  O2  UNL     1      30.722  25.597   5.459  1.00  0.00    -0.321 OA
HETATM   46  C6  UNL     1      30.522  27.020   5.470  1.00  0.00     0.213 C
ENDBRANCH  43  45
ENDBRANCH  35  43
ENDBRANCH   1  33
TORSDOF 12
ENDMDL