MODEL 1
REMARK VINA RESULT: -8.141265264      0.000      0.000
REMARK  10 active torsions:
REMARK  status: ('A' for Active; 'I' for Inactive)
REMARK    1  A    between atoms: C2_2  and  O1_3
REMARK    2  A    between atoms: O1_3  and  C3_4
REMARK    3  A    between atoms: C3_4  and  C4_6
REMARK    4  A    between atoms: C5_7  and  S1_8
REMARK    5  A    between atoms: S1_8  and  C6_9
REMARK    6  A    between atoms: C6_9  and  C7_10
REMARK       I    between atoms: C7_10  and  N1_12
REMARK       I    between atoms: N1_12  and  C8_13
REMARK    7  A    between atoms: C11_24  and  N6_25
REMARK    8  A    between atoms: C12_30  and  N8_31
REMARK    9  A    between atoms: C13_36  and  C14_37
REMARK   10  A    between atoms: C14_37  and  C15_39
ROOT
HETATM    1  C4  UNL     1      25.398  14.558  10.790  1.00  0.00     0.115 C
HETATM    2  C5  UNL     1      24.894  15.720  11.144  1.00  0.00     0.094 C
HETATM    3  N4  UNL     1      24.309  16.035  12.385  1.00  0.00    -0.344 N
ATOM      4  H4  UNL     1      23.964  16.987  12.507  1.00  0.00     0.167 HD
HETATM    5  C9  UNL     1      24.154  15.142  13.487  1.00  0.00     0.115 A
HETATM    6  C10 UNL     1      24.603  13.826  13.415  1.00  0.00     0.122 A
HETATM    7  N5  UNL     1      24.415  12.979  14.402  1.00  0.00    -0.183 N
ATOM      8  H5  UNL     1      24.764  12.026  14.302  1.00  0.00     0.185 HD
HETATM    9  C11 UNL     1      23.795  13.310  15.513  1.00  0.00     0.678 A
HETATM   10  N7  UNL     1      23.347  14.579  15.609  1.00  0.00    -0.173 N
ATOM     11  H7  UNL     1      22.861  14.852  16.464  1.00  0.00     0.186 HD
HETATM   12  C12 UNL     1      23.502  15.522  14.630  1.00  0.00     0.175 A
HETATM   13  S2  UNL     1      25.467  13.247  11.978  1.00  0.00    -0.061 SA
ENDROOT
BRANCH  12  14
HETATM   14  N8  UNL     1      22.979  16.842  14.839  1.00  0.00    -0.206 N
HETATM   15  N9  UNL     1      23.480  18.005  14.482  1.00  0.00    -0.232 N
HETATM   16  N10 UNL     1      22.744  19.026  14.806  1.00  0.00    -0.279 N
ATOM     17  H9  UNL     1      24.370  18.097  13.993  1.00  0.00     0.209 HD
HETATM   18  C13 UNL     1      21.657  18.554  15.426  1.00  0.00     0.138 A
ATOM     19  H10 UNL     1      22.956  20.006  14.621  1.00  0.00     0.189 HD
HETATM   20  C17 UNL     1      21.811  17.165  15.445  1.00  0.00     0.173 A
HETATM   21  N11 UNL     1      20.873  16.310  16.019  1.00  0.00    -0.078 NA
BRANCH  18  22
HETATM   22  C14 UNL     1      20.510  19.311  15.926  1.00  0.00     0.180 C
HETATM   23  O4  UNL     1      19.501  19.451  15.253  1.00  0.00    -0.291 OA
BRANCH  22  24
HETATM   24  C15 UNL     1      20.566  19.921  17.291  1.00  0.00     0.081 C
HETATM   25  C16 UNL     1      20.919  21.370  17.267  1.00  0.00     0.013 C
ENDBRANCH  22  24
ENDBRANCH  18  22
ENDBRANCH  12  14
BRANCH   9  26
HETATM   26  N6  UNL     1      23.587  12.506  16.494  1.00  0.00    -0.234 N
ATOM     27  H62 UNL     1      24.140  11.651  16.553  1.00  0.00     0.174 HD
ATOM     28  H61 UNL     1      22.903  12.666  17.234  1.00  0.00     0.174 HD
ENDBRANCH   9  26
BRANCH   2  29
HETATM   29  S1  UNL     1      24.898  16.961   9.826  1.00  0.00    -0.100 SA
BRANCH  29  30
HETATM   30  C6  UNL     1      25.156  18.587  10.566  1.00  0.00     0.200 C
BRANCH  30  31
HETATM   31  C7  UNL     1      26.653  18.666  10.943  1.00  0.00     0.304 C
HETATM   32  O3  UNL     1      26.989  17.694  11.675  1.00  0.00    -0.256 OA
HETATM   33  N1  UNL     1      27.383  19.700  10.477  1.00  0.00    -0.337 NA
HETATM   34  C8  UNL     1      28.143  20.748  10.011  1.00  0.00     0.264 C
HETATM   35  N2  UNL     1      27.585  21.623   9.312  1.00  0.00    -0.362 N
HETATM   36  N3  UNL     1      29.544  20.982  10.282  1.00  0.00    -0.049 NA
ATOM     37  H22 UNL     1      26.596  21.458   9.120  1.00  0.00     0.159 HD
ATOM     38  H21 UNL     1      28.148  22.400   8.966  1.00  0.00     0.159 HD
ENDBRANCH  30  31
ENDBRANCH  29  30
ENDBRANCH   2  29
BRANCH   1  39
HETATM   39  C3  UNL     1      25.909  14.318   9.448  1.00  0.00     0.303 C
HETATM   40  O2  UNL     1      25.163  13.778   8.564  1.00  0.00    -0.259 OA
BRANCH  39  41
HETATM   41  O1  UNL     1      27.183  14.652   9.121  1.00  0.00    -0.317 OA
BRANCH  41  42
HETATM   42  C2  UNL     1      28.345  13.959   9.455  1.00  0.00     0.174 C
HETATM   43  C1  UNL     1      28.621  12.837   8.500  1.00  0.00     0.034 C
ENDBRANCH  41  42
ENDBRANCH  39  41
ENDBRANCH   1  39
TORSDOF 10
ENDMDL