MODEL 5
REMARK VINA RESULT: -7.489189863      5.139      8.303
REMARK  11 active torsions:
REMARK  status: ('A' for Active; 'I' for Inactive)
REMARK    1  A    between atoms: C2_2  and  O1_3
REMARK    2  A    between atoms: O1_3  and  C3_4
REMARK    3  A    between atoms: C3_4  and  C4_6
REMARK    4  A    between atoms: C4_6  and  S1_7
REMARK    5  A    between atoms: S1_7  and  C5_8
REMARK    6  A    between atoms: C7_13  and  C8_14
REMARK    7  A    between atoms: C8_14  and  N2_16
REMARK    8  A    between atoms: N2_16  and  N3_18
REMARK       I    between atoms: N3_18  and  C10_20
REMARK    9  A    between atoms: C11_23  and  N5_24
REMARK   10  A    between atoms: N5_24  and  N6_25
REMARK   11  A    between atoms: N6_25  and  C12_27
ROOT
HETATM    1  C5  UNL     1      24.492  15.295  12.618  1.00  0.00     0.149 A
HETATM    2  N1  UNL     1      24.582  14.116  13.234  1.00  0.00    -0.303 N
ATOM      3  H1  UNL     1      25.060  13.341  12.775  1.00  0.00     0.171 HD
HETATM    4  C6  UNL     1      24.055  13.939  14.446  1.00  0.00     0.264 A
HETATM    5  O3  UNL     1      24.135  12.825  15.038  1.00  0.00    -0.267 OA
HETATM    6  C7  UNL     1      23.380  14.958  15.146  1.00  0.00     0.116 A
HETATM    7  C11 UNL     1      23.289  16.179  14.501  1.00  0.00     0.223 A
HETATM    8  N12 UNL     1      23.867  16.278  13.238  1.00  0.00    -0.309 N
ATOM      9  H12 UNL     1      23.804  17.176  12.758  1.00  0.00     0.170 HD
ENDROOT
BRANCH   7  10
HETATM   10  N5  UNL     1      22.698  17.286  14.968  1.00  0.00    -0.304 NA
BRANCH  10  11
HETATM   11  N6  UNL     1      22.220  18.209  15.437  1.00  0.00    -0.215 N
ATOM     12  H6  UNL     1      21.604  17.949  16.207  1.00  0.00     0.203 HD
BRANCH  11  13
HETATM   13  C12 UNL     1      22.239  19.595  15.260  1.00  0.00     0.163 A
HETATM   14  N7  UNL     1      22.791  20.322  14.262  1.00  0.00    -0.280 N
HETATM   15  N8  UNL     1      22.594  21.607  14.457  1.00  0.00    -0.278 N
ATOM     16  H7  UNL     1      23.293  19.928  13.466  1.00  0.00     0.189 HD
HETATM   17  C13 UNL     1      23.017  22.741  13.634  1.00  0.00     0.179 C
HETATM   18  C14 UNL     1      21.898  21.778  15.600  1.00  0.00     0.143 A
HETATM   19  N9  UNL     1      21.439  22.869  16.253  1.00  0.00    -0.292 N
HETATM   20  C17 UNL     1      21.667  20.518  16.117  1.00  0.00     0.101 A
HETATM   21  C15 UNL     1      20.760  22.749  17.403  1.00  0.00     0.327 A
ATOM     22  H9  UNL     1      21.612  23.797  15.866  1.00  0.00     0.172 HD
HETATM   23  O5  UNL     1      20.338  23.775  17.999  1.00  0.00    -0.247 OA
HETATM   24  N10 UNL     1      20.524  21.542  17.922  1.00  0.00    -0.294 N
HETATM   25  C16 UNL     1      20.973  20.421  17.288  1.00  0.00     0.120 A
ATOM     26  H10 UNL     1      20.006  21.457  18.797  1.00  0.00     0.172 HD
HETATM   27  N11 UNL     1      20.703  19.319  17.855  1.00  0.00    -0.384 N
ATOM     28 2H11 UNL     1      20.184  19.246  18.730  1.00  0.00     0.157 HD
ATOM     29 1H11 UNL     1      21.038  18.481  17.380  1.00  0.00     0.157 HD
ENDBRANCH  11  13
ENDBRANCH  10  11
ENDBRANCH   7  10
BRANCH   6  30
HETATM   30  C8  UNL     1      22.837  14.697  16.446  1.00  0.00     0.042 C
HETATM   31  C9  UNL     1      23.576  14.691  17.692  1.00  0.00     0.071 C
BRANCH  30  32
HETATM   32  N2  UNL     1      21.560  14.442  16.510  1.00  0.00    -0.300 N
ATOM     33  H2  UNL     1      21.164  13.771  15.851  1.00  0.00     0.186 HD
BRANCH  32  34
HETATM   34  N3  UNL     1      20.713  15.042  17.433  1.00  0.00    -0.254 N
HETATM   35  C10 UNL     1      19.777  16.014  17.070  1.00  0.00     0.347 C
HETATM   36  N4  UNL     1      18.936  16.593  18.060  1.00  0.00    -0.038 NA
HETATM   37  O4  UNL     1      19.646  16.400  15.886  1.00  0.00    -0.249 OA
ATOM     38  H3  UNL     1      20.777  14.763  18.411  1.00  0.00     0.191 HD
ENDBRANCH  32  34
ENDBRANCH  30  32
ENDBRANCH   6  30
BRANCH   1  39
HETATM   39  S1  UNL     1      25.193  15.568  10.985  1.00  0.00    -0.084 SA
BRANCH  39  40
HETATM   40  C4  UNL     1      25.872  14.038  10.318  1.00  0.00     0.193 C
BRANCH  40  41
HETATM   41  C3  UNL     1      26.661  14.348   9.115  1.00  0.00     0.268 C
HETATM   42  O2  UNL     1      27.742  14.961   9.228  1.00  0.00    -0.264 OA
BRANCH  41  43
HETATM   43  O1  UNL     1      26.210  13.966   7.874  1.00  0.00    -0.321 OA
BRANCH  43  44
HETATM   44  C2  UNL     1      24.968  14.395   7.339  1.00  0.00     0.174 C
HETATM   45  C1  UNL     1      25.077  14.428   5.827  1.00  0.00     0.034 C
ENDBRANCH  43  44
ENDBRANCH  41  43
ENDBRANCH  40  41
ENDBRANCH  39  40
ENDBRANCH   1  39
TORSDOF 11
ENDMDL