MODEL 5
REMARK VINA RESULT: -7.073485125      1.346      1.879
REMARK  13 active torsions:
REMARK  status: ('A' for Active; 'I' for Inactive)
REMARK    1  A    between atoms: C3_3  and  C4_4
REMARK       I    between atoms: C4_4  and  N1_6
REMARK    2  A    between atoms: N1_6  and  N2_8
REMARK    3  A    between atoms: N2_8  and  C5_10
REMARK    4  A    between atoms: C5_10  and  N3_11
REMARK    5  A    between atoms: C5_10  and  C6_14
REMARK    6  A    between atoms: C7_15  and  C8_16
REMARK    7  A    between atoms: C9_19  and  C10_20
REMARK    8  A    between atoms: C10_20  and  C11_21
REMARK    9  A    between atoms: C13_29  and  C14_30
REMARK   10  A    between atoms: C14_30  and  C15_31
REMARK   11  A    between atoms: C15_31  and  N6_32
REMARK   12  A    between atoms: N9_40  and  C16_41
REMARK   13  A    between atoms: C17_47  and  N12_48
ROOT
HETATM    1  C5  UNL     1      22.365  18.885  13.227  1.00  0.00     0.126 C
ENDROOT
BRANCH   1   2
HETATM    2  N2  UNL     1      22.664  18.558  14.617  1.00  0.00    -0.282 N
ATOM      3  H2  UNL     1      23.106  17.662  14.825  1.00  0.00     0.188 HD
BRANCH   2   4
HETATM    4  N1  UNL     1      22.369  19.423  15.672  1.00  0.00    -0.263 N
HETATM    5  C4  UNL     1      21.115  19.642  16.231  1.00  0.00     0.290 C
HETATM    6  O1  UNL     1      20.082  19.048  15.795  1.00  0.00    -0.264 OA
ATOM      7  H1  UNL     1      23.149  19.946  16.070  1.00  0.00     0.190 HD
BRANCH   5   8
HETATM    8  C3  UNL     1      20.919  20.551  17.341  1.00  0.00     0.143 A
HETATM    9  C2  UNL     1      20.142  20.345  18.484  1.00  0.00     0.067 A
HETATM   10  C1  UNL     1      19.409  19.085  18.714  1.00  0.00     0.073 C
HETATM   11  N9  UNL     1      20.212  21.425  19.263  1.00  0.00    -0.223 N
HETATM   12  N8  UNL     1      20.995  22.289  18.659  1.00  0.00    -0.234 N
HETATM   13  N7  UNL     1      21.428  21.784  17.507  1.00  0.00    -0.279 N
ATOM     14  H8  UNL     1      21.235  23.212  19.021  1.00  0.00     0.209 HD
ATOM     15  H7  UNL     1      22.050  22.258  16.852  1.00  0.00     0.189 HD
BRANCH  11  16
HETATM   16  C16 UNL     1      19.557  21.567  20.529  1.00  0.00     0.196 A
HETATM   17  N10 UNL     1      18.505  22.374  20.807  1.00  0.00    -0.220 N
HETATM   18  O5  UNL     1      18.209  22.223  22.051  1.00  0.00    -0.153 OA
ATOM     19  H10 UNL     1      18.032  22.992  20.149  1.00  0.00     0.198 HD
HETATM   20  N11 UNL     1      18.985  21.369  22.632  1.00  0.00    -0.222 N
HETATM   21  C17 UNL     1      19.853  20.927  21.712  1.00  0.00     0.169 A
ATOM     22  H11 UNL     1      18.945  21.084  23.611  1.00  0.00     0.198 HD
BRANCH  21  23
HETATM   23  N12 UNL     1      20.785  20.060  21.938  1.00  0.00    -0.381 N
ATOM     24 2H12 UNL     1      20.787  19.105  21.580  1.00  0.00     0.157 HD
ATOM     25 1H12 UNL     1      21.633  20.178  22.491  1.00  0.00     0.157 HD
ENDBRANCH  21  23
ENDBRANCH  11  16
ENDBRANCH   5   8
ENDBRANCH   2   4
ENDBRANCH   1   2
BRANCH   1  26
HETATM   26  N3  UNL     1      21.164  18.660  12.967  1.00  0.00    -0.384 N
ATOM     27  H32 UNL     1      20.546  19.181  12.344  1.00  0.00     0.157 HD
ATOM     28  H31 UNL     1      20.778  17.971  13.612  1.00  0.00     0.157 HD
ENDBRANCH   1  26
BRANCH   1  29
HETATM   29  C6  UNL     1      23.367  19.632  12.397  1.00  0.00     0.037 A
HETATM   30  C7  UNL     1      24.506  19.053  11.910  1.00  0.00     0.039 A
HETATM   31  C12 UNL     1      25.447  19.899  11.354  1.00  0.00     0.067 A
HETATM   32  S1  UNL     1      24.785  21.425  11.487  1.00  0.00    -0.104 SA
HETATM   33  C13 UNL     1      23.284  20.995  12.272  1.00  0.00    -0.001 A
BRANCH  30  34
HETATM   34  C8  UNL     1      24.730  17.582  11.688  1.00  0.00     0.183 A
HETATM   35  N4  UNL     1      25.397  17.047  10.621  1.00  0.00    -0.322 N
HETATM   36  C9  UNL     1      25.403  15.693  10.771  1.00  0.00     0.114 A
ATOM     37  H4  UNL     1      25.814  17.568   9.850  1.00  0.00     0.169 HD
HETATM   38  N5  UNL     1      24.756  15.446  11.898  1.00  0.00    -0.246 N
HETATM   39  O4  UNL     1      24.377  16.570  12.406  1.00  0.00    -0.217 OA
ATOM     40  H5  UNL     1      24.585  14.524  12.297  1.00  0.00     0.196 HD
BRANCH  36  41
HETATM   41  C10 UNL     1      26.021  14.668   9.898  1.00  0.00     0.191 C
BRANCH  41  42
HETATM   42  C11 UNL     1      27.493  14.857  10.009  1.00  0.00     0.179 C
HETATM   43  O2  UNL     1      27.994  15.411  11.012  1.00  0.00    -0.648 OA
HETATM   44  O3  UNL     1      28.331  14.419   9.007  1.00  0.00    -0.648 OA
ENDBRANCH  41  42
ENDBRANCH  36  41
ENDBRANCH  30  34
BRANCH  33  45
HETATM   45  C14 UNL     1      22.341  22.036  12.811  1.00  0.00     0.074 C
BRANCH  45  46
HETATM   46  C15 UNL     1      22.849  22.620  14.096  1.00  0.00     0.234 C
BRANCH  46  47
HETATM   47  N6  UNL     1      22.481  23.981  14.259  1.00  0.00    -0.079 N
ATOM     48  H63 UNL     1      22.820  24.549  13.483  1.00  0.00     0.274 HD
ATOM     49  H62 UNL     1      21.477  24.107  14.129  1.00  0.00     0.274 HD
ATOM     50  H61 UNL     1      22.785  24.365  15.154  1.00  0.00     0.274 HD
ENDBRANCH  46  47
ENDBRANCH  45  46
ENDBRANCH  33  45
ENDBRANCH   1  29
TORSDOF 13
ENDMDL