MODEL 4
REMARK VINA RESULT: -8.130682883      2.752      5.203
REMARK  14 active torsions:
REMARK  status: ('A' for Active; 'I' for Inactive)
REMARK    1  A    between atoms: C2_2  and  C3_4
REMARK    2  A    between atoms: C6_7  and  N1_8
REMARK    3  A    between atoms: C8_10  and  C9_11
REMARK    4  A    between atoms: C9_11  and  N4_17
REMARK    5  A    between atoms: N2_12  and  N3_14
REMARK    6  A    between atoms: N4_17  and  N5_19
REMARK       I    between atoms: N5_19  and  C10_21
REMARK    7  A    between atoms: C10_21  and  C11_23
REMARK    8  A    between atoms: C12_24  and  O3_25
REMARK    9  A    between atoms: C13_30  and  N7_31
REMARK   10  A    between atoms: N7_31  and  N8_33
REMARK   11  A    between atoms: C14_35  and  C16_37
REMARK   12  A    between atoms: C16_37  and  N9_38
REMARK   13  A    between atoms: C16_37  and  O5_42
REMARK   14  A    between atoms: C17_47  and  N12_48
ROOT
HETATM    1  N4  UNL     1      21.718  20.782  12.625  1.00  0.00    -0.280 N
ATOM      2  H4  UNL     1      21.001  20.635  11.916  1.00  0.00     0.189 HD
ENDROOT
BRANCH   1   3
HETATM    3  C9  UNL     1      22.427  21.997  12.572  1.00  0.00     0.164 C
HETATM    4  N2  UNL     1      22.093  22.943  13.363  1.00  0.00    -0.289 N
ATOM      5  H2  UNL     1      21.333  22.731  14.009  1.00  0.00     0.188 HD
BRANCH   3   6
HETATM    6  C8  UNL     1      23.496  22.141  11.595  1.00  0.00     0.110 A
HETATM    7  C7  UNL     1      24.860  22.068  11.751  1.00  0.00     0.149 A
HETATM    8  N1  UNL     1      25.473  22.282  10.568  1.00  0.00    -0.246 N
HETATM    9  N11 UNL     1      24.521  22.486   9.670  1.00  0.00    -0.015 NA
HETATM   10  N10 UNL     1      23.341  22.406  10.257  1.00  0.00    -0.279 N
ATOM     11  H10 UNL     1      22.444  22.525   9.785  1.00  0.00     0.184 HD
BRANCH   8  12
HETATM   12  C6  UNL     1      26.878  22.298  10.412  1.00  0.00     0.087 A
HETATM   13  C5  UNL     1      27.583  23.483  10.244  1.00  0.00     0.034 A
HETATM   14  C4  UNL     1      28.946  23.540  10.080  1.00  0.00     0.017 A
HETATM   15  C3  UNL     1      29.637  22.360  10.084  1.00  0.00     0.012 A
HETATM   16  C18 UNL     1      28.990  21.160  10.246  1.00  0.00     0.053 A
HETATM   17  C17 UNL     1      27.590  21.129  10.412  1.00  0.00     0.132 A
BRANCH  15  18
HETATM   18  C2  UNL     1      31.088  22.433   9.906  1.00  0.00     0.155 C
HETATM   19  C1  UNL     1      31.888  23.660  10.132  1.00  0.00     0.096 C
HETATM   20  O1  UNL     1      31.744  21.409   9.536  1.00  0.00    -0.293 OA
ENDBRANCH  15  18
BRANCH  17  21
HETATM   21  N12 UNL     1      26.977  19.865  10.578  1.00  0.00    -0.113 N
HETATM   22  O6  UNL     1      26.264  19.419   9.673  1.00  0.00    -0.532 OA
HETATM   23  O7  UNL     1      27.179  19.161  11.721  1.00  0.00    -0.532 OA
ENDBRANCH  17  21
ENDBRANCH   8  12
ENDBRANCH   3   6
BRANCH   4  24
HETATM   24  N3  UNL     1      22.620  24.202  13.458  1.00  0.00    -0.344 N
ATOM     25  H32 UNL     1      22.974  24.580  12.579  1.00  0.00     0.176 HD
ATOM     26  H31 UNL     1      22.702  24.797  14.282  1.00  0.00     0.176 HD
ENDBRANCH   4  24
ENDBRANCH   1   3
BRANCH   1  27
HETATM   27  N5  UNL     1      21.902  19.763  13.551  1.00  0.00    -0.264 N
HETATM   28  C10 UNL     1      22.487  18.524  13.194  1.00  0.00     0.278 C
HETATM   29  O2  UNL     1      22.815  18.409  11.974  1.00  0.00    -0.266 OA
ATOM     30  H5  UNL     1      21.607  19.913  14.516  1.00  0.00     0.190 HD
BRANCH  28  31
HETATM   31  C11 UNL     1      22.716  17.433  14.118  1.00  0.00     0.140 A
HETATM   32  C12 UNL     1      22.203  17.258  15.378  1.00  0.00     0.224 A
HETATM   33  O4  UNL     1      22.682  16.152  15.841  1.00  0.00    -0.210 OA
HETATM   34  N6  UNL     1      23.464  15.548  15.045  1.00  0.00    -0.240 N
HETATM   35  C13 UNL     1      23.539  16.320  13.894  1.00  0.00     0.161 A
ATOM     36  H6  UNL     1      23.943  14.664  15.218  1.00  0.00     0.196 HD
BRANCH  32  37
HETATM   37  O3  UNL     1      21.328  18.107  16.053  1.00  0.00    -0.339 OA
ATOM     38  H3  UNL     1      21.081  18.064  16.969  1.00  0.00     0.220 HD
ENDBRANCH  32  37
BRANCH  35  39
HETATM   39  N7  UNL     1      24.210  16.000  12.920  1.00  0.00    -0.283 N
ATOM     40  H7  UNL     1      24.548  15.069  13.167  1.00  0.00     0.188 HD
BRANCH  39  41
HETATM   41  N8  UNL     1      24.723  16.198  11.750  1.00  0.00    -0.303 N
HETATM   42  C14 UNL     1      25.317  15.456  10.914  1.00  0.00     0.055 C
HETATM   43  C15 UNL     1      25.555  14.013  11.196  1.00  0.00     0.069 C
ATOM     44  H8  UNL     1      24.628  17.162  11.431  1.00  0.00     0.186 HD
BRANCH  42  45
HETATM   45  C16 UNL     1      25.788  16.006   9.624  1.00  0.00     0.364 C
BRANCH  45  46
HETATM   46  N9  UNL     1      24.876  17.033   9.182  1.00  0.00    -0.048 N
ATOM     47  H93 UNL     1      24.262  17.352   9.931  1.00  0.00     0.277 HD
ATOM     48  H92 UNL     1      25.349  17.917   8.995  1.00  0.00     0.277 HD
ATOM     49  H91 UNL     1      24.355  16.695   8.373  1.00  0.00     0.277 HD
ENDBRANCH  45  46
BRANCH  45  50
HETATM   50  O5  UNL     1      27.037  16.638   9.838  1.00  0.00    -0.366 OA
ATOM     51  H5  UNL     1      27.488  16.701   9.005  1.00  0.00     0.212 HD
ENDBRANCH  45  50
ENDBRANCH  42  45
ENDBRANCH  39  41
ENDBRANCH  35  39
ENDBRANCH  28  31
ENDBRANCH   1  27
TORSDOF 14
ENDMDL