MODEL 1
REMARK VINA RESULT: -7.071717861      0.000      0.000
REMARK  15 active torsions:
REMARK  status: ('A' for Active; 'I' for Inactive)
REMARK    1  A    between atoms: C2_2  and  C5_5
REMARK    2  A    between atoms: C5_5  and  N1_6
REMARK    3  A    between atoms: C5_5  and  C6_10
REMARK    4  A    between atoms: C6_10  and  C7_12
REMARK       I    between atoms: C7_12  and  N2_14
REMARK    5  A    between atoms: N2_14  and  N3_15
REMARK    6  A    between atoms: N3_15  and  C8_17
REMARK    7  A    between atoms: C9_18  and  N4_19
REMARK    8  A    between atoms: C10_22  and  N5_23
REMARK    9  A    between atoms: N5_23  and  C11_25
REMARK   10  A    between atoms: C11_25  and  O5_26
REMARK   11  A    between atoms: C11_25  and  C12_28
REMARK   12  A    between atoms: C12_28  and  O6_29
REMARK   13  A    between atoms: C12_28  and  C13_31
REMARK   14  A    between atoms: N7_39  and  C16_40
REMARK   15  A    between atoms: C17_41  and  O9_42
ROOT
HETATM    1  C8  UNL     1      22.920  19.273  12.468  1.00  0.00     0.196 A
HETATM    2  C9  UNL     1      22.449  18.917  13.714  1.00  0.00     0.203 A
HETATM    3  C10 UNL     1      22.013  20.105  14.311  1.00  0.00     0.206 A
HETATM    4  O8  UNL     1      22.232  21.074  13.464  1.00  0.00    -0.209 OA
HETATM    5  N7  UNL     1      22.777  20.601  12.349  1.00  0.00    -0.203 N
ENDROOT
BRANCH   1   6
HETATM    6  N3  UNL     1      23.430  18.389  11.494  1.00  0.00    -0.210 N
ATOM      7  H3  UNL     1      22.759  18.003  10.830  1.00  0.00     0.204 HD
BRANCH   6   8
HETATM    8  N2  UNL     1      24.741  17.992  11.349  1.00  0.00    -0.276 NA
HETATM    9  C7  UNL     1      25.995  17.613  11.212  1.00  0.00     0.383 C
HETATM   10  O2  UNL     1      27.035  18.204  11.649  1.00  0.00    -0.246 OA
BRANCH   9  11
HETATM   11  C6  UNL     1      26.340  16.352  10.473  1.00  0.00     0.263 C
HETATM   12  O1  UNL     1      27.228  16.453   9.620  1.00  0.00    -0.284 OA
BRANCH  11  13
HETATM   13  C5  UNL     1      25.688  15.064  10.717  1.00  0.00     0.271 C
BRANCH  13  14
HETATM   14  C2  UNL     1      24.963  14.597   9.450  1.00  0.00    -0.016 C
HETATM   15  C1  UNL     1      24.018  13.477   9.799  1.00  0.00     0.017 C
HETATM   16  C3  UNL     1      24.154  15.680   8.807  1.00  0.00     0.017 C
HETATM   17  C4  UNL     1      25.940  14.082   8.414  1.00  0.00     0.017 C
ENDBRANCH  13  14
BRANCH  13  18
HETATM   18  N1  UNL     1      24.762  15.083  11.824  1.00  0.00    -0.067 N
ATOM     19  H13 UNL     1      24.767  15.977  12.316  1.00  0.00     0.275 HD
ATOM     20  H12 UNL     1      23.790  15.093  11.513  1.00  0.00     0.275 HD
ATOM     21  H11 UNL     1      24.959  14.299  12.446  1.00  0.00     0.275 HD
ENDBRANCH  13  18
ENDBRANCH  11  13
ENDBRANCH   9  11
ENDBRANCH   6   8
ENDBRANCH   1   6
BRANCH   2  22
HETATM   22  N4  UNL     1      22.452  17.640  14.323  1.00  0.00    -0.107 N
HETATM   23  O3  UNL     1      21.486  17.181  14.922  1.00  0.00    -0.531 OA
HETATM   24  O4  UNL     1      23.558  16.840  14.234  1.00  0.00    -0.531 OA
ENDBRANCH   2  22
BRANCH   5  25
HETATM   25  C16 UNL     1      23.139  21.398  11.220  1.00  0.00     0.149 C
HETATM   26  C17 UNL     1      24.393  21.619  10.914  1.00  0.00     0.151 C
BRANCH  26  27
HETATM   27  O9  UNL     1      24.726  22.388   9.819  1.00  0.00    -0.371 OA
ATOM     28  H9  UNL     1      24.519  23.314   9.796  1.00  0.00     0.216 HD
ENDBRANCH  26  27
ENDBRANCH   5  25
BRANCH   3  29
HETATM   29  N5  UNL     1      21.511  20.058  15.492  1.00  0.00    -0.338 N
ATOM     30  H5  UNL     1      20.774  19.361  15.602  1.00  0.00     0.164 HD
BRANCH  29  31
HETATM   31  C11 UNL     1      21.785  20.782  16.656  1.00  0.00     0.254 C
BRANCH  31  32
HETATM   32  O5  UNL     1      23.074  21.301  16.720  1.00  0.00    -0.374 OA
ATOM     33  H5  UNL     1      23.370  21.509  17.598  1.00  0.00     0.212 HD
ENDBRANCH  31  32
BRANCH  31  34
HETATM   34  C12 UNL     1      20.778  21.925  16.863  1.00  0.00     0.216 C
BRANCH  34  35
HETATM   35  O6  UNL     1      21.269  23.150  16.511  1.00  0.00    -0.385 OA
ATOM     36  H6  UNL     1      20.625  23.846  16.571  1.00  0.00     0.210 HD
ENDBRANCH  34  35
BRANCH  34  37
HETATM   37  C13 UNL     1      20.296  21.827  18.287  1.00  0.00     0.052 A
HETATM   38  C14 UNL     1      19.205  22.584  18.682  1.00  0.00     0.083 A
HETATM   39  S1  UNL     1      19.048  22.149  20.320  1.00  0.00    -0.039 SA
HETATM   40  C15 UNL     1      20.351  21.053  20.413  1.00  0.00     0.288 A
HETATM   41  O7  UNL     1      20.769  20.363  21.423  1.00  0.00    -0.260 OA
HETATM   42  N6  UNL     1      20.847  21.068  19.188  1.00  0.00    -0.318 N
ATOM     43  H6  UNL     1      21.655  20.490  18.952  1.00  0.00     0.169 HD
ENDBRANCH  34  37
ENDBRANCH  31  34
ENDBRANCH  29  31
ENDBRANCH   3  29
TORSDOF 15
ENDMDL