MODEL 1
REMARK VINA RESULT: -7.415218400      0.000      0.000
REMARK  12 active torsions:
REMARK  status: ('A' for Active; 'I' for Inactive)
REMARK    1  A    between atoms: O1_2  and  N1_3
REMARK    2  A    between atoms: C2_5  and  O2_6
REMARK    3  A    between atoms: C2_5  and  C3_8
REMARK    4  A    between atoms: C5_12  and  N2_13
REMARK    5  A    between atoms: N2_13  and  C6_15
REMARK    6  A    between atoms: N3_19  and  C9_20
REMARK    7  A    between atoms: C9_20  and  C10_21
REMARK    8  A    between atoms: C10_21  and  C11_22
REMARK    9  A    between atoms: C11_22  and  C12_23
REMARK   10  A    between atoms: C14_26  and  N4_27
REMARK   11  A    between atoms: N6_32  and  O4_34
REMARK   12  A    between atoms: C15_36  and  N7_37
REMARK       I    between atoms: N7_37  and  C16_39
REMARK       I    between atoms: C16_39  and  N8_40
REMARK       I    between atoms: C16_39  and  N9_44
ROOT
HETATM    1  C6  UNL     1      26.157  17.896  10.448  1.00  0.00     0.123 A
HETATM    2  C7  UNL     1      25.120  17.701  11.320  1.00  0.00     0.124 A
HETATM    3  C8  UNL     1      24.782  16.450  11.732  1.00  0.00     0.271 A
HETATM    4  O3  UNL     1      23.806  16.321  12.548  1.00  0.00    -0.267 OA
HETATM    5  N3  UNL     1      25.448  15.338  11.306  1.00  0.00    -0.098 N
HETATM    6  C15 UNL     1      26.453  15.544  10.460  1.00  0.00     0.693 A
HETATM    7  N10 UNL     1      26.802  16.773  10.040  1.00  0.00    -0.176 N
ATOM      8  H10 UNL     1      27.583  16.865   9.390  1.00  0.00     0.186 HD
ENDROOT
BRANCH   5   9
HETATM    9  C9  UNL     1      25.014  14.067  11.799  1.00  0.00     0.128 C
HETATM   10  N6  UNL     1      24.124  13.467  11.095  1.00  0.00    -0.256 N
ATOM     11  H6  UNL     1      23.801  12.560  11.431  1.00  0.00     0.195 HD
BRANCH   9  12
HETATM   12  C10 UNL     1      25.558  13.529  13.057  1.00  0.00     0.085 C
BRANCH  12  13
HETATM   13  C11 UNL     1      24.608  12.791  13.903  1.00  0.00     0.065 C
BRANCH  13  14
HETATM   14  C12 UNL     1      24.023  13.594  15.036  1.00  0.00     0.018 A
HETATM   15  C13 UNL     1      23.917  13.076  16.299  1.00  0.00     0.078 A
HETATM   16  S3  UNL     1      23.179  14.355  17.155  1.00  0.00    -0.064 SA
HETATM   17  C14 UNL     1      23.051  15.458  15.865  1.00  0.00     0.142 A
HETATM   18  N5  UNL     1      23.573  14.810  14.840  1.00  0.00    -0.340 N
ATOM     19  H5  UNL     1      23.626  15.244  13.919  1.00  0.00     0.167 HD
BRANCH  17  20
HETATM   20  N4  UNL     1      22.548  16.678  15.864  1.00  0.00    -0.380 N
ATOM     21  H42 UNL     1      21.568  16.939  15.969  1.00  0.00     0.158 HD
ATOM     22  H41 UNL     1      23.031  17.571  15.764  1.00  0.00     0.158 HD
ENDBRANCH  17  20
ENDBRANCH  13  14
ENDBRANCH  12  13
ENDBRANCH   9  12
BRANCH  10  23
HETATM   23  O4  UNL     1      23.574  13.931   9.946  1.00  0.00    -0.288 OA
ATOM     24  H4  UNL     1      23.087  13.416   9.314  1.00  0.00     0.244 HD
ENDBRANCH  10  23
ENDBRANCH   5   9
BRANCH   6  25
HETATM   25  N7  UNL     1      27.125  14.562  10.020  1.00  0.00    -0.173 N
HETATM   26  C16 UNL     1      28.508  14.295  10.264  1.00  0.00     0.494 C
HETATM   27  N8  UNL     1      28.762  13.786  11.585  1.00  0.00    -0.032 N
HETATM   28  N9  UNL     1      28.993  13.284   9.320  1.00  0.00    -0.032 N
ATOM     29  H83 UNL     1      28.383  14.413  12.295  1.00  0.00     0.278 HD
ATOM     30  H82 UNL     1      28.195  12.959  11.771  1.00  0.00     0.278 HD
ATOM     31  H81 UNL     1      29.749  13.596  11.759  1.00  0.00     0.278 HD
ATOM     32  H93 UNL     1      28.429  12.435   9.345  1.00  0.00     0.278 HD
ATOM     33  H92 UNL     1      28.819  13.549   8.351  1.00  0.00     0.278 HD
ATOM     34  H91 UNL     1      29.980  13.094   9.494  1.00  0.00     0.278 HD
ATOM     35  H7  UNL     1      26.626  13.894   9.432  1.00  0.00     0.181 HD
ENDBRANCH   6  25
BRANCH   1  36
HETATM   36  N2  UNL     1      26.560  19.181   9.998  1.00  0.00    -0.361 N
ATOM     37  H2  UNL     1      26.484  19.349   8.995  1.00  0.00     0.162 HD
BRANCH  36  38
HETATM   38  C5  UNL     1      27.054  20.253  10.775  1.00  0.00     0.169 C
HETATM   39  C3  UNL     1      28.335  20.888  10.304  1.00  0.00     0.105 C
HETATM   40  C4  UNL     1      28.074  21.760   9.131  1.00  0.00     0.102 C
HETATM   41  S1  UNL     1      26.766  22.956   9.625  1.00  0.00    -0.095 SA
HETATM   42  S2  UNL     1      25.836  21.581  11.020  1.00  0.00    -0.071 SA
BRANCH  39  43
HETATM   43  C2  UNL     1      29.069  21.479  11.404  1.00  0.00     0.143 C
HETATM   44  N1  UNL     1      30.302  21.667  11.510  1.00  0.00    -0.249 N
ATOM     45  H1  UNL     1      30.550  22.104  12.398  1.00  0.00     0.196 HD
BRANCH  44  46
HETATM   46  O1  UNL     1      31.363  21.437  10.750  1.00  0.00    -0.284 OA
HETATM   47  C1  UNL     1      32.655  21.807  11.182  1.00  0.00     0.237 C
ENDBRANCH  44  46
BRANCH  43  48
HETATM   48  O2  UNL     1      28.297  21.906  12.520  1.00  0.00    -0.348 OA
ATOM     49  H2  UNL     1      27.462  22.305  12.303  1.00  0.00     0.219 HD
ENDBRANCH  43  48
ENDBRANCH  39  43
ENDBRANCH  36  38
ENDBRANCH   1  36
TORSDOF 12
ENDMDL