MODEL 2
REMARK VINA RESULT: -6.362716542      3.669      5.996
REMARK  14 active torsions:
REMARK  status: ('A' for Active; 'I' for Inactive)
REMARK    1  A    between atoms: N1_2  and  C2_4
REMARK    2  A    between atoms: C3_7  and  N3_8
REMARK    3  A    between atoms: N3_8  and  C5_10
REMARK    4  A    between atoms: C5_10  and  C6_11
REMARK    5  A    between atoms: C6_11  and  O1_12
REMARK    6  A    between atoms: C6_11  and  O2_14
REMARK    7  A    between atoms: C7_16  and  N4_17
REMARK    8  A    between atoms: N4_17  and  C8_19
REMARK    9  A    between atoms: C10_28  and  O3_29
REMARK   10  A    between atoms: O3_29  and  C11_30
REMARK   11  A    between atoms: C11_30  and  C13_32
REMARK   12  A    between atoms: C13_32  and  O4_34
REMARK   13  A    between atoms: C16_37  and  N8_38
REMARK   14  A    between atoms: C18_44  and  O5_45
ROOT
HETATM    1  C8  UNL     1      22.859  19.057  14.089  1.00  0.00     0.158 A
HETATM    2  N5  UNL     1      23.161  18.093  13.194  1.00  0.00    -0.306 N
ATOM      3  H5  UNL     1      23.131  17.103  13.440  1.00  0.00     0.176 HD
HETATM    4  S1  UNL     1      23.588  18.613  11.651  1.00  0.00     0.024 SA
HETATM    5  C9  UNL     1      23.558  20.311  11.506  1.00  0.00     0.169 A
HETATM    6  N6  UNL     1      23.855  20.935  10.399  1.00  0.00    -0.378 N
ATOM      7  H61 UNL     1      23.836  21.951  10.313  1.00  0.00     0.158 HD
ATOM      8  H62 UNL     1      24.124  20.441   9.549  1.00  0.00     0.158 HD
HETATM    9  N7  UNL     1      23.201  20.965  12.635  1.00  0.00    -0.253 N
HETATM   10  C10 UNL     1      23.181  22.345  12.504  1.00  0.00     0.156 A
HETATM   11  C15 UNL     1      22.838  23.159  13.558  1.00  0.00     0.104 A
HETATM   12  C16 UNL     1      22.513  22.547  14.763  1.00  0.00     0.104 A
HETATM   13  N9  UNL     1      22.550  21.221  14.833  1.00  0.00    -0.325 N
ATOM     14  H9  UNL     1      22.310  20.781  15.721  1.00  0.00     0.169 HD
HETATM   15  C17 UNL     1      22.889  20.410  13.789  1.00  0.00     0.163 A
ENDROOT
BRANCH   1  16
HETATM   16  N4  UNL     1      22.543  18.672  15.279  1.00  0.00    -0.332 N
ATOM     17  H4  UNL     1      22.987  19.186  16.040  1.00  0.00     0.168 HD
BRANCH  16  18
HETATM   18  C7  UNL     1      21.681  17.654  15.667  1.00  0.00     0.131 A
HETATM   19  C3  UNL     1      20.349  17.896  15.974  1.00  0.00     0.150 A
HETATM   20  N2  UNL     1      19.546  16.853  16.358  1.00  0.00    -0.174 N
HETATM   21  C2  UNL     1      20.037  15.605  16.438  1.00  0.00     0.681 A
ATOM     22  H2  UNL     1      18.566  17.026  16.584  1.00  0.00     0.186 HD
HETATM   23  N10 UNL     1      21.321  15.331  16.149  1.00  0.00    -0.168 N
HETATM   24  C18 UNL     1      22.129  16.355  15.768  1.00  0.00     0.188 A
ATOM     25  H10 UNL     1      21.680  14.379  16.214  1.00  0.00     0.186 HD
BRANCH  19  26
HETATM   26  N3  UNL     1      19.879  19.221  15.863  1.00  0.00    -0.365 N
HETATM   27  C4  UNL     1      19.385  19.665  14.559  1.00  0.00     0.151 C
BRANCH  26  28
HETATM   28  C5  UNL     1      19.859  20.197  16.903  1.00  0.00     0.184 C
BRANCH  28  29
HETATM   29  C6  UNL     1      20.855  20.068  17.993  1.00  0.00     0.271 C
BRANCH  29  30
HETATM   30  O1  UNL     1      20.530  20.709  19.176  1.00  0.00    -0.370 OA
ATOM     31  H1  UNL     1      21.179  20.647  19.868  1.00  0.00     0.212 HD
ENDBRANCH  29  30
BRANCH  29  32
HETATM   32  O2  UNL     1      22.098  20.535  17.504  1.00  0.00    -0.370 OA
ATOM     33  H2  UNL     1      22.488  21.085  18.174  1.00  0.00     0.212 HD
ENDBRANCH  29  32
ENDBRANCH  28  29
ENDBRANCH  26  28
ENDBRANCH  19  26
BRANCH  21  34
HETATM   34  N1  UNL     1      19.290  14.616  16.798  1.00  0.00    -0.230 N
HETATM   35  C1  UNL     1      18.072  14.796  17.566  1.00  0.00     0.165 C
ATOM     36  H1  UNL     1      19.567  13.671  16.532  1.00  0.00     0.177 HD
ENDBRANCH  21  34
BRANCH  24  37
HETATM   37  O5  UNL     1      23.455  16.080  15.470  1.00  0.00    -0.339 OA
HETATM   38  C19 UNL     1      23.716  14.844  14.822  1.00  0.00     0.211 C
ENDBRANCH  24  37
ENDBRANCH  16  18
ENDBRANCH   1  16
BRANCH  10  39
HETATM   39  O3  UNL     1      23.510  22.907  11.290  1.00  0.00    -0.328 OA
BRANCH  39  40
HETATM   40  C11 UNL     1      23.890  24.208  11.019  1.00  0.00     0.154 C
HETATM   41  C12 UNL     1      22.913  24.867  10.033  1.00  0.00     0.042 C
BRANCH  40  42
HETATM   42  C13 UNL     1      25.274  24.237  10.329  1.00  0.00     0.143 C
HETATM   43  C14 UNL     1      25.805  25.628  10.388  1.00  0.00     0.042 C
BRANCH  42  44
HETATM   44  O4  UNL     1      26.058  23.301  10.966  1.00  0.00    -0.393 OA
ATOM     45  H4  UNL     1      26.621  23.775  11.567  1.00  0.00     0.210 HD
ENDBRANCH  42  44
ENDBRANCH  40  42
ENDBRANCH  39  40
ENDBRANCH  10  39
BRANCH  12  46
HETATM   46  N8  UNL     1      22.186  23.299  15.774  1.00  0.00    -0.385 N
ATOM     47  H82 UNL     1      21.249  23.312  16.174  1.00  0.00     0.157 HD
ATOM     48  H81 UNL     1      22.901  23.901  16.184  1.00  0.00     0.157 HD
ENDBRANCH  12  46
TORSDOF 14
ENDMDL