MODEL 3
REMARK VINA RESULT: -7.743683089      1.250      2.438
REMARK  13 active torsions:
REMARK  status: ('A' for Active; 'I' for Inactive)
REMARK    1  A    between atoms: C2_10  and  C3_11
REMARK    2  A    between atoms: C4_14  and  C5_15
REMARK    3  A    between atoms: C5_15  and  N6_20
REMARK    4  A    between atoms: N5_16  and  O2_18
REMARK    5  A    between atoms: N6_20  and  C6_22
REMARK    6  A    between atoms: C9_25  and  S1_26
REMARK    7  A    between atoms: S1_26  and  N7_27
REMARK    8  A    between atoms: S1_26  and  N8_31
REMARK    9  A    between atoms: C15_38  and  O5_39
REMARK   10  A    between atoms: N10_43  and  C16_44
REMARK   11  A    between atoms: C16_44  and  C17_45
REMARK   12  A    between atoms: C17_45  and  C18_46
REMARK   13  A    between atoms: C18_46  and  N11_47
ROOT
HETATM    1  C5  UNL     1      20.800  15.507  17.368  1.00  0.00     0.172 C
HETATM    2  N5  UNL     1      19.873  14.816  16.799  1.00  0.00    -0.250 N
ATOM      3  H5  UNL     1      20.108  13.879  16.470  1.00  0.00     0.196 HD
ENDROOT
BRANCH   1   4
HETATM    4  C4  UNL     1      20.434  16.851  17.833  1.00  0.00     0.168 A
HETATM    5  N4  UNL     1      20.468  17.986  17.116  1.00  0.00    -0.321 N
HETATM    6  C3  UNL     1      20.064  19.015  17.875  1.00  0.00     0.157 A
ATOM      7  H4  UNL     1      20.758  18.055  16.141  1.00  0.00     0.169 HD
HETATM    8  N10 UNL     1      19.767  18.548  19.088  1.00  0.00    -0.273 N
HETATM    9  N9  UNL     1      20.000  17.221  19.044  1.00  0.00    -0.278 N
ATOM     10  H9  UNL     1      19.864  16.583  19.829  1.00  0.00     0.189 HD
BRANCH   6  11
HETATM   11  C2  UNL     1      19.970  20.399  17.435  1.00  0.00     0.147 A
HETATM   12  C1  UNL     1      21.008  21.225  17.060  1.00  0.00     0.154 A
HETATM   13  N1  UNL     1      22.273  21.005  17.003  1.00  0.00    -0.382 N
HETATM   14  N2  UNL     1      20.412  22.412  16.736  1.00  0.00    -0.224 N
ATOM     15  H12 UNL     1      23.040  21.616  16.725  1.00  0.00     0.157 HD
ATOM     16  H11 UNL     1      22.717  20.120  17.245  1.00  0.00     0.157 HD
HETATM   17  O1  UNL     1      19.163  22.297  16.901  1.00  0.00    -0.155 OA
ATOM     18  H2  UNL     1      20.895  23.251  16.413  1.00  0.00     0.198 HD
HETATM   19  N3  UNL     1      18.861  21.134  17.309  1.00  0.00    -0.234 N
ATOM     20  H3  UNL     1      17.916  20.809  17.512  1.00  0.00     0.197 HD
ENDBRANCH   6  11
BRANCH   8  21
HETATM   21  C16 UNL     1      19.284  19.254  20.276  1.00  0.00     0.152 C
BRANCH  21  22
HETATM   22  C17 UNL     1      20.384  19.855  21.087  1.00  0.00     0.049 C
BRANCH  22  23
HETATM   23  C18 UNL     1      19.845  21.128  21.709  1.00  0.00     0.231 C
BRANCH  23  24
HETATM   24  N11 UNL     1      19.340  21.987  20.680  1.00  0.00    -0.079 N
ATOM     25 3H11 UNL     1      19.512  21.613  19.747  1.00  0.00     0.274 HD
ATOM     26 2H11 UNL     1      18.321  21.993  20.649  1.00  0.00     0.274 HD
ATOM     27 1H11 UNL     1      19.728  22.924  20.797  1.00  0.00     0.274 HD
ENDBRANCH  23  24
ENDBRANCH  22  23
ENDBRANCH  21  22
ENDBRANCH   8  21
ENDBRANCH   1   4
BRANCH   1  28
HETATM   28  N6  UNL     1      22.104  14.969  17.524  1.00  0.00    -0.336 N
ATOM     29  H6  UNL     1      22.497  14.859  18.458  1.00  0.00     0.168 HD
BRANCH  28  30
HETATM   30  C6  UNL     1      22.870  14.580  16.378  1.00  0.00     0.067 A
HETATM   31  C7  UNL     1      23.275  13.267  16.261  1.00  0.00     0.034 A
HETATM   32  C8  UNL     1      24.012  12.886  15.161  1.00  0.00     0.025 A
HETATM   33  C9  UNL     1      24.360  13.770  14.173  1.00  0.00     0.056 A
HETATM   34  C14 UNL     1      23.940  15.080  14.318  1.00  0.00     0.062 A
HETATM   35  C15 UNL     1      23.199  15.509  15.404  1.00  0.00     0.093 A
BRANCH  33  36
HETATM   36  S1  UNL     1      25.283  13.354  12.770  1.00  0.00     0.117 S
HETATM   37  O3  UNL     1      26.686  13.014  13.207  1.00  0.00    -0.229 OA
BRANCH  36  38
HETATM   38  N7  UNL     1      24.697  12.062  12.105  1.00  0.00    -0.345 N
ATOM     39  H72 UNL     1      24.199  12.053  11.215  1.00  0.00     0.167 HD
ATOM     40  H71 UNL     1      24.889  11.249  12.690  1.00  0.00     0.167 HD
ENDBRANCH  36  38
BRANCH  36  41
HETATM   41  N8  UNL     1      25.388  14.640  11.638  1.00  0.00    -0.220 NA
HETATM   42  C10 UNL     1      26.714  14.596  11.043  1.00  0.00     0.132 C
HETATM   43  C11 UNL     1      26.938  15.750  10.093  1.00  0.00     0.183 C
HETATM   44  O4  UNL     1      25.734  16.298   9.652  1.00  0.00    -0.389 OA
HETATM   45  C12 UNL     1      24.906  15.230   9.302  1.00  0.00     0.183 C
HETATM   46  C13 UNL     1      24.432  14.521  10.564  1.00  0.00     0.132 C
ENDBRANCH  36  41
ENDBRANCH  33  36
BRANCH  35  47
HETATM   47  O5  UNL     1      22.772  16.820  15.560  1.00  0.00    -0.358 OA
ATOM     48  H5  UNL     1      22.789  17.205  16.429  1.00  0.00     0.217 HD
ENDBRANCH  35  47
ENDBRANCH  28  30
ENDBRANCH   1  28
BRANCH   2  49
HETATM   49  O2  UNL     1      18.603  15.258  16.612  1.00  0.00    -0.288 OA
ATOM     50  H2  UNL     1      18.247  16.040  17.017  1.00  0.00     0.244 HD
ENDBRANCH   2  49
TORSDOF 13
ENDMDL