MODEL 4
REMARK VINA RESULT: -7.467826170      8.426     12.533
REMARK  12 active torsions:
REMARK  status: ('A' for Active; 'I' for Inactive)
REMARK    1  A    between atoms: C3_3  and  C4_4
REMARK    2  A    between atoms: C4_4  and  N1_5
REMARK    3  A    between atoms: N1_5  and  N2_7
REMARK    4  A    between atoms: N2_7  and  C6_10
REMARK    5  A    between atoms: C6_10  and  C7_11
REMARK    6  A    between atoms: C6_10  and  C9_14
REMARK    7  A    between atoms: C9_14  and  O1_15
REMARK    8  A    between atoms: N5_17  and  O2_19
REMARK    9  A    between atoms: N6_24  and  C13_25
REMARK   10  A    between atoms: C13_25  and  C14_26
REMARK   11  A    between atoms: C17_36  and  N10_37
REMARK   12  A    between atoms: N10_37  and  C18_39
ROOT
HETATM    1  N2  UNL     1      18.516  22.537  17.986  1.00  0.00    -0.215 N
HETATM    2  C5  UNL     1      19.881  23.006  17.830  1.00  0.00     0.201 C
HETATM    3  N3  UNL     1      20.968  23.389  17.686  1.00  0.00    -0.170 NA
ENDROOT
BRANCH   1   4
HETATM    4  N1  UNL     1      18.040  21.814  16.992  1.00  0.00    -0.324 N
ATOM      5  H1  UNL     1      17.834  22.313  16.127  1.00  0.00     0.181 HD
BRANCH   4   6
HETATM    6  C4  UNL     1      17.786  20.443  16.991  1.00  0.00     0.151 C
BRANCH   6   7
HETATM    7  C3  UNL     1      18.929  19.634  16.368  1.00  0.00     0.054 C
HETATM    8  C2  UNL     1      19.401  18.683  17.442  1.00  0.00     0.004 C
HETATM    9  C1  UNL     1      19.879  19.179  18.553  1.00  0.00     0.038 C
HETATM   10  N6  UNL     1      19.321  17.277  17.225  1.00  0.00    -0.377 N
HETATM   11  C12 UNL     1      18.318  16.652  16.385  1.00  0.00     0.123 C
HETATM   12  C11 UNL     1      17.514  17.692  15.682  1.00  0.00     0.021 C
HETATM   13  C10 UNL     1      18.462  18.788  15.233  1.00  0.00     0.014 C
BRANCH  10  14
HETATM   14  C13 UNL     1      20.276  16.407  17.863  1.00  0.00     0.199 C
BRANCH  14  15
HETATM   15  C14 UNL     1      21.284  15.878  16.940  1.00  0.00     0.102 A
HETATM   16  N7  UNL     1      21.665  14.597  17.021  1.00  0.00    -0.327 N
HETATM   17  C15 UNL     1      22.587  14.061  16.199  1.00  0.00     0.161 A
ATOM     18  H7  UNL     1      21.240  14.004  17.733  1.00  0.00     0.169 HD
HETATM   19  N8  UNL     1      23.134  12.839  16.071  1.00  0.00    -0.223 N
HETATM   20  C16 UNL     1      23.156  14.891  15.230  1.00  0.00     0.147 A
HETATM   21  O3  UNL     1      23.985  12.897  15.094  1.00  0.00    -0.155 OA
ATOM     22  H8  UNL     1      22.919  12.019  16.638  1.00  0.00     0.198 HD
HETATM   23  N9  UNL     1      24.013  14.087  14.587  1.00  0.00    -0.234 N
ATOM     24  H9  UNL     1      24.605  14.372  13.807  1.00  0.00     0.197 HD
HETATM   25  C17 UNL     1      22.781  16.213  15.126  1.00  0.00     0.155 A
HETATM   26  N13 UNL     1      21.845  16.636  16.009  1.00  0.00    -0.328 N
ATOM     27  H13 UNL     1      21.549  17.611  15.953  1.00  0.00     0.169 HD
BRANCH  25  28
HETATM   28  N10 UNL     1      23.279  16.996  14.247  1.00  0.00    -0.174 N
ATOM     29  H10 UNL     1      24.074  16.685  13.689  1.00  0.00     0.186 HD
BRANCH  28  30
HETATM   30  C18 UNL     1      22.747  18.284  14.039  1.00  0.00     0.675 C
HETATM   31  N11 UNL     1      21.878  18.473  13.111  1.00  0.00    -0.226 N
HETATM   32  C19 UNL     1      21.264  19.724  12.796  1.00  0.00     0.139 C
ATOM     33  H11 UNL     1      21.605  17.664  12.554  1.00  0.00     0.177 HD
HETATM   34  C20 UNL     1      21.334  20.765  13.869  1.00  0.00     0.040 C
HETATM   35  C21 UNL     1      22.631  20.745  14.643  1.00  0.00     0.139 C
HETATM   36  N12 UNL     1      23.142  19.412  14.820  1.00  0.00    -0.226 N
ATOM     37  H12 UNL     1      23.834  19.262  15.555  1.00  0.00     0.177 HD
ENDBRANCH  28  30
ENDBRANCH  25  28
ENDBRANCH  14  15
ENDBRANCH  10  14
ENDBRANCH   6   7
ENDBRANCH   4   6
ENDBRANCH   1   4
BRANCH   1  38
HETATM   38  C6  UNL     1      17.927  22.946  19.212  1.00  0.00     0.219 C
BRANCH  38  39
HETATM   39  C7  UNL     1      18.726  22.884  20.425  1.00  0.00     0.024 C
HETATM   40  C8  UNL     1      18.663  21.856  21.222  1.00  0.00     0.098 C
HETATM   41  N4  UNL     1      19.455  21.823  22.398  1.00  0.00    -0.115 NA
ENDBRANCH  38  39
BRANCH  38  42
HETATM   42  C9  UNL     1      17.383  24.342  19.001  1.00  0.00     0.165 C
HETATM   43  N5  UNL     1      17.688  25.309  19.762  1.00  0.00    -0.249 N
ATOM     44  H5  UNL     1      18.321  25.135  20.543  1.00  0.00     0.196 HD
BRANCH  42  45
HETATM   45  O1  UNL     1      16.520  24.582  17.939  1.00  0.00    -0.346 OA
ATOM     46  H1  UNL     1      16.088  25.425  17.873  1.00  0.00     0.219 HD
ENDBRANCH  42  45
BRANCH  43  47
HETATM   47  O2  UNL     1      17.206  26.572  19.583  1.00  0.00    -0.288 OA
ATOM     48  H2  UNL     1      16.285  26.756  19.441  1.00  0.00     0.244 HD
ENDBRANCH  43  47
ENDBRANCH  38  42
ENDBRANCH   1  38
TORSDOF 12
ENDMDL