MODEL 3
REMARK VINA RESULT: -7.861243587      0.853      2.006
REMARK  16 active torsions:
REMARK  status: ('A' for Active; 'I' for Inactive)
REMARK    1  A    between atoms: C2_2  and  C3_3
REMARK    2  A    between atoms: C11_11  and  N1_12
REMARK    3  A    between atoms: N1_12  and  C12_13
REMARK    4  A    between atoms: N1_12  and  C14_17
REMARK    5  A    between atoms: C12_13  and  C13_14
REMARK    6  A    between atoms: C13_14  and  O1_15
REMARK    7  A    between atoms: C14_17  and  C15_18
REMARK    8  A    between atoms: C15_18  and  C16_19
REMARK    9  A    between atoms: C16_19  and  N2_20
REMARK   10  A    between atoms: C18_22  and  O2_23
REMARK   11  A    between atoms: C19_25  and  O3_26
REMARK   12  A    between atoms: C20_28  and  O4_29
REMARK   13  A    between atoms: C21_31  and  C22_32
REMARK   14  A    between atoms: C22_32  and  O5_33
REMARK   15  A    between atoms: C23_35  and  O6_36
REMARK   16  A    between atoms: C24_38  and  O7_39
ROOT
HETATM    1  N1  UNL     1      -9.992  77.293 119.471  1.00  0.00    -0.376 N
ENDROOT
BRANCH   1   2
HETATM    2  C11 UNL     1     -10.081  77.361 118.062  1.00  0.00     0.067 A
HETATM    3  C10 UNL     1     -11.355  77.355 117.481  1.00  0.00     0.040 A
HETATM    4  C9  UNL     1     -11.490  77.420 116.134  1.00  0.00    -0.042 A
HETATM    5  C5  UNL     1     -12.718  77.433 115.291  1.00  0.00     0.021 C
HETATM    6  C8  UNL     1     -10.406  77.495 115.288  1.00  0.00    -0.011 A
HETATM    7  C4  UNL     1     -12.765  76.137 114.544  1.00  0.00     0.018 C
HETATM    8  C6  UNL     1     -12.226  78.373 114.172  1.00  0.00     0.019 C
HETATM    9  C3  UNL     1     -11.554  76.217 113.605  1.00  0.00     0.017 C
HETATM   10  C7  UNL     1     -10.953  77.551 113.902  1.00  0.00     0.030 C
HETATM   11  C24 UNL     1      -9.165  77.502 115.849  1.00  0.00     0.108 A
HETATM   12  C23 UNL     1      -9.014  77.435 117.229  1.00  0.00     0.126 A
BRANCH   9  13
HETATM   13  C2  UNL     1     -11.946  76.044 112.184  1.00  0.00    -0.032 C
HETATM   14  C1  UNL     1     -13.173  75.761 111.784  1.00  0.00     0.007 C
ENDBRANCH   9  13
BRANCH  11  15
HETATM   15  O7  UNL     1      -8.050  77.576 115.011  1.00  0.00    -0.357 OA
ATOM     16  H7  UNL     1      -8.153  77.956 114.146  1.00  0.00     0.217 HD
ENDBRANCH  11  15
BRANCH  12  17
HETATM   17  O6  UNL     1      -7.699  77.450 117.686  1.00  0.00    -0.356 OA
ATOM     18  H6  UNL     1      -7.251  78.247 117.941  1.00  0.00     0.218 HD
ENDBRANCH  12  17
ENDBRANCH   1   2
BRANCH   1  19
HETATM   19  C12 UNL     1     -10.834  78.080 120.308  1.00  0.00     0.149 C
BRANCH  19  20
HETATM   20  C13 UNL     1     -11.871  77.340 121.084  1.00  0.00     0.183 C
BRANCH  20  21
HETATM   21  O1  UNL     1     -12.009  78.004 122.324  1.00  0.00    -0.399 OA
ATOM     22  H1  UNL     1     -12.283  77.351 122.958  1.00  0.00     0.209 HD
ENDBRANCH  20  21
ENDBRANCH  19  20
ENDBRANCH   1  19
BRANCH   1  23
HETATM   23  C14 UNL     1      -9.060  76.389 120.078  1.00  0.00     0.125 C
BRANCH  23  24
HETATM   24  C15 UNL     1      -9.393  74.951 120.181  1.00  0.00     0.040 C
BRANCH  24  25
HETATM   25  C16 UNL     1      -8.504  74.004 119.463  1.00  0.00     0.124 C
BRANCH  25  26
HETATM   26  N2  UNL     1      -9.228  72.916 118.829  1.00  0.00    -0.381 N
HETATM   27  C17 UNL     1      -8.631  72.571 117.606  1.00  0.00     0.093 C
HETATM   28  C18 UNL     1      -8.398  71.139 117.302  1.00  0.00     0.187 C
HETATM   29  C19 UNL     1      -9.079  70.142 118.166  1.00  0.00     0.182 C
HETATM   30  C20 UNL     1      -9.022  70.587 119.596  1.00  0.00     0.174 C
HETATM   31  C21 UNL     1      -9.697  71.913 119.694  1.00  0.00     0.138 C
BRANCH  28  32
HETATM   32  O2  UNL     1      -7.009  70.890 117.417  1.00  0.00    -0.388 OA
ATOM     33  H2  UNL     1      -6.565  71.395 116.746  1.00  0.00     0.210 HD
ENDBRANCH  28  32
BRANCH  29  34
HETATM   34  O3  UNL     1      -8.468  68.875 118.032  1.00  0.00    -0.390 OA
ATOM     35  H3  UNL     1      -7.949  68.841 117.238  1.00  0.00     0.210 HD
ENDBRANCH  29  34
BRANCH  30  36
HETATM   36  O4  UNL     1      -9.666  69.680 120.436  1.00  0.00    -0.391 OA
ATOM     37  H4  UNL     1     -10.240  70.125 121.049  1.00  0.00     0.210 HD
ENDBRANCH  30  36
BRANCH  31  38
HETATM   38  C22 UNL     1     -11.192  71.734 119.420  1.00  0.00     0.192 C
BRANCH  38  39
HETATM   39  O5  UNL     1     -11.967  71.862 120.544  1.00  0.00    -0.399 OA
ATOM     40  H5  UNL     1     -11.715  71.268 121.241  1.00  0.00     0.209 HD
ENDBRANCH  38  39
ENDBRANCH  31  38
ENDBRANCH  25  26
ENDBRANCH  24  25
ENDBRANCH  23  24
ENDBRANCH   1  23
TORSDOF 16
ENDMDL