MODEL 1
REMARK VINA RESULT: -6.320279813      0.000      0.000
REMARK  16 active torsions:
REMARK  status: ('A' for Active; 'I' for Inactive)
REMARK    1  A    between atoms: S1_2  and  C2_3
REMARK    2  A    between atoms: C2_3  and  C3_4
REMARK    3  A    between atoms: C3_4  and  C4_5
REMARK    4  A    between atoms: C4_5  and  C5_6
REMARK    5  A    between atoms: C5_6  and  O1_7
REMARK    6  A    between atoms: C5_6  and  C19_29
REMARK    7  A    between atoms: O1_7  and  C6_8
REMARK    8  A    between atoms: C10_12  and  O2_13
REMARK    9  A    between atoms: C16_20  and  O3_21
REMARK   10  A    between atoms: C16_20  and  C17_23
REMARK   11  A    between atoms: C18_26  and  O6_27
REMARK   12  A    between atoms: C19_29  and  O7_30
REMARK   13  A    between atoms: C19_29  and  C20_32
REMARK   14  A    between atoms: C20_32  and  O8_33
REMARK   15  A    between atoms: C20_32  and  C21_35
REMARK   16  A    between atoms: C21_35  and  O9_36
ROOT
HETATM    1  C6  UNL     1     -11.861  76.572 120.585  1.00  0.00     0.133 C
HETATM    2  C7  UNL     1     -11.540  75.314 119.872  1.00  0.00     0.016 C
HETATM    3  C8  UNL     1     -10.271  74.764 120.529  1.00  0.00     0.010 C
HETATM    4  C9  UNL     1      -9.306  75.815 120.920  1.00  0.00     0.041 C
HETATM    5  C10 UNL     1      -9.476  77.147 120.242  1.00  0.00     0.093 C
HETATM    6  C11 UNL     1     -10.874  77.689 120.314  1.00  0.00     0.052 C
HETATM    7  C12 UNL     1     -11.231  78.542 119.126  1.00  0.00     0.011 C
HETATM    8  C13 UNL     1     -11.650  77.782 117.933  1.00  0.00     0.009 C
HETATM    9  C14 UNL     1     -10.911  76.502 117.698  1.00  0.00     0.034 C
HETATM   10  C15 UNL     1     -11.472  75.330 118.404  1.00  0.00     0.015 C
HETATM   11  C16 UNL     1      -9.414  76.611 117.741  1.00  0.00     0.178 C
HETATM   12  C18 UNL     1      -8.813  77.228 118.912  1.00  0.00     0.198 C
ENDROOT
BRANCH   1  13
HETATM   13  O1  UNL     1     -13.168  76.905 120.474  1.00  0.00    -0.377 OA
BRANCH  13  14
HETATM   14  C5  UNL     1     -13.856  77.309 121.566  1.00  0.00     0.153 C
BRANCH  14  15
HETATM   15  C4  UNL     1     -13.953  78.808 121.554  1.00  0.00     0.035 C
BRANCH  15  16
HETATM   16  C3  UNL     1     -14.952  79.418 120.672  1.00  0.00     0.013 C
BRANCH  16  17
HETATM   17  C2  UNL     1     -15.522  80.750 120.989  1.00  0.00     0.073 C
BRANCH  17  18
HETATM   18  S1  UNL     1     -15.034  81.168 122.735  1.00  0.00    -0.173 SA
HETATM   19  C1  UNL     1     -15.422  82.925 122.970  1.00  0.00     0.089 C
ENDBRANCH  17  18
ENDBRANCH  16  17
ENDBRANCH  15  16
ENDBRANCH  14  15
BRANCH  14  20
HETATM   20  C19 UNL     1     -15.129  76.701 121.970  1.00  0.00     0.177 C
BRANCH  20  21
HETATM   21  O7  UNL     1     -14.959  76.288 123.335  1.00  0.00    -0.390 OA
ATOM     22  H7  UNL     1     -15.653  75.663 123.510  1.00  0.00     0.210 HD
ENDBRANCH  20  21
BRANCH  20  23
HETATM   23  C20 UNL     1     -15.433  75.373 121.283  1.00  0.00     0.172 C
BRANCH  23  24
HETATM   24  O8  UNL     1     -14.430  74.432 121.466  1.00  0.00    -0.391 OA
ATOM     25  H8  UNL     1     -14.684  73.563 121.178  1.00  0.00     0.210 HD
ENDBRANCH  23  24
BRANCH  23  26
HETATM   26  C21 UNL     1     -16.689  74.817 121.919  1.00  0.00     0.198 C
BRANCH  26  27
HETATM   27  O9  UNL     1     -16.452  73.897 122.926  1.00  0.00    -0.398 OA
ATOM     28  H9  UNL     1     -17.153  73.832 123.564  1.00  0.00     0.209 HD
ENDBRANCH  26  27
ENDBRANCH  23  26
ENDBRANCH  20  23
ENDBRANCH  14  20
ENDBRANCH  13  14
ENDBRANCH   1  13
BRANCH   5  29
HETATM   29  O2  UNL     1      -8.693  78.034 121.044  1.00  0.00    -0.387 OA
ATOM     30  H2  UNL     1      -8.837  78.883 120.643  1.00  0.00     0.210 HD
ENDBRANCH   5  29
BRANCH  12  31
HETATM   31  O6  UNL     1      -7.519  76.670 119.099  1.00  0.00    -0.389 OA
ATOM     32  H6  UNL     1      -7.399  76.061 118.379  1.00  0.00     0.210 HD
ENDBRANCH  12  31
BRANCH  11  33
HETATM   33  O3  UNL     1      -8.944  75.296 117.538  1.00  0.00    -0.376 OA
ATOM     34  H3  UNL     1      -8.649  75.275 116.636  1.00  0.00     0.211 HD
ENDBRANCH  11  33
BRANCH  11  35
HETATM   35  C17 UNL     1      -8.995  77.368 116.534  1.00  0.00     0.212 C
HETATM   36  O4  UNL     1      -7.946  78.067 116.469  1.00  0.00    -0.646 OA
HETATM   37  O5  UNL     1      -9.767  77.338 115.387  1.00  0.00    -0.646 OA
ENDBRANCH  11  35
TORSDOF 16
ENDMDL