MODEL 4
REMARK VINA RESULT: -5.828698318      2.515      3.698
REMARK  13 active torsions:
REMARK  status: ('A' for Active; 'I' for Inactive)
REMARK    1  A    between atoms: C2_2  and  C3_3
REMARK    2  A    between atoms: C3_3  and  S1_4
REMARK    3  A    between atoms: S1_4  and  C4_5
REMARK    4  A    between atoms: C4_5  and  C5_6
REMARK    5  A    between atoms: C5_6  and  N1_7
REMARK       I    between atoms: N1_7  and  C6_9
REMARK    6  A    between atoms: C8_13  and  N3_14
REMARK    7  A    between atoms: C10_19  and  N4_20
REMARK    8  A    between atoms: C11_24  and  C12_25
REMARK    9  A    between atoms: C12_25  and  S2_26
REMARK   10  A    between atoms: S2_26  and  C13_27
REMARK   11  A    between atoms: C16_31  and  O3_32
REMARK   12  A    between atoms: C17_34  and  O4_35
REMARK   13  A    between atoms: C18_37  and  O5_38
ROOT
HETATM    1  C5  UNL     1     -11.524  75.955 119.617  1.00  0.00     0.051 C
HETATM    2  C7  UNL     1     -10.385  76.769 119.011  1.00  0.00     0.065 C
HETATM    3  C8  UNL     1      -9.054  76.620 119.630  1.00  0.00     0.188 C
HETATM    4  C9  UNL     1      -8.634  75.197 119.903  1.00  0.00     0.066 C
HETATM    5  C10 UNL     1      -9.834  74.557 120.622  1.00  0.00     0.192 C
HETATM    6  C11 UNL     1     -10.937  74.552 119.631  1.00  0.00     0.054 C
ENDROOT
BRANCH   6   7
HETATM    7  C12 UNL     1     -11.896  73.456 119.792  1.00  0.00     0.085 C
BRANCH   7   8
HETATM    8  S2  UNL     1     -11.141  71.907 119.143  1.00  0.00    -0.134 SA
BRANCH   8   9
HETATM    9  C13 UNL     1     -10.259  72.237 117.593  1.00  0.00     0.214 C
HETATM   10  O2  UNL     1     -10.740  71.548 116.516  1.00  0.00    -0.365 OA
HETATM   11  C14 UNL     1     -10.389  70.242 116.386  1.00  0.00     0.150 C
HETATM   12  C15 UNL     1     -10.244  69.941 114.888  1.00  0.00     0.042 C
HETATM   13  C16 UNL     1      -9.110  69.833 117.045  1.00  0.00     0.178 C
HETATM   14  C17 UNL     1      -8.142  70.998 117.019  1.00  0.00     0.181 C
HETATM   15  C18 UNL     1      -8.777  72.099 117.836  1.00  0.00     0.188 C
BRANCH  13  16
HETATM   16  O3  UNL     1      -8.496  68.748 116.427  1.00  0.00    -0.390 OA
ATOM     17  H3  UNL     1      -8.086  68.150 117.041  1.00  0.00     0.210 HD
ENDBRANCH  13  16
BRANCH  14  18
HETATM   18  O4  UNL     1      -7.949  71.390 115.697  1.00  0.00    -0.390 OA
ATOM     19  H4  UNL     1      -7.095  71.088 115.411  1.00  0.00     0.210 HD
ENDBRANCH  14  18
BRANCH  15  20
HETATM   20  O5  UNL     1      -8.067  73.273 117.598  1.00  0.00    -0.389 OA
ATOM     21  H5  UNL     1      -7.361  73.418 118.218  1.00  0.00     0.210 HD
ENDBRANCH  15  20
ENDBRANCH   8   9
ENDBRANCH   7   8
ENDBRANCH   6   7
BRANCH   1  22
HETATM   22  C4  UNL     1     -12.617  76.132 118.584  1.00  0.00     0.105 C
BRANCH  22  23
HETATM   23  S1  UNL     1     -12.347  77.001 117.157  1.00  0.00    -0.167 SA
BRANCH  23  24
HETATM   24  C3  UNL     1     -11.737  76.487 115.645  1.00  0.00     0.073 C
BRANCH  24  25
HETATM   25  C2  UNL     1     -10.774  77.398 114.935  1.00  0.00     0.006 C
HETATM   26  C1  UNL     1     -11.338  78.600 114.287  1.00  0.00     0.006 C
ENDBRANCH  24  25
ENDBRANCH  23  24
ENDBRANCH  22  23
ENDBRANCH   1  22
BRANCH   1  27
HETATM   27  N1  UNL     1     -11.807  76.452 120.912  1.00  0.00    -0.335 N
HETATM   28  C6  UNL     1     -12.435  77.684 121.212  1.00  0.00     0.329 C
HETATM   29  N2  UNL     1     -12.669  78.073 122.586  1.00  0.00    -0.040 NA
HETATM   30  O1  UNL     1     -12.840  78.533 120.390  1.00  0.00    -0.251 OA
ATOM     31  H1  UNL     1     -11.534  75.867 121.702  1.00  0.00     0.164 HD
ENDBRANCH   1  27
BRANCH   5  32
HETATM   32  N4  UNL     1      -9.406  73.349 121.187  1.00  0.00    -0.074 N
ATOM     33  H43 UNL     1      -8.743  72.849 120.595  1.00  0.00     0.274 HD
ATOM     34  H42 UNL     1      -8.794  73.485 121.992  1.00  0.00     0.274 HD
ATOM     35  H41 UNL     1     -10.233  72.795 121.409  1.00  0.00     0.274 HD
ENDBRANCH   5  32
BRANCH   3  36
HETATM   36  N3  UNL     1      -8.776  77.400 120.787  1.00  0.00    -0.075 N
ATOM     37  H33 UNL     1      -8.041  78.073 120.572  1.00  0.00     0.274 HD
ATOM     38  H32 UNL     1      -9.562  78.027 120.967  1.00  0.00     0.274 HD
ATOM     39  H31 UNL     1      -8.539  76.902 121.644  1.00  0.00     0.274 HD
ENDBRANCH   3  36
TORSDOF 13
ENDMDL