MODEL 5
REMARK VINA RESULT: -6.218153101      3.065      8.423
REMARK  16 active torsions:
REMARK  status: ('A' for Active; 'I' for Inactive)
REMARK    1  A    between atoms: C4_5  and  O2_6
REMARK    2  A    between atoms: O2_6  and  C5_7
REMARK    3  A    between atoms: C7_9  and  C8_10
REMARK    4  A    between atoms: C8_10  and  N1_11
REMARK    5  A    between atoms: N1_11  and  C9_13
REMARK    6  A    between atoms: C9_13  and  C10_14
REMARK    7  A    between atoms: C10_14  and  C11_15
REMARK    8  A    between atoms: C11_15  and  C12_16
REMARK    9  A    between atoms: C12_16  and  C13_17
REMARK   10  A    between atoms: C13_17  and  C14_18
REMARK   11  A    between atoms: C14_18  and  N2_19
REMARK   12  A    between atoms: C15_23  and  O3_24
REMARK   13  A    between atoms: C16_26  and  O4_27
REMARK   14  A    between atoms: C17_29  and  N3_30
REMARK   15  A    between atoms: C18_34  and  O5_35
REMARK   16  A    between atoms: C23_41  and  N4_42
ROOT
HETATM    1  C5  UNL     1     -12.529  76.149 120.524  1.00  0.00     0.158 C
HETATM    2  C6  UNL     1     -13.944  76.249 121.078  1.00  0.00     0.043 C
HETATM    3  C7  UNL     1     -14.607  77.559 120.871  1.00  0.00     0.037 C
HETATM    4  C15 UNL     1     -13.789  78.725 121.380  1.00  0.00     0.154 C
HETATM    5  C16 UNL     1     -12.357  78.318 121.642  1.00  0.00     0.180 C
HETATM    6  C17 UNL     1     -11.796  77.428 120.554  1.00  0.00     0.243 C
ENDROOT
BRANCH   1   7
HETATM    7  O2  UNL     1     -12.695  75.535 119.286  1.00  0.00    -0.351 OA
BRANCH   7   8
HETATM    8  C4  UNL     1     -11.815  74.542 119.019  1.00  0.00     0.296 C
HETATM    9  O1  UNL     1     -10.827  74.472 120.067  1.00  0.00    -0.346 OA
HETATM   10  C2  UNL     1      -9.815  73.646 119.665  1.00  0.00     0.085 C
HETATM   11  C1  UNL     1      -8.570  74.486 119.331  1.00  0.00     0.048 C
HETATM   12  C3  UNL     1      -9.363  72.728 120.810  1.00  0.00     0.048 C
HETATM   13  C23 UNL     1     -10.072  72.775 118.490  1.00  0.00     0.224 C
HETATM   14  C22 UNL     1     -11.461  72.271 118.322  1.00  0.00     0.058 C
HETATM   15  C18 UNL     1     -12.446  73.202 119.027  1.00  0.00     0.113 C
HETATM   16  C21 UNL     1     -11.906  72.419 116.862  1.00  0.00     0.010 C
HETATM   17  C19 UNL     1     -13.700  73.152 118.241  1.00  0.00     0.043 C
HETATM   18  C20 UNL     1     -13.400  72.468 116.950  1.00  0.00     0.004 C
BRANCH  13  19
HETATM   19  N4  UNL     1      -9.196  71.595 118.586  1.00  0.00    -0.072 N
ATOM     20  H43 UNL     1      -8.374  71.763 119.166  1.00  0.00     0.274 HD
ATOM     21  H42 UNL     1      -9.607  70.846 119.143  1.00  0.00     0.274 HD
ATOM     22  H41 UNL     1      -8.956  71.295 117.641  1.00  0.00     0.274 HD
ENDBRANCH  13  19
BRANCH  15  23
HETATM   23  O5  UNL     1     -12.630  72.778 120.357  1.00  0.00    -0.384 OA
ATOM     24  H5  UNL     1     -13.062  71.932 120.363  1.00  0.00     0.210 HD
ENDBRANCH  15  23
ENDBRANCH   7   8
ENDBRANCH   1   7
BRANCH   6  25
HETATM   25  N3  UNL     1     -10.402  77.235 120.914  1.00  0.00    -0.070 N
ATOM     26  H33 UNL     1     -10.000  78.082 121.317  1.00  0.00     0.274 HD
ATOM     27  H32 UNL     1     -10.308  76.617 121.721  1.00  0.00     0.274 HD
ATOM     28  H31 UNL     1      -9.853  76.901 120.122  1.00  0.00     0.274 HD
ENDBRANCH   6  25
BRANCH   3  29
HETATM   29  C8  UNL     1     -15.002  77.829 119.443  1.00  0.00     0.121 C
BRANCH  29  30
HETATM   30  N1  UNL     1     -14.628  79.115 118.950  1.00  0.00    -0.421 N
ATOM     31  H1  UNL     1     -13.682  79.485 119.043  1.00  0.00     0.153 HD
BRANCH  30  32
HETATM   32  C9  UNL     1     -15.681  79.846 118.317  1.00  0.00     0.113 C
BRANCH  32  33
HETATM   33  C10 UNL     1     -16.568  80.446 119.386  1.00  0.00     0.019 C
BRANCH  33  34
HETATM   34  C11 UNL     1     -16.625  81.945 119.311  1.00  0.00     0.002 C
BRANCH  34  35
HETATM   35  C12 UNL     1     -15.751  82.648 120.299  1.00  0.00     0.002 C
BRANCH  35  36
HETATM   36  C13 UNL     1     -16.194  82.205 121.680  1.00  0.00     0.027 C
BRANCH  36  37
HETATM   37  C14 UNL     1     -15.411  82.901 122.770  1.00  0.00     0.229 C
BRANCH  37  38
HETATM   38  N2  UNL     1     -14.297  82.039 123.148  1.00  0.00    -0.079 N
ATOM     39  H23 UNL     1     -13.391  82.428 122.885  1.00  0.00     0.274 HD
ATOM     40  H22 UNL     1     -14.146  82.011 124.157  1.00  0.00     0.274 HD
ATOM     41  H21 UNL     1     -14.460  81.115 122.749  1.00  0.00     0.274 HD
ENDBRANCH  37  38
ENDBRANCH  36  37
ENDBRANCH  35  36
ENDBRANCH  34  35
ENDBRANCH  33  34
ENDBRANCH  32  33
ENDBRANCH  30  32
ENDBRANCH  29  30
ENDBRANCH   3  29
BRANCH   5  42
HETATM   42  O4  UNL     1     -12.235  77.705 122.863  1.00  0.00    -0.391 OA
ATOM     43  H4  UNL     1     -12.273  78.339 123.569  1.00  0.00     0.210 HD
ENDBRANCH   5  42
BRANCH   4  44
HETATM   44  O3  UNL     1     -14.355  79.254 122.531  1.00  0.00    -0.393 OA
ATOM     45  H3  UNL     1     -13.705  79.328 123.220  1.00  0.00     0.210 HD
ENDBRANCH   4  44
TORSDOF 16
ENDMDL