MODEL 1
REMARK VINA RESULT: -6.940817335      0.000      0.000
REMARK  16 active torsions:
REMARK  status: ('A' for Active; 'I' for Inactive)
REMARK    1  A    between atoms: C2_2  and  C4_4
REMARK    2  A    between atoms: C4_4  and  O1_5
REMARK    3  A    between atoms: C4_4  and  C5_7
REMARK    4  A    between atoms: C5_7  and  O2_8
REMARK    5  A    between atoms: C5_7  and  C6_10
REMARK    6  A    between atoms: C6_10  and  C7_11
REMARK    7  A    between atoms: C6_10  and  C8_14
REMARK    8  A    between atoms: C7_11  and  O3_12
REMARK    9  A    between atoms: C8_14  and  C9_15
REMARK   10  A    between atoms: C9_15  and  C10_16
REMARK   11  A    between atoms: C10_16  and  O4_17
REMARK   12  A    between atoms: C10_16  and  C11_19
REMARK   13  A    between atoms: C11_19  and  C12_20
REMARK   14  A    between atoms: C18_27  and  O6_28
REMARK   15  A    between atoms: C19_30  and  O7_32
REMARK   16  A    between atoms: C21_34  and  O8_35
ROOT
HETATM    1  C12 UNL     1     -13.721  77.546 120.650  1.00  0.00     0.139 C
HETATM    2  C13 UNL     1     -14.870  76.856 121.380  1.00  0.00     0.059 C
HETATM    3  O5  UNL     1     -13.299  76.518 119.800  1.00  0.00    -0.355 OA
HETATM    4  C14 UNL     1     -12.012  76.300 119.567  1.00  0.00     0.093 C
HETATM    5  C15 UNL     1     -11.859  74.757 119.666  1.00  0.00     0.049 C
HETATM    6  C16 UNL     1     -11.766  76.564 118.075  1.00  0.00     0.043 C
HETATM    7  C17 UNL     1     -10.350  76.377 117.669  1.00  0.00     0.038 C
HETATM    8  C18 UNL     1      -9.500  77.346 118.464  1.00  0.00     0.155 C
HETATM    9  C19 UNL     1      -9.600  76.959 119.902  1.00  0.00     0.114 C
HETATM   10  C20 UNL     1      -8.772  75.697 120.118  1.00  0.00     0.052 C
HETATM   11  C21 UNL     1     -10.970  76.846 120.454  1.00  0.00     0.128 C
HETATM   12  C22 UNL     1     -11.340  78.201 121.081  1.00  0.00     0.126 C
HETATM   13  C23 UNL     1     -12.713  77.883 121.648  1.00  0.00     0.168 C
HETATM   14  O9  UNL     1     -12.809  77.943 122.839  1.00  0.00    -0.294 OA
ENDROOT
BRANCH   1  15
HETATM   15  C11 UNL     1     -14.112  78.672 119.809  1.00  0.00     0.050 C
BRANCH  15  16
HETATM   16  C10 UNL     1     -15.124  78.634 118.769  1.00  0.00     0.043 C
BRANCH  16  17
HETATM   17  C9  UNL     1     -16.519  79.137 119.090  1.00  0.00     0.065 C
BRANCH  17  18
HETATM   18  C8  UNL     1     -16.764  80.384 118.310  1.00  0.00     0.016 C
BRANCH  18  19
HETATM   19  C6  UNL     1     -17.124  81.615 119.096  1.00  0.00     0.041 C
BRANCH  19  20
HETATM   20  C5  UNL     1     -16.220  82.013 120.173  1.00  0.00     0.157 C
BRANCH  20  21
HETATM   21  C4  UNL     1     -16.624  82.082 121.576  1.00  0.00     0.175 C
BRANCH  21  22
HETATM   22  C2  UNL     1     -15.619  81.966 122.637  1.00  0.00    -0.062 C
HETATM   23  C1  UNL     1     -15.332  83.031 123.392  1.00  0.00     0.016 C
HETATM   24  C3  UNL     1     -14.850  80.723 122.897  1.00  0.00     0.045 C
ENDBRANCH  21  22
BRANCH  21  25
HETATM   25  O1  UNL     1     -17.146  83.420 121.751  1.00  0.00    -0.389 OA
ATOM     26  H1  UNL     1     -18.054  83.275 121.990  1.00  0.00     0.210 HD
ENDBRANCH  21  25
ENDBRANCH  20  21
BRANCH  20  27
HETATM   27  O2  UNL     1     -15.654  83.257 119.812  1.00  0.00    -0.392 OA
ATOM     28  H2  UNL     1     -16.340  83.915 119.834  1.00  0.00     0.210 HD
ENDBRANCH  20  27
ENDBRANCH  19  20
BRANCH  19  29
HETATM   29  C7  UNL     1     -17.447  82.748 118.108  1.00  0.00     0.171 C
BRANCH  29  30
HETATM   30  O3  UNL     1     -18.256  83.634 118.875  1.00  0.00    -0.400 OA
ATOM     31  H3  UNL     1     -18.253  84.434 118.363  1.00  0.00     0.209 HD
ENDBRANCH  29  30
ENDBRANCH  19  29
ENDBRANCH  18  19
ENDBRANCH  17  18
ENDBRANCH  16  17
BRANCH  16  32
HETATM   32  O4  UNL     1     -15.159  77.501 117.955  1.00  0.00    -0.365 OA
ATOM     33  H4  UNL     1     -15.699  77.638 117.185  1.00  0.00     0.217 HD
ENDBRANCH  16  32
ENDBRANCH  15  16
ENDBRANCH   1  15
BRANCH  11  34
HETATM   34  O8  UNL     1     -10.878  75.979 121.575  1.00  0.00    -0.383 OA
ATOM     35  H8  UNL     1     -10.220  75.325 121.369  1.00  0.00     0.210 HD
ENDBRANCH  11  34
BRANCH   9  36
HETATM   36  O7  UNL     1      -8.924  77.963 120.636  1.00  0.00    -0.384 OA
ATOM     37  H7  UNL     1      -9.528  78.257 121.308  1.00  0.00     0.210 HD
ENDBRANCH   9  36
BRANCH   8  38
HETATM   38  O6  UNL     1      -8.152  77.240 118.090  1.00  0.00    -0.392 OA
ATOM     39  H6  UNL     1      -7.595  77.684 118.718  1.00  0.00     0.210 HD
ENDBRANCH   8  38
TORSDOF 16
ENDMDL