MODEL 4
REMARK VINA RESULT: -6.794958929      2.453      5.322
REMARK  16 active torsions:
REMARK  status: ('A' for Active; 'I' for Inactive)
REMARK    1  A    between atoms: C2_2  and  C4_4
REMARK    2  A    between atoms: C4_4  and  O1_5
REMARK    3  A    between atoms: C4_4  and  O2_7
REMARK    4  A    between atoms: O2_7  and  C5_8
REMARK    5  A    between atoms: C6_9  and  O3_10
REMARK    6  A    between atoms: C7_12  and  O4_13
REMARK    7  A    between atoms: C8_15  and  C9_16
REMARK    8  A    between atoms: C9_16  and  O5_17
REMARK    9  A    between atoms: C9_16  and  C10_19
REMARK   10  A    between atoms: C15_24  and  N1_25
REMARK       I    between atoms: N1_25  and  C16_27
REMARK   11  A    between atoms: C16_27  and  O7_29
REMARK   12  A    between atoms: O7_29  and  C17_30
REMARK   13  A    between atoms: C17_30  and  C18_31
REMARK   14  A    between atoms: C18_31  and  C19_32
REMARK   15  A    between atoms: C21_34  and  O8_35
REMARK   16  A    between atoms: C22_37  and  O9_38
ROOT
HETATM    1  C5  UNL     1      -9.946  70.048 117.863  1.00  0.00     0.187 C
HETATM    2  C6  UNL     1     -10.361  71.288 117.168  1.00  0.00     0.179 C
HETATM    3  C7  UNL     1      -9.828  72.572 117.812  1.00  0.00     0.158 C
HETATM    4  C8  UNL     1     -10.424  72.662 119.162  1.00  0.00     0.077 C
HETATM    5  C21 UNL     1     -10.425  71.322 119.884  1.00  0.00     0.158 C
HETATM    6  C22 UNL     1      -9.428  70.358 119.268  1.00  0.00     0.179 C
ENDROOT
BRANCH   4   7
HETATM    7  C9  UNL     1      -9.981  73.766 120.061  1.00  0.00     0.133 C
BRANCH   7   8
HETATM    8  O5  UNL     1      -8.736  73.434 120.601  1.00  0.00    -0.395 OA
ATOM      9  H5  UNL     1      -8.064  73.937 120.156  1.00  0.00     0.210 HD
ENDBRANCH   7   8
BRANCH   7  10
HETATM   10  C10 UNL     1     -10.094  75.175 119.569  1.00  0.00     0.038 C
HETATM   11  C11 UNL     1      -9.149  76.113 120.170  1.00  0.00     0.009 C
HETATM   12  C12 UNL     1      -9.636  77.545 120.343  1.00  0.00     0.001 C
HETATM   13  C13 UNL     1     -10.463  77.834 119.107  1.00  0.00     0.002 C
HETATM   14  C14 UNL     1     -11.749  77.070 119.379  1.00  0.00     0.026 C
HETATM   15  C15 UNL     1     -11.537  75.607 119.437  1.00  0.00     0.093 C
BRANCH  15  16
HETATM   16  N1  UNL     1     -12.391  75.065 120.476  1.00  0.00    -0.332 N
HETATM   17  C16 UNL     1     -13.706  74.580 120.210  1.00  0.00     0.360 C
HETATM   18  O6  UNL     1     -14.136  74.632 119.007  1.00  0.00    -0.239 OA
ATOM     19  H1  UNL     1     -12.039  75.029 121.432  1.00  0.00     0.165 HD
BRANCH  17  20
HETATM   20  O7  UNL     1     -14.551  74.054 121.163  1.00  0.00    -0.304 OA
BRANCH  20  21
HETATM   21  C17 UNL     1     -15.907  74.356 121.308  1.00  0.00     0.180 C
BRANCH  21  22
HETATM   22  C18 UNL     1     -16.312  74.742 122.707  1.00  0.00     0.026 C
BRANCH  22  23
HETATM   23  C19 UNL     1     -17.709  74.358 123.071  1.00  0.00    -0.002 C
HETATM   24  C20 UNL     1     -17.683  73.209 124.044  1.00  0.00     0.005 C
ENDBRANCH  22  23
ENDBRANCH  21  22
ENDBRANCH  20  21
ENDBRANCH  17  20
ENDBRANCH  15  16
ENDBRANCH   7  10
ENDBRANCH   4   7
BRANCH   3  25
HETATM   25  O4  UNL     1      -8.433  72.581 117.764  1.00  0.00    -0.392 OA
ATOM     26  H4  UNL     1      -8.115  73.475 117.817  1.00  0.00     0.210 HD
ENDBRANCH   3  25
BRANCH   5  27
HETATM   27  O8  UNL     1     -10.186  71.468 121.239  1.00  0.00    -0.392 OA
ATOM     28  H8  UNL     1      -9.260  71.414 121.442  1.00  0.00     0.210 HD
ENDBRANCH   5  27
BRANCH   2  29
HETATM   29  O3  UNL     1      -9.949  71.271 115.836  1.00  0.00    -0.390 OA
ATOM     30  H3  UNL     1      -9.019  71.091 115.773  1.00  0.00     0.210 HD
ENDBRANCH   2  29
BRANCH   6  31
HETATM   31  O9  UNL     1      -9.520  69.191 120.034  1.00  0.00    -0.390 OA
ATOM     32  H9  UNL     1     -10.038  69.383 120.806  1.00  0.00     0.210 HD
ENDBRANCH   6  31
BRANCH   1  33
HETATM   33  O2  UNL     1      -8.972  69.331 117.176  1.00  0.00    -0.347 OA
BRANCH  33  34
HETATM   34  C4  UNL     1      -9.365  68.026 116.875  1.00  0.00     0.286 C
BRANCH  34  35
HETATM   35  C2  UNL     1      -8.994  67.595 115.511  1.00  0.00    -0.039 C
HETATM   36  C1  UNL     1      -8.283  66.498 115.283  1.00  0.00     0.019 C
HETATM   37  C3  UNL     1      -9.419  68.400 114.332  1.00  0.00     0.048 C
ENDBRANCH  34  35
BRANCH  34  38
HETATM   38  O1  UNL     1      -8.624  67.204 117.758  1.00  0.00    -0.367 OA
ATOM     39  H1  UNL     1      -8.656  66.330 117.389  1.00  0.00     0.213 HD
ENDBRANCH  34  38
ENDBRANCH  33  34
ENDBRANCH   1  33
TORSDOF 16
ENDMDL