MODEL 2
REMARK VINA RESULT: -6.802695017      1.346      2.202
REMARK  16 active torsions:
REMARK  status: ('A' for Active; 'I' for Inactive)
REMARK    1  A    between atoms: C2_2  and  C3_3
REMARK    2  A    between atoms: C3_3  and  C4_4
REMARK    3  A    between atoms: C4_4  and  C5_5
REMARK    4  A    between atoms: C5_5  and  C6_6
REMARK    5  A    between atoms: C6_6  and  C7_7
REMARK    6  A    between atoms: C10_12  and  C11_13
REMARK    7  A    between atoms: C12_15  and  C13_16
REMARK    8  A    between atoms: C13_16  and  O2_17
REMARK    9  A    between atoms: C13_16  and  C14_19
REMARK   10  A    between atoms: C14_19  and  O3_20
REMARK   11  A    between atoms: O3_20  and  C15_21
REMARK   12  A    between atoms: C18_26  and  O4_27
REMARK   13  A    between atoms: C19_29  and  O5_30
REMARK   14  A    between atoms: C20_32  and  O6_33
REMARK   15  A    between atoms: C21_35  and  O7_36
REMARK   16  A    between atoms: C22_38  and  O8_39
ROOT
HETATM    1  C11 UNL     1      -9.701  73.555 119.300  1.00  0.00     0.188 C
HETATM    2  O1  UNL     1     -10.993  73.142 119.123  1.00  0.00    -0.368 OA
HETATM    3  C12 UNL     1     -11.148  71.816 118.754  1.00  0.00     0.184 C
HETATM    4  C20 UNL     1      -9.896  71.008 118.996  1.00  0.00     0.181 C
HETATM    5  C21 UNL     1      -9.390  71.406 120.393  1.00  0.00     0.181 C
HETATM    6  C22 UNL     1      -8.978  72.853 120.425  1.00  0.00     0.183 C
ENDROOT
BRANCH   3   7
HETATM    7  C13 UNL     1     -11.598  71.796 117.319  1.00  0.00     0.173 C
BRANCH   7   8
HETATM    8  O2  UNL     1     -12.102  73.081 116.963  1.00  0.00    -0.391 OA
ATOM      9  H2  UNL     1     -12.420  73.059 116.067  1.00  0.00     0.210 HD
ENDBRANCH   7   8
BRANCH   7  10
HETATM   10  C14 UNL     1     -10.547  71.486 116.330  1.00  0.00     0.205 C
BRANCH  10  11
HETATM   11  O3  UNL     1     -10.349  70.193 115.967  1.00  0.00    -0.361 OA
BRANCH  11  12
HETATM   12  C15 UNL     1      -9.097  69.873 115.527  1.00  0.00     0.251 C
HETATM   13  N2  UNL     1      -8.669  68.787 116.434  1.00  0.00    -0.374 N
HETATM   14  C16 UNL     1      -9.057  67.589 116.205  1.00  0.00     0.060 C
ATOM     15  H2  UNL     1      -8.071  68.990 117.234  1.00  0.00     0.161 HD
HETATM   16  C17 UNL     1      -9.920  67.167 115.083  1.00  0.00     0.078 C
HETATM   17  C18 UNL     1     -10.146  68.221 114.045  1.00  0.00     0.156 C
HETATM   18  C19 UNL     1      -9.021  69.231 114.166  1.00  0.00     0.195 C
BRANCH  17  19
HETATM   19  O4  UNL     1     -11.397  68.770 114.175  1.00  0.00    -0.393 OA
ATOM     20  H4  UNL     1     -11.352  69.718 114.142  1.00  0.00     0.210 HD
ENDBRANCH  17  19
BRANCH  18  21
HETATM   21  O5  UNL     1      -8.984  70.095 113.106  1.00  0.00    -0.389 OA
ATOM     22  H5  UNL     1      -9.565  69.884 112.384  1.00  0.00     0.210 HD
ENDBRANCH  18  21
ENDBRANCH  11  12
ENDBRANCH  10  11
ENDBRANCH   7  10
ENDBRANCH   3   7
BRANCH   4  23
HETATM   23  O6  UNL     1     -10.163  69.645 119.125  1.00  0.00    -0.390 OA
ATOM     24  H6  UNL     1     -10.247  69.380 120.033  1.00  0.00     0.210 HD
ENDBRANCH   4  23
BRANCH   1  25
HETATM   25  C10 UNL     1      -9.750  75.009 119.654  1.00  0.00    -0.011 A
HETATM   26  C9  UNL     1      -8.573  75.733 119.790  1.00  0.00     0.097 A
HETATM   27  N1  UNL     1      -8.610  77.044 120.108  1.00  0.00    -0.374 N
HETATM   28  C8  UNL     1      -9.769  77.697 120.303  1.00  0.00     0.094 A
ATOM     29  H1  UNL     1      -7.732  77.555 120.203  1.00  0.00     0.164 HD
HETATM   30  C7  UNL     1     -10.972  77.025 120.181  1.00  0.00    -0.042 A
HETATM   31  C23 UNL     1     -10.936  75.681 119.855  1.00  0.00     0.019 A
BRANCH  30  32
HETATM   32  C6  UNL     1     -12.279  77.698 120.387  1.00  0.00     0.040 C
BRANCH  32  33
HETATM   33  C5  UNL     1     -12.678  77.534 121.842  1.00  0.00     0.005 C
BRANCH  33  34
HETATM   34  C4  UNL     1     -14.082  77.987 122.094  1.00  0.00     0.000 C
BRANCH  34  35
HETATM   35  C3  UNL     1     -14.140  79.302 122.826  1.00  0.00    -0.000 C
BRANCH  35  36
HETATM   36  C2  UNL     1     -14.870  80.321 122.016  1.00  0.00    -0.005 C
HETATM   37  C1  UNL     1     -14.990  81.578 122.868  1.00  0.00     0.005 C
ENDBRANCH  35  36
ENDBRANCH  34  35
ENDBRANCH  33  34
ENDBRANCH  32  33
ENDBRANCH  30  32
ENDBRANCH   1  25
BRANCH   5  38
HETATM   38  O7  UNL     1     -10.484  71.245 121.242  1.00  0.00    -0.390 OA
ATOM     39  H7  UNL     1     -10.320  70.437 121.715  1.00  0.00     0.210 HD
ENDBRANCH   5  38
BRANCH   6  40
HETATM   40  O8  UNL     1      -9.383  73.384 121.649  1.00  0.00    -0.390 OA
ATOM     41  H8  UNL     1      -9.537  72.680 122.268  1.00  0.00     0.210 HD
ENDBRANCH   6  40
TORSDOF 16
ENDMDL