MODEL 2
REMARK VINA RESULT: -7.258177221      1.213      1.719
REMARK  15 active torsions:
REMARK  status: ('A' for Active; 'I' for Inactive)
REMARK    1  A    between atoms: C2_2  and  C3_3
REMARK    2  A    between atoms: C3_3  and  C4_4
REMARK    3  A    between atoms: C4_4  and  C5_5
REMARK    4  A    between atoms: C5_5  and  C6_6
REMARK    5  A    between atoms: C10_10  and  C11_11
REMARK    6  A    between atoms: C11_11  and  C12_12
REMARK    7  A    between atoms: C11_11  and  O2_15
REMARK    8  A    between atoms: C12_12  and  O1_13
REMARK    9  A    between atoms: O2_15  and  C13_16
REMARK   10  A    between atoms: C15_19  and  O4_20
REMARK   11  A    between atoms: C16_22  and  O5_23
REMARK   12  A    between atoms: C17_25  and  O6_26
REMARK   13  A    between atoms: C18_28  and  N1_29
REMARK   14  A    between atoms: C19_33  and  O7_34
REMARK   15  A    between atoms: C21_37  and  O8_38
ROOT
HETATM    1  C6  UNL     1      -9.458  76.368 119.766  1.00  0.00     0.009 C
HETATM    2  C7  UNL     1      -8.948  75.166 118.960  1.00  0.00    -0.012 C
HETATM    3  C8  UNL     1      -9.759  74.135 118.785  1.00  0.00    -0.027 C
HETATM    4  C9  UNL     1      -9.079  73.079 117.985  1.00  0.00     0.017 C
HETATM    5  C10 UNL     1      -9.087  71.775 118.089  1.00  0.00    -0.016 C
HETATM    6  C18 UNL     1      -9.797  70.935 119.086  1.00  0.00     0.243 C
HETATM    7  C19 UNL     1     -10.352  71.856 120.188  1.00  0.00     0.156 C
HETATM    8  C20 UNL     1     -11.505  72.651 119.688  1.00  0.00     0.077 C
HETATM    9  C21 UNL     1     -11.139  74.070 119.293  1.00  0.00     0.087 C
HETATM   10  C22 UNL     1     -11.471  75.041 120.389  1.00  0.00     0.043 C
HETATM   11  C23 UNL     1     -10.299  75.837 120.868  1.00  0.00     0.012 C
ENDROOT
BRANCH   5  12
HETATM   12  C11 UNL     1      -8.288  70.990 117.113  1.00  0.00     0.179 C
BRANCH  12  13
HETATM   13  C12 UNL     1      -7.011  71.721 116.735  1.00  0.00     0.201 C
BRANCH  13  14
HETATM   14  O1  UNL     1      -5.898  71.065 117.302  1.00  0.00    -0.398 OA
ATOM     15  H1  UNL     1      -5.119  71.251 116.791  1.00  0.00     0.209 HD
ENDBRANCH  13  14
ENDBRANCH  12  13
BRANCH  12  16
HETATM   16  O2  UNL     1      -9.051  70.729 115.949  1.00  0.00    -0.347 OA
BRANCH  16  17
HETATM   17  C13 UNL     1      -9.078  69.407 115.596  1.00  0.00     0.291 C
HETATM   18  O3  UNL     1      -9.824  68.629 116.515  1.00  0.00    -0.356 OA
HETATM   19  C14 UNL     1      -9.391  67.319 116.331  1.00  0.00     0.205 C
HETATM   20  C15 UNL     1      -9.669  66.776 114.970  1.00  0.00     0.173 C
HETATM   21  C16 UNL     1      -9.316  67.730 113.851  1.00  0.00     0.182 C
HETATM   22  C17 UNL     1      -9.744  69.134 114.263  1.00  0.00     0.204 C
BRANCH  20  23
HETATM   23  O4  UNL     1      -8.925  65.587 114.836  1.00  0.00    -0.391 OA
ATOM     24  H4  UNL     1      -9.019  65.297 113.936  1.00  0.00     0.210 HD
ENDBRANCH  20  23
BRANCH  21  25
HETATM   25  O5  UNL     1      -9.993  67.298 112.717  1.00  0.00    -0.390 OA
ATOM     26  H5  UNL     1     -10.412  68.060 112.334  1.00  0.00     0.210 HD
ENDBRANCH  21  25
BRANCH  22  27
HETATM   27  O6  UNL     1     -11.133  69.073 114.500  1.00  0.00    -0.388 OA
ATOM     28  H6  UNL     1     -11.555  68.957 113.657  1.00  0.00     0.210 HD
ENDBRANCH  22  27
ENDBRANCH  16  17
ENDBRANCH  12  16
ENDBRANCH   5  12
BRANCH   6  29
HETATM   29  N1  UNL     1      -8.780  70.146 119.759  1.00  0.00    -0.069 N
ATOM     30  H13 UNL     1      -7.829  70.419 119.512  1.00  0.00     0.275 HD
ATOM     31  H12 UNL     1      -8.713  70.341 120.758  1.00  0.00     0.275 HD
ATOM     32  H11 UNL     1      -8.987  69.169 119.552  1.00  0.00     0.275 HD
ENDBRANCH   6  29
BRANCH   7  33
HETATM   33  O7  UNL     1     -10.619  71.095 121.302  1.00  0.00    -0.393 OA
ATOM     34  H7  UNL     1     -11.137  71.614 121.906  1.00  0.00     0.210 HD
ENDBRANCH   7  33
BRANCH   9  35
HETATM   35  O8  UNL     1     -12.060  74.378 118.244  1.00  0.00    -0.385 OA
ATOM     36  H8  UNL     1     -12.663  73.654 118.120  1.00  0.00     0.211 HD
ENDBRANCH   9  35
BRANCH   1  37
HETATM   37  C5  UNL     1      -9.932  77.370 118.835  1.00  0.00     0.008 C
BRANCH  37  38
HETATM   38  C4  UNL     1     -10.992  78.332 119.125  1.00  0.00     0.001 C
BRANCH  38  39
HETATM   39  C3  UNL     1     -12.318  78.242 118.460  1.00  0.00    -0.000 C
BRANCH  39  40
HETATM   40  C2  UNL     1     -13.438  78.073 119.499  1.00  0.00    -0.005 C
HETATM   41  C1  UNL     1     -12.868  78.468 120.836  1.00  0.00     0.005 C
ENDBRANCH  39  40
ENDBRANCH  38  39
ENDBRANCH  37  38
ENDBRANCH   1  37
TORSDOF 15
ENDMDL