MODEL 3
REMARK VINA RESULT: -6.191082921      2.557      5.401
REMARK  17 active torsions:
REMARK  status: ('A' for Active; 'I' for Inactive)
REMARK    1  A    between atoms: C3_3  and  C5_5
REMARK    2  A    between atoms: C6_6  and  C7_7
REMARK    3  A    between atoms: C7_7  and  O1_8
REMARK    4  A    between atoms: C8_10  and  O2_11
REMARK    5  A    between atoms: C9_13  and  O3_14
REMARK    6  A    between atoms: C10_16  and  O4_17
REMARK    7  A    between atoms: C11_19  and  O5_20
REMARK    8  A    between atoms: O5_20  and  C12_21
REMARK    9  A    between atoms: C13_22  and  O6_23
REMARK   10  A    between atoms: O6_23  and  C14_24
REMARK   11  A    between atoms: C14_24  and  C15_25
REMARK   12  A    between atoms: C15_25  and  C16_26
REMARK   13  A    between atoms: C16_26  and  C17_27
REMARK   14  A    between atoms: C17_27  and  C18_28
REMARK   15  A    between atoms: C21_31  and  N1_32
REMARK   16  A    between atoms: C22_36  and  O7_37
REMARK   17  A    between atoms: C23_39  and  O8_40
ROOT
HETATM    1  C12 UNL     1     -11.935  73.046 117.425  1.00  0.00     0.182 C
HETATM    2  C13 UNL     1     -12.068  74.533 117.205  1.00  0.00     0.155 C
HETATM    3  C20 UNL     1     -12.092  74.791 115.715  1.00  0.00     0.070 C
HETATM    4  C21 UNL     1     -13.437  74.277 115.225  1.00  0.00     0.217 C
HETATM    5  C22 UNL     1     -13.455  72.784 115.449  1.00  0.00     0.179 C
HETATM    6  C23 UNL     1     -13.201  72.413 116.878  1.00  0.00     0.180 C
ENDROOT
BRANCH   1   7
HETATM    7  O5  UNL     1     -10.796  72.481 116.908  1.00  0.00    -0.372 OA
BRANCH   7   8
HETATM    8  C11 UNL     1     -10.420  71.336 117.578  1.00  0.00     0.162 C
HETATM    9  C5  UNL     1      -9.474  71.504 118.699  1.00  0.00     0.054 C
HETATM   10  C6  UNL     1      -9.007  70.150 119.190  1.00  0.00     0.051 C
HETATM   11  C8  UNL     1      -9.732  68.998 118.578  1.00  0.00     0.156 C
HETATM   12  C9  UNL     1      -9.608  68.998 117.060  1.00  0.00     0.178 C
HETATM   13  C10 UNL     1     -10.080  70.305 116.530  1.00  0.00     0.179 C
BRANCH   9  14
HETATM   14  C3  UNL     1      -8.343  72.436 118.491  1.00  0.00    -0.081 C
HETATM   15  C2  UNL     1      -8.258  73.593 119.120  1.00  0.00    -0.028 C
HETATM   16  C1  UNL     1      -9.195  74.175 120.082  1.00  0.00     0.036 C
HETATM   17  C4  UNL     1      -7.206  72.140 117.569  1.00  0.00     0.043 C
ENDBRANCH   9  14
BRANCH  10  18
HETATM   18  C7  UNL     1      -9.127  70.005 120.696  1.00  0.00     0.172 C
BRANCH  18  19
HETATM   19  O1  UNL     1     -10.022  70.892 121.241  1.00  0.00    -0.400 OA
ATOM     20  H1  UNL     1     -10.922  70.685 121.017  1.00  0.00     0.209 HD
ENDBRANCH  18  19
ENDBRANCH  10  18
BRANCH  11  21
HETATM   21  O2  UNL     1      -9.127  67.825 119.011  1.00  0.00    -0.392 OA
ATOM     22  H2  UNL     1      -9.401  67.120 118.436  1.00  0.00     0.210 HD
ENDBRANCH  11  21
BRANCH  12  23
HETATM   23  O3  UNL     1      -8.323  68.640 116.696  1.00  0.00    -0.390 OA
ATOM     24  H3  UNL     1      -8.355  67.983 116.010  1.00  0.00     0.210 HD
ENDBRANCH  12  23
BRANCH  13  25
HETATM   25  O4  UNL     1      -9.326  70.810 115.470  1.00  0.00    -0.390 OA
ATOM     26  H4  UNL     1      -9.484  70.387 114.635  1.00  0.00     0.210 HD
ENDBRANCH  13  25
ENDBRANCH   7   8
ENDBRANCH   1   7
BRANCH   2  27
HETATM   27  O6  UNL     1     -11.193  75.304 117.913  1.00  0.00    -0.383 OA
BRANCH  27  28
HETATM   28  C14 UNL     1     -11.070  76.550 117.323  1.00  0.00     0.168 C
BRANCH  28  29
HETATM   29  C15 UNL     1      -9.723  77.165 117.695  1.00  0.00     0.026 C
BRANCH  29  30
HETATM   30  C16 UNL     1      -9.869  77.743 119.082  1.00  0.00     0.002 C
BRANCH  30  31
HETATM   31  C17 UNL     1     -11.228  78.377 119.278  1.00  0.00    -0.000 C
BRANCH  31  32
HETATM   32  C18 UNL     1     -11.727  78.185 120.687  1.00  0.00    -0.005 C
HETATM   33  C19 UNL     1     -11.720  76.752 121.111  1.00  0.00     0.005 C
ENDBRANCH  31  32
ENDBRANCH  30  31
ENDBRANCH  29  30
ENDBRANCH  28  29
ENDBRANCH  27  28
ENDBRANCH   2  27
BRANCH   6  34
HETATM   34  O8  UNL     1     -14.259  72.920 117.638  1.00  0.00    -0.390 OA
ATOM     35  H8  UNL     1     -15.011  72.965 117.058  1.00  0.00     0.210 HD
ENDBRANCH   6  34
BRANCH   5  36
HETATM   36  O7  UNL     1     -12.638  72.153 114.538  1.00  0.00    -0.391 OA
ATOM     37  H7  UNL     1     -13.026  71.332 114.259  1.00  0.00     0.210 HD
ENDBRANCH   5  36
BRANCH   4  38
HETATM   38  N1  UNL     1     -13.607  74.531 113.804  1.00  0.00    -0.072 N
ATOM     39  H13 UNL     1     -13.291  73.742 113.240  1.00  0.00     0.274 HD
ATOM     40  H12 UNL     1     -14.591  74.527 113.537  1.00  0.00     0.274 HD
ATOM     41  H11 UNL     1     -13.146  75.399 113.529  1.00  0.00     0.274 HD
ENDBRANCH   4  38
TORSDOF 17
ENDMDL