MODEL 5
REMARK VINA RESULT: -6.404664952      2.823      7.222
REMARK  15 active torsions:
REMARK  status: ('A' for Active; 'I' for Inactive)
REMARK    1  A    between atoms: C2_2  and  C3_3
REMARK    2  A    between atoms: C2_2  and  C4_6
REMARK    3  A    between atoms: C3_3  and  O1_4
REMARK    4  A    between atoms: C8_10  and  O2_11
REMARK    5  A    between atoms: C8_10  and  C9_13
REMARK    6  A    between atoms: C9_13  and  O3_14
REMARK    7  A    between atoms: C11_17  and  C13_19
REMARK    8  A    between atoms: C13_19  and  O4_20
REMARK    9  A    between atoms: C13_19  and  C14_22
REMARK   10  A    between atoms: C15_25  and  C16_26
REMARK   11  A    between atoms: C16_26  and  O5_27
REMARK   12  A    between atoms: C16_26  and  O6_29
REMARK   13  A    between atoms: C18_33  and  O8_34
REMARK   14  A    between atoms: O8_34  and  C19_35
REMARK   15  A    between atoms: C19_35  and  C20_36
ROOT
HETATM    1  C13 UNL     1      -9.176  74.956 118.405  1.00  0.00     0.177 C
ENDROOT
BRANCH   1   2
HETATM    2  C11 UNL     1      -9.898  73.736 118.847  1.00  0.00    -0.006 C
HETATM    3  C6  UNL     1      -9.471  72.592 117.919  1.00  0.00     0.005 C
HETATM    4  C5  UNL     1      -8.059  72.138 118.004  1.00  0.00     0.015 C
HETATM    5  C7  UNL     1      -9.838  71.321 118.676  1.00  0.00     0.035 C
HETATM    6  C4  UNL     1      -8.566  70.721 118.116  1.00  0.00     0.023 C
HETATM    7  C8  UNL     1      -9.851  71.709 120.103  1.00  0.00     0.084 C
HETATM    8  C10 UNL     1      -9.524  73.188 120.181  1.00  0.00     0.052 C
HETATM    9  C12 UNL     1     -11.377  73.836 118.711  1.00  0.00     0.019 C
BRANCH   6  10
HETATM   10  C2  UNL     1      -8.766  70.075 116.807  1.00  0.00    -0.061 C
HETATM   11  C1  UNL     1      -8.508  70.648 115.646  1.00  0.00     0.017 C
BRANCH  10  12
HETATM   12  C3  UNL     1      -9.295  68.667 116.789  1.00  0.00     0.198 C
BRANCH  12  13
HETATM   13  O1  UNL     1      -8.355  67.813 116.185  1.00  0.00    -0.397 OA
ATOM     14  H1  UNL     1      -8.775  66.999 115.934  1.00  0.00     0.209 HD
ENDBRANCH  12  13
ENDBRANCH  10  12
ENDBRANCH   6  10
BRANCH   7  15
HETATM   15  O2  UNL     1     -11.165  71.461 120.576  1.00  0.00    -0.387 OA
ATOM     16  H2  UNL     1     -11.211  71.830 121.450  1.00  0.00     0.210 HD
ENDBRANCH   7  15
BRANCH   7  17
HETATM   17  C9  UNL     1      -8.952  70.942 121.014  1.00  0.00     0.202 C
BRANCH  17  18
HETATM   18  O3  UNL     1      -9.496  69.718 121.363  1.00  0.00    -0.398 OA
ATOM     19  H3  UNL     1      -9.479  69.580 122.303  1.00  0.00     0.209 HD
ENDBRANCH  17  18
ENDBRANCH   7  17
ENDBRANCH   1   2
BRANCH   1  20
HETATM   20  O4  UNL     1      -8.030  75.149 119.258  1.00  0.00    -0.389 OA
ATOM     21  H4  UNL     1      -7.876  76.081 119.355  1.00  0.00     0.210 HD
ENDBRANCH   1  20
BRANCH   1  22
HETATM   22  C14 UNL     1      -9.891  76.249 118.387  1.00  0.00     0.072 C
HETATM   23  N1  UNL     1     -10.263  76.770 119.672  1.00  0.00    -0.355 N
HETATM   24  C15 UNL     1     -11.552  77.316 119.854  1.00  0.00     0.086 C
ATOM     25  H1  UNL     1      -9.601  76.744 120.448  1.00  0.00     0.165 HD
HETATM   26  C17 UNL     1     -12.256  77.762 118.790  1.00  0.00     0.168 C
HETATM   27  O7  UNL     1     -11.643  77.647 117.554  1.00  0.00    -0.325 OA
HETATM   28  C18 UNL     1     -10.908  76.448 117.305  1.00  0.00     0.315 C
BRANCH  24  29
HETATM   29  C16 UNL     1     -12.191  77.431 121.188  1.00  0.00     0.307 C
BRANCH  29  30
HETATM   30  O5  UNL     1     -11.914  78.626 121.803  1.00  0.00    -0.366 OA
ATOM     31  H5  UNL     1     -12.674  78.999 122.233  1.00  0.00     0.213 HD
ENDBRANCH  29  30
BRANCH  29  32
HETATM   32  O6  UNL     1     -11.688  76.406 122.010  1.00  0.00    -0.366 OA
ATOM     33  H6  UNL     1     -12.298  75.677 121.987  1.00  0.00     0.213 HD
ENDBRANCH  29  32
ENDBRANCH  24  29
BRANCH  28  34
HETATM   34  O8  UNL     1     -10.178  76.652 116.104  1.00  0.00    -0.352 OA
BRANCH  34  35
HETATM   35  C19 UNL     1     -10.778  77.538 115.248  1.00  0.00     0.199 C
BRANCH  35  36
HETATM   36  C20 UNL     1     -10.700  76.957 113.878  1.00  0.00     0.001 C
HETATM   37  C21 UNL     1     -11.741  76.309 113.391  1.00  0.00    -0.089 C
HETATM   38  C22 UNL     1     -11.685  75.720 112.025  1.00  0.00     0.042 C
HETATM   39  C23 UNL     1     -12.974  76.162 114.201  1.00  0.00     0.042 C
ENDBRANCH  35  36
ENDBRANCH  34  35
ENDBRANCH  28  34
ENDBRANCH   1  22
TORSDOF 15
ENDMDL