MODEL 4
REMARK VINA RESULT: -6.744045453      3.922      4.786
REMARK  8 active torsions:
REMARK  status: ('A' for Active; 'I' for Inactive)
REMARK    1  A    between atoms: N1_1  and  C1_4
REMARK    2  A    between atoms: C2_7  and  N3_8
REMARK    3  A    between atoms: N3_8  and  O1_9
REMARK    4  A    between atoms: N3_8  and  O2_11
REMARK    5  A    between atoms: O2_11  and  N4_12
REMARK    6  A    between atoms: N4_12  and  N5_13
REMARK    7  A    between atoms: N4_12  and  N6_16
REMARK    8  A    between atoms: C3_19  and  S1_20
ROOT
HETATM    1  C1  UNL     1      28.986  45.846  11.285  1.00  0.00     0.680 A
HETATM    2  N2  UNL     1      28.263  46.259  10.239  1.00  0.00    -0.171 N
ATOM      3  H2  UNL     1      27.326  45.877  10.110  1.00  0.00     0.186 HD
HETATM    4  C2  UNL     1      28.723  47.168   9.338  1.00  0.00     0.198 A
HETATM    5  C3  UNL     1      29.993  47.652   9.559  1.00  0.00     0.129 A
HETATM    6  C4  UNL     1      30.733  47.228  10.632  1.00  0.00     0.281 A
HETATM    7  O3  UNL     1      31.887  47.705  10.782  1.00  0.00    -0.266 OA
HETATM    8  N7  UNL     1      30.217  46.333  11.477  1.00  0.00    -0.155 N
ATOM      9  H7  UNL     1      30.766  46.017  12.276  1.00  0.00     0.187 HD
ENDROOT
BRANCH   4  10
HETATM   10  N3  UNL     1      27.917  47.574   8.245  1.00  0.00    -0.085 N
BRANCH  10  11
HETATM   11  O1  UNL     1      27.356  48.679   8.285  1.00  0.00    -0.260 OA
ATOM     12  H1  UNL     1      26.666  48.825   8.922  1.00  0.00     0.247 HD
ENDBRANCH  10  11
BRANCH  10  13
HETATM   13  O2  UNL     1      27.736  46.784   7.145  1.00  0.00    -0.112 OA
BRANCH  13  14
HETATM   14  N4  UNL     1      26.595  46.119   6.835  1.00  0.00     0.011 NA
BRANCH  14  15
HETATM   15  N5  UNL     1      26.842  44.790   6.410  1.00  0.00    -0.320 NA
ATOM     16  H52 UNL     1      27.238  44.888   5.475  1.00  0.00     0.175 HD
ATOM     17  H51 UNL     1      25.986  44.239   6.333  1.00  0.00     0.175 HD
ENDBRANCH  14  15
BRANCH  14  18
HETATM   18  N6  UNL     1      25.832  45.980   8.026  1.00  0.00    -0.320 NA
ATOM     19  H62 UNL     1      24.899  45.722   7.705  1.00  0.00     0.175 HD
ATOM     20  H61 UNL     1      26.265  45.251   8.593  1.00  0.00     0.175 HD
ENDBRANCH  14  18
ENDBRANCH  13  14
ENDBRANCH  10  13
ENDBRANCH   4  10
BRANCH   5  21
HETATM   21  S1  UNL     1      30.613  48.852   8.380  1.00  0.00    -0.036 SA
HETATM   22  S2  UNL     1      32.089  47.863   7.210  1.00  0.00    -0.007 SA
ENDBRANCH   5  21
BRANCH   1  23
HETATM   23  N1  UNL     1      28.472  44.972  12.102  1.00  0.00    -0.234 N
ATOM     24  H12 UNL     1      27.969  44.155  11.754  1.00  0.00     0.174 HD
ATOM     25  H11 UNL     1      28.578  45.111  13.107  1.00  0.00     0.174 HD
ENDBRANCH   1  23
TORSDOF 8
ENDMDL