MODEL 5
REMARK VINA RESULT: -7.645672686      2.715      6.511
REMARK  7 active torsions:
REMARK  status: ('A' for Active; 'I' for Inactive)
REMARK    1  A    between atoms: N1_1  and  N2_4
REMARK    2  A    between atoms: N2_4  and  N3_5
REMARK    3  A    between atoms: N3_5  and  C1_7
REMARK    4  A    between atoms: C4_16  and  N7_17
REMARK    5  A    between atoms: N7_17  and  N8_18
REMARK    6  A    between atoms: N8_18  and  C5_20
REMARK    7  A    between atoms: C7_27  and  N11_28
ROOT
HETATM    1  C1  UNL     1      28.514  45.196   4.820  1.00  0.00     0.207 C
HETATM    2  C2  UNL     1      28.581  44.857   3.376  1.00  0.00     0.122 C
HETATM    3  N4  UNL     1      27.517  44.286   2.585  1.00  0.00    -0.085 NA
HETATM    4  N5  UNL     1      29.754  45.154   2.916  1.00  0.00    -0.335 N
ATOM      5  H5  UNL     1      30.061  45.022   1.952  1.00  0.00     0.168 HD
HETATM    6  C3  UNL     1      30.556  45.701   3.978  1.00  0.00     0.100 C
HETATM    7  N6  UNL     1      31.521  46.517   3.898  1.00  0.00    -0.387 N
ATOM      8  H61 UNL     1      32.089  46.904   4.651  1.00  0.00     0.157 HD
ATOM      9  H62 UNL     1      31.916  46.941   3.059  1.00  0.00     0.157 HD
HETATM   10  C4  UNL     1      29.985  45.087   5.194  1.00  0.00     0.199 C
ENDROOT
BRANCH  10  11
HETATM   11  N7  UNL     1      30.303  45.720   6.422  1.00  0.00    -0.111 NA
BRANCH  11  12
HETATM   12  N8  UNL     1      29.556  45.169   7.454  1.00  0.00    -0.135 N
ATOM     13  H8  UNL     1      29.327  44.175   7.415  1.00  0.00     0.201 HD
BRANCH  12  14
HETATM   14  C5  UNL     1      29.094  45.933   8.568  1.00  0.00     0.712 A
HETATM   15  N9  UNL     1      28.924  45.394   9.785  1.00  0.00    -0.139 N
HETATM   16  C6  UNL     1      28.486  46.156  10.804  1.00  0.00     0.352 A
ATOM     17  H9  UNL     1      29.126  44.405   9.938  1.00  0.00     0.189 HD
HETATM   18  O1  UNL     1      28.309  45.695  11.969  1.00  0.00    -0.246 OA
HETATM   19  N10 UNL     1      28.205  47.480  10.644  1.00  0.00    -0.141 N
HETATM   20  C7  UNL     1      28.376  48.018   9.427  1.00  0.00     0.694 A
ATOM     21  H10 UNL     1      27.875  48.045  11.426  1.00  0.00     0.189 HD
HETATM   22  N12 UNL     1      28.814  47.235   8.430  1.00  0.00    -0.021 N
ATOM     23  H12 UNL     1      28.941  47.657   7.510  1.00  0.00     0.203 HD
BRANCH  20  24
HETATM   24  N11 UNL     1      28.112  49.276   9.261  1.00  0.00    -0.234 N
ATOM     25 2H11 UNL     1      27.462  49.784   9.861  1.00  0.00     0.174 HD
ATOM     26 1H11 UNL     1      28.572  49.776   8.500  1.00  0.00     0.174 HD
ENDBRANCH  20  24
ENDBRANCH  12  14
ENDBRANCH  11  12
ENDBRANCH  10  11
BRANCH   1  27
HETATM   27  N3  UNL     1      28.035  46.554   4.918  1.00  0.00    -0.239 N
ATOM     28  H3  UNL     1      28.468  47.312   4.391  1.00  0.00     0.198 HD
BRANCH  27  29
HETATM   29  N2  UNL     1      27.078  46.755   5.668  1.00  0.00    -0.248 NA
BRANCH  29  30
HETATM   30  N1  UNL     1      26.147  46.586   6.454  1.00  0.00    -0.261 N
ATOM     31  H12 UNL     1      25.760  45.781   5.961  1.00  0.00     0.193 HD
ATOM     32  H11 UNL     1      25.506  46.691   7.240  1.00  0.00     0.193 HD
ENDBRANCH  29  30
ENDBRANCH  27  29
ENDBRANCH   1  27
TORSDOF 7
ENDMDL