MODEL 3
REMARK VINA RESULT: -7.577647532      7.956     10.417
REMARK  4 active torsions:
REMARK  status: ('A' for Active; 'I' for Inactive)
REMARK    1  A    between atoms: C2_7  and  N3_8
REMARK       I    between atoms: N3_8  and  C3_10
REMARK       I    between atoms: C3_10  and  N4_11
REMARK       I    between atoms: C3_10  and  N5_15
REMARK    2  A    between atoms: C4_21  and  N7_22
REMARK    3  A    between atoms: N7_22  and  C5_24
REMARK    4  A    between atoms: C6_27  and  C7_28
ROOT
HETATM    1  N1  UNL     1      30.091  50.147  11.777  1.00  0.00    -0.386 N
ATOM      2  H11 UNL     1      30.740  50.529  12.464  1.00  0.00     0.157 HD
ATOM      3  H12 UNL     1      29.315  49.729  12.292  1.00  0.00     0.157 HD
HETATM    4  C1  UNL     1      30.185  50.163  10.500  1.00  0.00     0.121 C
HETATM    5  N2  UNL     1      29.290  49.636   9.552  1.00  0.00    -0.315 N
ATOM      6  H2  UNL     1      28.331  49.347   9.750  1.00  0.00     0.170 HD
HETATM    7  C2  UNL     1      29.855  49.570   8.402  1.00  0.00     0.181 C
HETATM    8  N6  UNL     1      31.189  50.054   8.484  1.00  0.00    -0.334 N
ATOM      9  H6  UNL     1      31.924  49.926   7.788  1.00  0.00     0.165 HD
HETATM   10  C4  UNL     1      31.310  50.769   9.755  1.00  0.00     0.254 C
ENDROOT
BRANCH   7  11
HETATM   11  N3  UNL     1      29.204  49.073   7.207  1.00  0.00    -0.313 N
HETATM   12  C3  UNL     1      29.831  47.997   6.495  1.00  0.00     0.482 C
HETATM   13  N4  UNL     1      29.984  46.805   7.301  1.00  0.00    -0.033 N
HETATM   14  N5  UNL     1      29.086  47.694   5.292  1.00  0.00    -0.033 N
ATOM     15  H43 UNL     1      30.484  47.011   8.165  1.00  0.00     0.278 HD
ATOM     16  H42 UNL     1      29.089  46.511   7.693  1.00  0.00     0.278 HD
ATOM     17  H41 UNL     1      30.430  46.040   6.795  1.00  0.00     0.278 HD
ATOM     18  H53 UNL     1      28.104  47.498   5.491  1.00  0.00     0.278 HD
ATOM     19  H52 UNL     1      28.959  48.517   4.704  1.00  0.00     0.278 HD
ATOM     20  H51 UNL     1      29.532  46.929   4.786  1.00  0.00     0.278 HD
ATOM     21  H3  UNL     1      28.326  49.475   6.881  1.00  0.00     0.166 HD
ENDBRANCH   7  11
BRANCH  10  22
HETATM   22  N7  UNL     1      32.536  50.453  10.430  1.00  0.00    -0.352 N
ATOM     23  H7  UNL     1      32.662  49.530  10.847  1.00  0.00     0.163 HD
BRANCH  22  24
HETATM   24  C5  UNL     1      33.594  51.432  10.526  1.00  0.00     0.075 C
HETATM   25  N8  UNL     1      33.594  52.370  11.378  1.00  0.00    -0.367 N
HETATM   26  C6  UNL     1      34.722  53.238  11.320  1.00  0.00     0.172 C
ATOM     27  H8  UNL     1      32.841  52.494  12.055  1.00  0.00     0.161 HD
HETATM   28  C8  UNL     1      35.385  52.906   9.995  1.00  0.00     0.042 C
HETATM   29  C9  UNL     1      34.808  51.536   9.712  1.00  0.00     0.078 C
BRANCH  26  30
HETATM   30  C7  UNL     1      35.600  52.980  12.466  1.00  0.00     0.253 C
HETATM   31  N9  UNL     1      36.677  53.840  12.766  1.00  0.00    -0.060 NA
HETATM   32  O1  UNL     1      35.397  51.984  13.190  1.00  0.00    -0.275 OA
ENDBRANCH  26  30
ENDBRANCH  22  24
ENDBRANCH  10  22
TORSDOF 4
ENDMDL