MODEL 3
REMARK VINA RESULT: -7.317052131      2.467      3.396
REMARK  7 active torsions:
REMARK  status: ('A' for Active; 'I' for Inactive)
REMARK    1  A    between atoms: C2_2  and  N1_3
REMARK    2  A    between atoms: C2_2  and  C3_8
REMARK    3  A    between atoms: N1_3  and  N2_5
REMARK       I    between atoms: C3_8  and  N3_10
REMARK    4  A    between atoms: N3_10  and  C4_12
REMARK    5  A    between atoms: C6_15  and  N5_16
REMARK    6  A    between atoms: N5_16  and  N6_18
REMARK    7  A    between atoms: N6_18  and  C7_20
ROOT
HETATM    1  C4  UNL     1      28.626  46.300   5.709  1.00  0.00     0.094 A
HETATM    2  C5  UNL     1      27.779  46.024   6.781  1.00  0.00     0.128 A
HETATM    3  N4  UNL     1      26.559  45.325   6.582  1.00  0.00    -0.095 NA
HETATM    4  C6  UNL     1      28.198  46.465   8.015  1.00  0.00     0.193 A
HETATM    5  O3  UNL     1      29.329  47.108   8.172  1.00  0.00    -0.253 OA
HETATM    6  C8  UNL     1      30.144  47.385   7.203  1.00  0.00     0.316 A
HETATM    7  O4  UNL     1      31.239  48.006   7.349  1.00  0.00    -0.257 OA
HETATM    8  C9  UNL     1      29.818  46.986   5.922  1.00  0.00     0.150 A
HETATM    9  N7  UNL     1      30.662  47.254   4.811  1.00  0.00    -0.093 NA
ENDROOT
BRANCH   1  10
HETATM   10  N3  UNL     1      28.262  45.878   4.416  1.00  0.00    -0.322 N
HETATM   11  C3  UNL     1      28.618  44.573   3.944  1.00  0.00     0.246 C
HETATM   12  O1  UNL     1      29.263  43.811   4.704  1.00  0.00    -0.271 OA
ATOM     13  H3  UNL     1      27.739  46.509   3.808  1.00  0.00     0.169 HD
BRANCH  11  14
HETATM   14  C2  UNL     1      28.259  44.098   2.606  1.00  0.00     0.186 C
HETATM   15  C1  UNL     1      27.764  42.671   2.601  1.00  0.00     0.044 C
BRANCH  14  16
HETATM   16  N1  UNL     1      27.344  45.001   1.992  1.00  0.00    -0.329 N
ATOM     17  H1  UNL     1      26.496  45.319   2.462  1.00  0.00     0.180 HD
BRANCH  16  18
HETATM   18  N2  UNL     1      27.679  45.416   0.725  1.00  0.00    -0.349 N
ATOM     19  H22 UNL     1      26.964  45.609   0.024  1.00  0.00     0.176 HD
ATOM     20  H21 UNL     1      28.678  45.514   0.544  1.00  0.00     0.176 HD
ENDBRANCH  16  18
ENDBRANCH  14  16
ENDBRANCH  11  14
ENDBRANCH   1  10
BRANCH   4  21
HETATM   21  N5  UNL     1      27.363  46.207   9.156  1.00  0.00    -0.276 N
ATOM     22  H5  UNL     1      26.452  45.768   9.021  1.00  0.00     0.189 HD
BRANCH  21  23
HETATM   23  N6  UNL     1      27.769  46.543  10.432  1.00  0.00    -0.275 N
ATOM     24  H6  UNL     1      27.299  47.290  10.944  1.00  0.00     0.189 HD
BRANCH  23  25
HETATM   25  C7  UNL     1      28.732  45.913  10.960  1.00  0.00     0.368 C
HETATM   26  O2  UNL     1      29.776  45.332  11.289  1.00  0.00    -0.282 OA
ENDBRANCH  23  25
ENDBRANCH  21  23
ENDBRANCH   4  21
TORSDOF 7
ENDMDL