MODEL 4
REMARK VINA RESULT: -7.293487426      2.048      2.886
REMARK  6 active torsions:
REMARK  status: ('A' for Active; 'I' for Inactive)
REMARK    1  A    between atoms: N1_1  and  C1_4
REMARK    2  A    between atoms: C2_7  and  N3_8
REMARK    3  A    between atoms: C3_11  and  N4_12
REMARK       I    between atoms: N4_12  and  C4_14
REMARK    4  A    between atoms: C4_14  and  C5_16
REMARK    5  A    between atoms: C6_22  and  N7_23
REMARK    6  A    between atoms: C7_26  and  N8_27
ROOT
HETATM    1  C1  UNL     1      28.189  46.433   9.091  1.00  0.00     0.679 A
HETATM    2  N2  UNL     1      27.210  46.182   8.222  1.00  0.00    -0.169 N
ATOM      3  H2  UNL     1      26.259  46.023   8.554  1.00  0.00     0.186 HD
HETATM    4  C2  UNL     1      27.487  46.137   6.890  1.00  0.00     0.218 A
HETATM    5  C3  UNL     1      28.760  46.346   6.420  1.00  0.00     0.131 A
HETATM    6  C7  UNL     1      29.757  46.606   7.372  1.00  0.00     0.145 A
HETATM    7  N9  UNL     1      29.447  46.642   8.682  1.00  0.00    -0.175 N
ATOM      8  H9  UNL     1      30.178  46.830   9.370  1.00  0.00     0.186 HD
ENDROOT
BRANCH   5   9
HETATM    9  N4  UNL     1      29.117  46.330   5.045  1.00  0.00    -0.315 N
HETATM   10  C4  UNL     1      29.442  45.099   4.428  1.00  0.00     0.278 C
HETATM   11  O3  UNL     1      29.406  44.049   5.110  1.00  0.00    -0.265 OA
ATOM     12  H4  UNL     1      29.139  47.197   4.508  1.00  0.00     0.169 HD
BRANCH  10  13
HETATM   13  C5  UNL     1      29.818  44.990   3.026  1.00  0.00     0.169 A
HETATM   14  N5  UNL     1      31.080  45.049   2.542  1.00  0.00    -0.233 N
HETATM   15  O4  UNL     1      31.042  44.914   1.252  1.00  0.00    -0.155 OA
ATOM     16  H5  UNL     1      31.923  45.178   3.101  1.00  0.00     0.197 HD
HETATM   17  N6  UNL     1      29.814  44.767   0.837  1.00  0.00    -0.224 N
HETATM   18  C6  UNL     1      29.020  44.809   1.924  1.00  0.00     0.155 A
ATOM     19  H6  UNL     1      29.512  44.643  -0.130  1.00  0.00     0.198 HD
BRANCH  18  20
HETATM   20  N7  UNL     1      27.742  44.701   1.941  1.00  0.00    -0.382 N
ATOM     21  H72 UNL     1      27.158  44.284   1.217  1.00  0.00     0.157 HD
ATOM     22  H71 UNL     1      27.133  45.021   2.694  1.00  0.00     0.157 HD
ENDBRANCH  18  20
ENDBRANCH  10  13
ENDBRANCH   5   9
BRANCH   4  23
HETATM   23  N3  UNL     1      26.454  45.862   5.950  1.00  0.00    -0.095 N
HETATM   24  O1  UNL     1      25.890  46.823   5.392  1.00  0.00    -0.530 OA
HETATM   25  O2  UNL     1      26.037  44.607   5.620  1.00  0.00    -0.530 OA
ENDBRANCH   4  23
BRANCH   6  26
HETATM   26  N8  UNL     1      30.966  46.805   6.952  1.00  0.00    -0.383 N
ATOM     27  H82 UNL     1      31.353  46.282   6.167  1.00  0.00     0.157 HD
ATOM     28  H81 UNL     1      31.531  47.508   7.429  1.00  0.00     0.157 HD
ENDBRANCH   6  26
BRANCH   1  29
HETATM   29  N1  UNL     1      27.927  46.476  10.367  1.00  0.00    -0.234 N
ATOM     30  H12 UNL     1      28.326  45.761  10.975  1.00  0.00     0.174 HD
ATOM     31  H11 UNL     1      27.330  47.215  10.737  1.00  0.00     0.174 HD
ENDBRANCH   1  29
TORSDOF 6
ENDMDL