MODEL 5
REMARK VINA RESULT: -7.319737186      2.186      2.653
REMARK  7 active torsions:
REMARK  status: ('A' for Active; 'I' for Inactive)
REMARK    1  A    between atoms: N1_1  and  C1_4
REMARK    2  A    between atoms: C2_7  and  N3_8
REMARK    3  A    between atoms: N3_8  and  N4_10
REMARK    4  A    between atoms: C3_13  and  N5_14
REMARK    5  A    between atoms: C4_16  and  S1_17
REMARK    6  A    between atoms: S1_17  and  C5_18
REMARK    7  A    between atoms: C5_18  and  C6_19
ROOT
HETATM    1  C1  UNL     1      28.376  48.484   8.292  1.00  0.00     0.680 A
HETATM    2  N2  UNL     1      29.609  48.320   7.790  1.00  0.00    -0.173 N
ATOM      3  H2  UNL     1      30.425  48.684   8.284  1.00  0.00     0.186 HD
HETATM    4  C2  UNL     1      29.750  47.660   6.613  1.00  0.00     0.167 A
HETATM    5  C3  UNL     1      28.652  47.152   5.923  1.00  0.00     0.148 A
HETATM    6  C7  UNL     1      27.418  47.342   6.469  1.00  0.00     0.290 A
HETATM    7  O1  UNL     1      26.418  46.901   5.875  1.00  0.00    -0.265 OA
HETATM    8  N10 UNL     1      27.304  48.003   7.642  1.00  0.00    -0.154 N
ATOM      9  H10 UNL     1      26.378  48.140   8.044  1.00  0.00     0.187 HD
ENDROOT
BRANCH   5  10
HETATM   10  N5  UNL     1      28.912  46.483   4.713  1.00  0.00    -0.353 N
HETATM   11  C4  UNL     1      28.996  45.220   4.577  1.00  0.00     0.134 C
ATOM     12  H5  UNL     1      29.043  47.056   3.879  1.00  0.00     0.166 HD
BRANCH  11  13
HETATM   13  S1  UNL     1      29.321  44.384   3.063  1.00  0.00    -0.117 SA
BRANCH  13  14
HETATM   14  C5  UNL     1      28.719  42.675   3.043  1.00  0.00     0.159 C
BRANCH  14  15
HETATM   15  C6  UNL     1      29.812  41.680   3.118  1.00  0.00     0.122 A
HETATM   16  N6  UNL     1      29.882  40.479   3.707  1.00  0.00    -0.272 N
HETATM   17  N7  UNL     1      31.079  39.975   3.488  1.00  0.00    -0.227 N
ATOM     18  H6  UNL     1      29.135  40.031   4.236  1.00  0.00     0.190 HD
HETATM   19  N8  UNL     1      31.799  40.816   2.769  1.00  0.00    -0.227 N
ATOM     20  H7  UNL     1      31.403  39.068   3.824  1.00  0.00     0.210 HD
HETATM   21  N9  UNL     1      31.035  41.856   2.539  1.00  0.00    -0.272 N
ATOM     22  H8  UNL     1      32.759  40.682   2.454  1.00  0.00     0.210 HD
ATOM     23  H9  UNL     1      31.315  42.678   2.004  1.00  0.00     0.190 HD
ENDBRANCH  14  15
ENDBRANCH  13  14
ENDBRANCH  11  13
ENDBRANCH   5  10
BRANCH   4  24
HETATM   24  N3  UNL     1      31.058  47.487   6.082  1.00  0.00    -0.290 N
ATOM     25  H3  UNL     1      31.175  47.263   5.094  1.00  0.00     0.188 HD
BRANCH  24  26
HETATM   26  N4  UNL     1      32.185  47.619   6.898  1.00  0.00    -0.344 N
ATOM     27  H42 UNL     1      33.108  47.521   6.474  1.00  0.00     0.176 HD
ATOM     28  H41 UNL     1      32.089  47.810   7.895  1.00  0.00     0.176 HD
ENDBRANCH  24  26
ENDBRANCH   4  24
BRANCH   1  29
HETATM   29  N1  UNL     1      28.178  49.102   9.404  1.00  0.00    -0.234 N
ATOM     30  H12 UNL     1      28.324  48.584  10.270  1.00  0.00     0.174 HD
ATOM     31  H11 UNL     1      27.886  50.079   9.427  1.00  0.00     0.174 HD
ENDBRANCH   1  29
TORSDOF 7
ENDMDL