MODEL 4
REMARK VINA RESULT: -6.881496294      3.911      6.928
REMARK  7 active torsions:
REMARK  status: ('A' for Active; 'I' for Inactive)
REMARK    1  A    between atoms: N1_2  and  N2_3
REMARK    2  A    between atoms: N1_2  and  S1_20
REMARK    3  A    between atoms: N2_3  and  C2_5
REMARK    4  A    between atoms: C3_7  and  O2_8
REMARK    5  A    between atoms: C4_10  and  C5_11
REMARK       I    between atoms: C5_11  and  N3_13
REMARK    6  A    between atoms: N3_13  and  N4_15
REMARK    7  A    between atoms: S1_20  and  N6_21
ROOT
HETATM    1  C2  UNL     1      28.389  44.446   4.573  1.00  0.00     0.187 A
HETATM    2  O1  UNL     1      27.108  44.667   4.635  1.00  0.00    -0.267 OA
HETATM    3  C3  UNL     1      26.770  45.317   5.687  1.00  0.00     0.203 A
HETATM    4  C4  UNL     1      27.955  45.564   6.422  1.00  0.00     0.120 A
HETATM    5  C6  UNL     1      28.984  45.006   5.706  1.00  0.00     0.119 A
HETATM    6  N5  UNL     1      30.388  44.952   5.973  1.00  0.00    -0.097 NA
ENDROOT
BRANCH   1   7
HETATM    7  N2  UNL     1      29.100  43.762   3.554  1.00  0.00    -0.283 N
ATOM      8  H2  UNL     1      29.340  44.252   2.693  1.00  0.00     0.184 HD
BRANCH   7   9
HETATM    9  N1  UNL     1      29.471  42.438   3.716  1.00  0.00    -0.106 NA
HETATM   10  C1  UNL     1      30.636  42.233   2.842  1.00  0.00     0.158 C
BRANCH   9  11
HETATM   11  S1  UNL     1      28.208  41.371   3.195  1.00  0.00     0.313 S
HETATM   12  O4  UNL     1      28.709  40.406   2.146  1.00  0.00    -0.187 OA
HETATM   13  O5  UNL     1      27.707  40.582   4.358  1.00  0.00    -0.187 OA
BRANCH  11  14
HETATM   14  N6  UNL     1      26.894  42.237   2.486  1.00  0.00    -0.314 N
ATOM     15  H62 UNL     1      26.981  43.186   2.120  1.00  0.00     0.170 HD
ATOM     16  H61 UNL     1      26.037  41.685   2.484  1.00  0.00     0.170 HD
ENDBRANCH  11  14
ENDBRANCH   9  11
ENDBRANCH   7   9
ENDBRANCH   1   7
BRANCH   3  17
HETATM   17  O2  UNL     1      25.515  45.747   6.121  1.00  0.00    -0.340 OA
ATOM     18  H2  UNL     1      24.657  45.353   6.010  1.00  0.00     0.220 HD
ENDBRANCH   3  17
BRANCH   4  19
HETATM   19  C5  UNL     1      28.038  46.270   7.661  1.00  0.00     0.276 C
HETATM   20  O3  UNL     1      28.987  47.122   7.802  1.00  0.00    -0.266 OA
HETATM   21  N3  UNL     1      27.180  46.118   8.742  1.00  0.00    -0.272 N
ATOM     22  H3  UNL     1      26.409  45.453   8.679  1.00  0.00     0.189 HD
BRANCH  21  23
HETATM   23  N4  UNL     1      27.355  46.875   9.942  1.00  0.00    -0.342 N
ATOM     24  H42 UNL     1      27.594  47.864   9.860  1.00  0.00     0.176 HD
ATOM     25  H41 UNL     1      27.245  46.446  10.861  1.00  0.00     0.176 HD
ENDBRANCH  21  23
ENDBRANCH   4  19
TORSDOF 7
ENDMDL