MODEL 1
REMARK VINA RESULT: -7.672142941      0.000      0.000
REMARK  8 active torsions:
REMARK  status: ('A' for Active; 'I' for Inactive)
REMARK    1  A    between atoms: N1_2  and  C2_3
REMARK    2  A    between atoms: N1_2  and  O1_9
REMARK    3  A    between atoms: C2_3  and  C3_4
REMARK    4  A    between atoms: C3_4  and  N2_5
REMARK    5  A    between atoms: O1_9  and  C4_10
REMARK    6  A    between atoms: C4_10  and  N3_11
REMARK    7  A    between atoms: C4_10  and  C5_15
REMARK    8  A    between atoms: N3_11  and  N4_12
ROOT
HETATM    1  C5  UNL     1      28.331  45.133   4.364  1.00  0.00     0.103 A
HETATM    2  C6  UNL     1      27.716  45.368   5.560  1.00  0.00     0.090 A
HETATM    3  N5  UNL     1      26.390  44.955   5.792  1.00  0.00    -0.100 NA
HETATM    4  C7  UNL     1      28.372  46.013   6.583  1.00  0.00     0.111 A
HETATM    5  C8  UNL     1      27.705  46.261   7.849  1.00  0.00     0.105 C
HETATM    6  N6  UNL     1      27.190  46.446   8.860  1.00  0.00    -0.191 NA
HETATM    7  C9  UNL     1      29.671  46.440   6.436  1.00  0.00     0.140 A
HETATM    8  N7  UNL     1      30.337  47.112   7.511  1.00  0.00    -0.081 NA
HETATM    9  N8  UNL     1      30.285  46.209   5.255  1.00  0.00    -0.329 N
ATOM     10  H8  UNL     1      31.249  46.515   5.121  1.00  0.00     0.168 HD
HETATM   11  C10 UNL     1      29.653  45.586   4.263  1.00  0.00     0.118 A
HETATM   12  N9  UNL     1      30.265  45.382   3.169  1.00  0.00    -0.385 N
ATOM     13  H91 UNL     1      31.227  45.712   3.095  1.00  0.00     0.157 HD
ATOM     14  H92 UNL     1      29.780  44.905   2.409  1.00  0.00     0.157 HD
ENDROOT
BRANCH   1  15
HETATM   15  C4  UNL     1      27.668  44.456   3.222  1.00  0.00     0.279 C
BRANCH  15  16
HETATM   16  O1  UNL     1      27.285  43.123   3.457  1.00  0.00    -0.201 OA
BRANCH  16  17
HETATM   17  N1  UNL     1      27.952  42.134   2.900  1.00  0.00    -0.267 N
HETATM   18  C1  UNL     1      27.364  41.299   1.932  1.00  0.00     0.184 C
BRANCH  17  19
HETATM   19  C2  UNL     1      29.182  41.736   3.456  1.00  0.00     0.117 C
BRANCH  19  20
HETATM   20  C3  UNL     1      29.806  40.517   2.833  1.00  0.00     0.276 C
BRANCH  20  21
HETATM   21  N2  UNL     1      30.983  40.041   3.486  1.00  0.00    -0.075 N
ATOM     22  H23 UNL     1      31.756  40.690   3.337  1.00  0.00     0.274 HD
ATOM     23  H22 UNL     1      30.879  40.118   4.498  1.00  0.00     0.274 HD
ATOM     24  H21 UNL     1      31.264  39.094   3.231  1.00  0.00     0.274 HD
ENDBRANCH  20  21
ENDBRANCH  19  20
ENDBRANCH  17  19
ENDBRANCH  16  17
ENDBRANCH  15  16
BRANCH  15  25
HETATM   25  N3  UNL     1      27.462  44.958   2.185  1.00  0.00    -0.304 NA
BRANCH  25  26
HETATM   26  N4  UNL     1      27.235  45.513   1.034  1.00  0.00    -0.278 N
ATOM     27  H42 UNL     1      27.409  44.984   1.888  1.00  0.00     0.191 HD
ATOM     28  H41 UNL     1      27.056  45.952   0.130  1.00  0.00     0.191 HD
ENDBRANCH  25  26
ENDBRANCH  15  25
ENDBRANCH   1  15
TORSDOF 8
ENDMDL