MODEL 1
REMARK VINA RESULT: -7.482272460      0.000      0.000
REMARK  5 active torsions:
REMARK  status: ('A' for Active; 'I' for Inactive)
REMARK    1  A    between atoms: N1_2  and  N2_3
REMARK    2  A    between atoms: N2_3  and  C2_4
REMARK    3  A    between atoms: C5_8  and  N3_9
REMARK    4  A    between atoms: N3_9  and  C6_11
REMARK    5  A    between atoms: C8_19  and  N7_20
ROOT
HETATM    1  C6  UNL     1      27.736  46.060   5.676  1.00  0.00     0.682 A
HETATM    2  N4  UNL     1      27.767  47.389   5.935  1.00  0.00    -0.172 N
ATOM      3  H4  UNL     1      27.788  48.118   5.222  1.00  0.00     0.186 HD
HETATM    4  C7  UNL     1      27.768  47.618   7.258  1.00  0.00     0.181 A
HETATM    5  N5  UNL     1      27.792  48.694   8.062  1.00  0.00    -0.268 N
ATOM      6  H5  UNL     1      27.817  49.623   7.641  1.00  0.00     0.189 HD
HETATM    7  N6  UNL     1      27.785  48.590   9.384  1.00  0.00    -0.131 N
ATOM      8  H6  UNL     1      27.803  49.432   9.960  1.00  0.00     0.205 HD
HETATM    9  C8  UNL     1      27.753  47.383   9.968  1.00  0.00     0.692 A
HETATM   10  N8  UNL     1      27.729  46.259   9.213  1.00  0.00    -0.171 N
ATOM     11  H8  UNL     1      27.705  45.353   9.682  1.00  0.00     0.186 HD
HETATM   12  C9  UNL     1      27.734  46.292   7.865  1.00  0.00     0.182 A
HETATM   13  N9  UNL     1      27.716  45.400   6.859  1.00  0.00    -0.172 N
ATOM     14  H9  UNL     1      27.691  44.386   6.970  1.00  0.00     0.186 HD
ENDROOT
BRANCH   1  15
HETATM   15  N3  UNL     1      27.727  45.513   4.368  1.00  0.00    -0.217 N
ATOM     16  H3  UNL     1      27.107  45.906   3.660  1.00  0.00     0.178 HD
BRANCH  15  17
HETATM   17  C5  UNL     1      28.574  44.422   4.036  1.00  0.00     0.146 C
HETATM   18  C2  UNL     1      28.538  44.063   2.565  1.00  0.00     0.144 C
HETATM   19  C3  UNL     1      29.885  43.396   2.407  1.00  0.00     0.192 C
HETATM   20  O1  UNL     1      30.742  43.935   3.325  1.00  0.00    -0.387 OA
HETATM   21  C4  UNL     1      30.056  44.755   4.180  1.00  0.00     0.195 C
BRANCH  18  22
HETATM   22  N2  UNL     1      27.452  43.156   2.248  1.00  0.00    -0.140 NA
BRANCH  22  23
HETATM   23  N1  UNL     1      27.112  42.498   3.446  1.00  0.00    -0.153 NA
HETATM   24  C1  UNL     1      27.187  41.045   3.268  1.00  0.00     0.154 C
ENDBRANCH  22  23
ENDBRANCH  18  22
ENDBRANCH  15  17
ENDBRANCH   1  15
BRANCH   9  25
HETATM   25  N7  UNL     1      27.748  47.315  11.248  1.00  0.00    -0.233 N
ATOM     26  H72 UNL     1      28.428  47.835  11.802  1.00  0.00     0.174 HD
ATOM     27  H71 UNL     1      27.049  46.730  11.707  1.00  0.00     0.174 HD
ENDBRANCH   9  25
TORSDOF 5
ENDMDL