MODEL 3
REMARK VINA RESULT: -6.665694223      2.636      3.769
REMARK  9 active torsions:
REMARK  status: ('A' for Active; 'I' for Inactive)
REMARK    1  A    between atoms: C2_2  and  N1_3
REMARK    2  A    between atoms: C2_2  and  N2_7
REMARK    3  A    between atoms: N2_7  and  N3_9
REMARK    4  A    between atoms: N3_9  and  C3_10
REMARK    5  A    between atoms: C5_12  and  C6_13
REMARK    6  A    between atoms: C6_13  and  N4_14
REMARK    7  A    between atoms: C6_13  and  N5_18
REMARK    8  A    between atoms: C7_22  and  N6_23
REMARK    9  A    between atoms: N6_23  and  O1_25
ROOT
HETATM    1  C3  UNL     1      29.873  49.082   9.882  1.00  0.00     0.199 C
HETATM    2  C4  UNL     1      29.287  48.011  10.614  1.00  0.00     0.066 C
HETATM    3  C5  UNL     1      28.569  46.914  10.176  1.00  0.00     0.036 C
HETATM    4  C7  UNL     1      27.805  46.918   9.036  1.00  0.00     0.132 C
HETATM    5  C8  UNL     1      27.741  47.885   8.023  1.00  0.00     0.277 C
HETATM    6  O2  UNL     1      26.787  47.862   7.212  1.00  0.00    -0.266 OA
HETATM    7  N7  UNL     1      28.621  48.891   7.788  1.00  0.00    -0.286 N
ATOM      8  H7  UNL     1      28.460  49.413   6.927  1.00  0.00     0.172 HD
HETATM    9  C9  UNL     1      29.666  49.303   8.514  1.00  0.00     0.291 C
HETATM   10  O3  UNL     1      30.559  49.963   7.921  1.00  0.00    -0.264 OA
ENDROOT
BRANCH   1  11
HETATM   11  N3  UNL     1      30.654  49.906  10.552  1.00  0.00    -0.323 NA
BRANCH  11  12
HETATM   12  N2  UNL     1      31.345  50.624  11.115  1.00  0.00    -0.240 N
ATOM     13  H2  UNL     1      30.926  51.185  11.858  1.00  0.00     0.197 HD
BRANCH  12  14
HETATM   14  C2  UNL     1      32.799  50.811  10.861  1.00  0.00     0.304 C
HETATM   15  C1  UNL     1      33.212  52.188  11.354  1.00  0.00     0.065 C
BRANCH  14  16
HETATM   16  N1  UNL     1      33.044  50.779   9.447  1.00  0.00    -0.057 N
ATOM     17  H13 UNL     1      33.514  49.928   9.142  1.00  0.00     0.276 HD
ATOM     18  H12 UNL     1      32.193  50.663   8.897  1.00  0.00     0.276 HD
ATOM     19  H11 UNL     1      33.559  51.628   9.214  1.00  0.00     0.276 HD
ENDBRANCH  14  16
ENDBRANCH  12  14
ENDBRANCH  11  12
ENDBRANCH   1  11
BRANCH   3  20
HETATM   20  C6  UNL     1      28.673  45.708  11.022  1.00  0.00     0.413 C
BRANCH  20  21
HETATM   21  N4  UNL     1      30.068  45.240  10.854  1.00  0.00    -0.046 N
ATOM     22  H43 UNL     1      30.210  44.264  11.114  1.00  0.00     0.277 HD
ATOM     23  H42 UNL     1      30.357  45.144   9.880  1.00  0.00     0.277 HD
ATOM     24  H41 UNL     1      30.634  45.896  11.391  1.00  0.00     0.277 HD
ENDBRANCH  20  21
BRANCH  20  25
HETATM   25  N5  UNL     1      28.438  45.856  12.410  1.00  0.00    -0.046 N
ATOM     26  H53 UNL     1      29.283  45.601  12.922  1.00  0.00     0.277 HD
ATOM     27  H52 UNL     1      28.369  46.849  12.635  1.00  0.00     0.277 HD
ATOM     28  H51 UNL     1      27.640  45.365  12.811  1.00  0.00     0.277 HD
ENDBRANCH  20  25
ENDBRANCH   3  20
BRANCH   4  29
HETATM   29  N6  UNL     1      26.951  45.836   8.754  1.00  0.00    -0.263 N
ATOM     30  H6  UNL     1      27.377  44.909   8.703  1.00  0.00     0.194 HD
BRANCH  29  31
HETATM   31  O1  UNL     1      25.613  45.912   8.541  1.00  0.00    -0.289 OA
ATOM     32  H1  UNL     1      24.990  46.385   9.080  1.00  0.00     0.244 HD
ENDBRANCH  29  31
ENDBRANCH   4  29
TORSDOF 9
ENDMDL