MODEL 3
REMARK VINA RESULT: -7.629547665      2.927      7.594
REMARK  6 active torsions:
REMARK  status: ('A' for Active; 'I' for Inactive)
REMARK    1  A    between atoms: N1_1  and  C1_4
REMARK    2  A    between atoms: C3_10  and  S1_11
REMARK    3  A    between atoms: S1_11  and  C4_12
REMARK    4  A    between atoms: C6_14  and  C7_15
REMARK       I    between atoms: C7_15  and  N3_17
REMARK    5  A    between atoms: N3_17  and  N4_19
REMARK    6  A    between atoms: C9_26  and  N7_27
ROOT
HETATM    1  S1  UNL     1      27.272  46.771   8.184  1.00  0.00    -0.044 SA
ENDROOT
BRANCH   1   2
HETATM    2  C3  UNL     1      28.428  46.481   9.530  1.00  0.00     0.160 A
HETATM    3  O2  UNL     1      28.204  45.599  10.468  1.00  0.00    -0.251 OA
HETATM    4  C2  UNL     1      28.998  45.343  11.465  1.00  0.00     0.372 A
HETATM    5  N2  UNL     1      30.162  46.040  11.557  1.00  0.00    -0.286 N
HETATM    6  O1  UNL     1      28.737  44.474  12.354  1.00  0.00    -0.238 OA
HETATM    7  C1  UNL     1      30.481  46.966  10.642  1.00  0.00     0.140 A
ATOM      8  H2  UNL     1      30.800  45.856  12.332  1.00  0.00     0.172 HD
HETATM    9  C9  UNL     1      29.606  47.199   9.606  1.00  0.00     0.187 A
BRANCH   7  10
HETATM   10  N1  UNL     1      31.595  47.599  10.775  1.00  0.00    -0.383 N
ATOM     11  H12 UNL     1      32.230  47.448  11.559  1.00  0.00     0.157 HD
ATOM     12  H11 UNL     1      31.852  48.282  10.063  1.00  0.00     0.157 HD
ENDBRANCH   7  10
BRANCH   9  13
HETATM   13  N7  UNL     1      29.906  48.170   8.618  1.00  0.00    -0.108 N
HETATM   14  O4  UNL     1      30.668  47.826   7.692  1.00  0.00    -0.532 OA
HETATM   15  O5  UNL     1      29.409  49.436   8.637  1.00  0.00    -0.532 OA
ENDBRANCH   9  13
ENDBRANCH   1   2
BRANCH   1  16
HETATM   16  C4  UNL     1      27.836  45.941   6.714  1.00  0.00     0.078 A
HETATM   17  C5  UNL     1      27.148  45.924   5.519  1.00  0.00     0.057 A
HETATM   18  C6  UNL     1      27.890  45.187   4.615  1.00  0.00     0.077 A
HETATM   19  C8  UNL     1      29.014  44.779   5.299  1.00  0.00     0.133 A
HETATM   20  N5  UNL     1      30.058  43.985   4.733  1.00  0.00    -0.082 NA
HETATM   21  N6  UNL     1      28.966  45.244   6.575  1.00  0.00    -0.338 N
ATOM     22  H6  UNL     1      29.669  45.090   7.298  1.00  0.00     0.167 HD
BRANCH  18  23
HETATM   23  C7  UNL     1      27.560  44.899   3.225  1.00  0.00     0.273 C
HETATM   24  O3  UNL     1      26.484  44.306   2.966  1.00  0.00    -0.266 OA
HETATM   25  N3  UNL     1      28.410  45.265   2.158  1.00  0.00    -0.272 N
ATOM     26  H3  UNL     1      29.287  45.748   2.348  1.00  0.00     0.189 HD
BRANCH  25  27
HETATM   27  N4  UNL     1      28.050  44.968   0.847  1.00  0.00    -0.342 N
ATOM     28  H42 UNL     1      27.537  44.107   0.659  1.00  0.00     0.176 HD
ATOM     29  H41 UNL     1      28.300  45.606   0.091  1.00  0.00     0.176 HD
ENDBRANCH  25  27
ENDBRANCH  18  23
ENDBRANCH   1  16
TORSDOF 6
ENDMDL