MODEL 2
REMARK VINA RESULT: -7.571716488      4.036      5.510
REMARK  8 active torsions:
REMARK  status: ('A' for Active; 'I' for Inactive)
REMARK    1  A    between atoms: C2_2  and  N1_3
REMARK    2  A    between atoms: C2_2  and  C3_7
REMARK       I    between atoms: C3_7  and  N2_9
REMARK    3  A    between atoms: N2_9  and  C4_10
REMARK    4  A    between atoms: C6_13  and  N4_14
REMARK       I    between atoms: N4_14  and  C7_16
REMARK    5  A    between atoms: C9_21  and  C10_22
REMARK    6  A    between atoms: C10_22  and  O4_24
REMARK    7  A    between atoms: O4_24  and  N7_25
REMARK    8  A    between atoms: C11_28  and  O5_29
ROOT
HETATM    1  C4  UNL     1      30.619  45.536   4.328  1.00  0.00     0.171 A
HETATM    2  C5  UNL     1      29.705  45.505   5.370  1.00  0.00     0.118 A
HETATM    3  N3  UNL     1      30.131  45.988   6.632  1.00  0.00    -0.096 NA
HETATM    4  C6  UNL     1      28.427  45.022   5.183  1.00  0.00     0.089 A
HETATM    5  C8  UNL     1      28.059  44.565   3.936  1.00  0.00     0.094 A
HETATM    6  N6  UNL     1      26.759  44.065   3.685  1.00  0.00    -0.099 NA
HETATM    7  C9  UNL     1      28.943  44.571   2.842  1.00  0.00     0.104 A
HETATM    8  C11 UNL     1      30.205  45.051   3.040  1.00  0.00     0.127 A
ENDROOT
BRANCH   1   9
HETATM    9  N2  UNL     1      31.845  46.032   4.502  1.00  0.00    -0.364 NA
HETATM   10  C3  UNL     1      33.097  46.540   4.678  1.00  0.00     0.322 C
HETATM   11  O1  UNL     1      33.978  46.893   3.839  1.00  0.00    -0.255 OA
BRANCH  10  12
HETATM   12  C2  UNL     1      33.575  46.739   6.116  1.00  0.00     0.285 C
HETATM   13  C1  UNL     1      35.034  47.061   6.152  1.00  0.00     0.051 C
BRANCH  12  14
HETATM   14  N1  UNL     1      32.824  47.806   6.716  1.00  0.00    -0.066 N
ATOM     15  H13 UNL     1      33.419  48.594   6.976  1.00  0.00     0.275 HD
ATOM     16  H12 UNL     1      32.232  48.286   6.037  1.00  0.00     0.275 HD
ATOM     17  H11 UNL     1      32.289  47.452   7.508  1.00  0.00     0.275 HD
ENDBRANCH  12  14
ENDBRANCH  10  12
ENDBRANCH   1   9
BRANCH   8  18
HETATM   18  O5  UNL     1      31.124  45.095   2.046  1.00  0.00    -0.356 OA
ATOM     19  H5  UNL     1      31.432  45.955   1.786  1.00  0.00     0.218 HD
ENDBRANCH   8  18
BRANCH   4  20
HETATM   20  N4  UNL     1      27.542  45.008   6.285  1.00  0.00    -0.308 N
HETATM   21  C7  UNL     1      26.563  46.007   6.518  1.00  0.00     0.333 C
HETATM   22  N5  UNL     1      25.670  46.002   7.612  1.00  0.00    -0.040 NA
HETATM   23  O2  UNL     1      26.445  46.994   5.710  1.00  0.00    -0.251 OA
ATOM     24  H4  UNL     1      27.612  44.238   6.949  1.00  0.00     0.170 HD
ENDBRANCH   4  20
BRANCH   7  25
HETATM   25  C10 UNL     1      28.484  44.071   1.563  1.00  0.00     0.319 C
HETATM   26  O3  UNL     1      28.486  42.885   1.249  1.00  0.00    -0.257 OA
BRANCH  25  27
HETATM   27  O4  UNL     1      27.999  44.969   0.597  1.00  0.00    -0.202 OA
BRANCH  27  28
HETATM   28  N7  UNL     1      27.190  46.029   0.986  1.00  0.00    -0.302 N
ATOM     29  H72 UNL     1      27.594  46.964   1.055  1.00  0.00     0.184 HD
ATOM     30  H71 UNL     1      26.206  45.864   1.199  1.00  0.00     0.184 HD
ENDBRANCH  27  28
ENDBRANCH  25  27
ENDBRANCH   7  25
TORSDOF 8
ENDMDL