MODEL 5
REMARK VINA RESULT: -7.381971037      2.625      4.446
REMARK  5 active torsions:
REMARK  status: ('A' for Active; 'I' for Inactive)
REMARK    1  A    between atoms: N1_1  and  C1_4
REMARK    2  A    between atoms: C2_7  and  C3_8
REMARK    3  A    between atoms: C4_12  and  C5_13
REMARK    4  A    between atoms: N4_19  and  O3_21
REMARK    5  A    between atoms: C8_23  and  N5_24
ROOT
HETATM    1  C1  UNL     1      28.914  48.387  10.486  1.00  0.00     0.679 A
HETATM    2  N2  UNL     1      29.320  48.020   9.279  1.00  0.00    -0.191 N
ATOM      3  H2  UNL     1      28.780  47.301   8.798  1.00  0.00     0.184 HD
HETATM    4  C2  UNL     1      30.415  48.536   8.626  1.00  0.00     0.102 A
HETATM    5  C8  UNL     1      31.104  49.491   9.300  1.00  0.00     0.196 A
HETATM    6  C9  UNL     1      30.662  49.874  10.585  1.00  0.00     0.294 A
HETATM    7  O6  UNL     1      31.306  50.768  11.219  1.00  0.00    -0.265 OA
HETATM    8  N6  UNL     1      29.597  49.329  11.148  1.00  0.00    -0.154 N
ATOM      9  H6  UNL     1      29.298  49.623  12.077  1.00  0.00     0.187 HD
ENDROOT
BRANCH   4  10
HETATM   10  C3  UNL     1      30.752  48.033   7.307  1.00  0.00     0.297 C
HETATM   11  N3  UNL     1      31.849  47.101   7.277  1.00  0.00    -0.044 N
HETATM   12  C4  UNL     1      32.544  47.203   5.970  1.00  0.00     0.296 C
ATOM     13  H32 UNL     1      32.485  47.228   8.064  1.00  0.00     0.279 HD
ATOM     14  H31 UNL     1      31.552  46.148   7.483  1.00  0.00     0.279 HD
HETATM   15  C6  UNL     1      31.841  46.283   4.979  1.00  0.00     0.125 C
HETATM   16  S1  UNL     1      30.116  46.019   5.534  1.00  0.00    -0.110 SA
HETATM   17  C7  UNL     1      29.677  47.541   6.441  1.00  0.00     0.105 C
HETATM   18  N4  UNL     1      28.531  48.100   6.260  1.00  0.00    -0.264 N
ATOM     19  H4  UNL     1      28.288  48.969   6.735  1.00  0.00     0.194 HD
BRANCH  12  20
HETATM   20  C5  UNL     1      33.972  46.862   6.132  1.00  0.00     0.205 C
HETATM   21  O1  UNL     1      34.392  45.694   5.976  1.00  0.00    -0.646 OA
HETATM   22  O2  UNL     1      34.898  47.835   6.468  1.00  0.00    -0.646 OA
ENDBRANCH  12  20
BRANCH  18  23
HETATM   23  O3  UNL     1      27.647  47.489   5.407  1.00  0.00    -0.289 OA
ATOM     24  H3  UNL     1      27.806  46.581   5.177  1.00  0.00     0.244 HD
ENDBRANCH  18  23
ENDBRANCH   4  10
BRANCH   5  25
HETATM   25  N5  UNL     1      32.237  50.169   8.795  1.00  0.00    -0.108 N
HETATM   26  O4  UNL     1      32.138  51.283   8.296  1.00  0.00    -0.532 OA
HETATM   27  O5  UNL     1      33.459  49.582   8.891  1.00  0.00    -0.532 OA
ENDBRANCH   5  25
BRANCH   1  28
HETATM   28  N1  UNL     1      27.852  47.829  11.023  1.00  0.00    -0.234 N
ATOM     29  H12 UNL     1      27.475  48.174  11.905  1.00  0.00     0.174 HD
ATOM     30  H11 UNL     1      27.397  47.042  10.560  1.00  0.00     0.174 HD
ENDBRANCH   1  28
TORSDOF 5
ENDMDL