MODEL 4
REMARK VINA RESULT: -6.941474254      3.659      5.652
REMARK  5 active torsions:
REMARK  status: ('A' for Active; 'I' for Inactive)
REMARK    1  A    between atoms: S1_2  and  C2_3
REMARK    2  A    between atoms: C3_6  and  N2_7
REMARK    3  A    between atoms: C4_10  and  C5_11
REMARK    4  A    between atoms: C6_14  and  C7_15
REMARK    5  A    between atoms: C8_20  and  C9_21
ROOT
HETATM    1  C5  UNL     1      29.320  46.341   6.035  1.00  0.00     0.126 A
HETATM    2  N3  UNL     1      30.183  45.581   5.388  1.00  0.00    -0.337 N
ATOM      3  H3  UNL     1      31.182  45.540   5.592  1.00  0.00     0.167 HD
HETATM    4  C6  UNL     1      29.550  44.837   4.384  1.00  0.00     0.107 A
HETATM    5  C8  UNL     1      28.240  45.204   4.474  1.00  0.00     0.131 A
HETATM    6  N7  UNL     1      28.115  46.134   5.498  1.00  0.00    -0.331 N
HETATM    7  C10 UNL     1      26.846  46.730   5.860  1.00  0.00     0.158 C
ENDROOT
BRANCH   1   8
HETATM    8  C4  UNL     1      29.630  47.252   7.148  1.00  0.00     0.093 A
HETATM    9  C3  UNL     1      29.761  48.615   6.972  1.00  0.00     0.118 A
HETATM   10  N1  UNL     1      30.044  49.445   7.991  1.00  0.00    -0.322 N
HETATM   11  C2  UNL     1      30.203  48.916   9.214  1.00  0.00     0.146 A
ATOM     12  H1  UNL     1      30.137  50.449   7.838  1.00  0.00     0.169 HD
HETATM   13  N9  UNL     1      30.083  47.603   9.419  1.00  0.00    -0.324 N
HETATM   14  C11 UNL     1      29.800  46.747   8.417  1.00  0.00     0.136 A
ATOM     15  H9  UNL     1      30.209  47.235  10.361  1.00  0.00     0.169 HD
HETATM   16  N8  UNL     1      29.683  45.349   8.698  1.00  0.00    -0.082 NA
BRANCH   9  17
HETATM   17  N2  UNL     1      29.608  49.132   5.783  1.00  0.00    -0.385 N
ATOM     18  H22 UNL     1      30.405  49.185   5.148  1.00  0.00     0.157 HD
ATOM     19  H21 UNL     1      28.682  49.472   5.523  1.00  0.00     0.157 HD
ENDBRANCH   9  17
BRANCH  11  20
HETATM   20  S1  UNL     1      30.579  50.008  10.572  1.00  0.00    -0.098 SA
HETATM   21  C1  UNL     1      30.373  49.075  12.108  1.00  0.00     0.099 C
ENDBRANCH  11  20
ENDBRANCH   1   8
BRANCH   4  22
HETATM   22  C7  UNL     1      30.289  43.949   3.524  1.00  0.00     0.139 C
HETATM   23  N4  UNL     1      31.036  44.503   2.595  1.00  0.00    -0.386 N
ATOM     24  H42 UNL     1      31.024  45.524   2.598  1.00  0.00     0.157 HD
ATOM     25  H41 UNL     1      31.559  43.875   1.987  1.00  0.00     0.157 HD
HETATM   26  N5  UNL     1      30.305  42.567   3.519  1.00  0.00    -0.081 NA
ENDBRANCH   4  22
BRANCH   5  27
HETATM   27  C9  UNL     1      27.104  44.711   3.719  1.00  0.00     0.284 C
HETATM   28  N6  UNL     1      26.274  43.630   4.016  1.00  0.00    -0.056 NA
HETATM   29  O1  UNL     1      26.775  45.322   2.626  1.00  0.00    -0.269 OA
ENDBRANCH   5  27
TORSDOF 5
ENDMDL