MODEL 3
REMARK VINA RESULT: -7.921761916      3.222      5.093
REMARK  8 active torsions:
REMARK  status: ('A' for Active; 'I' for Inactive)
REMARK    1  A    between atoms: C2_2  and  C3_3
REMARK       I    between atoms: C3_3  and  N1_5
REMARK    2  A    between atoms: N1_5  and  C4_7
REMARK    3  A    between atoms: C6_14  and  N5_15
REMARK    4  A    between atoms: N5_15  and  C7_17
REMARK    5  A    between atoms: C9_19  and  N6_20
REMARK    6  A    between atoms: C11_27  and  O2_28
REMARK    7  A    between atoms: C12_30  and  N8_31
REMARK    8  A    between atoms: N8_31  and  O3_33
ROOT
HETATM    1  C4  UNL     1      33.559  50.714   9.324  1.00  0.00     0.110 A
HETATM    2  C5  UNL     1      34.106  50.462   8.127  1.00  0.00     0.160 A
HETATM    3  N2  UNL     1      35.135  51.308   7.567  1.00  0.00    -0.079 NA
HETATM    4  N3  UNL     1      33.709  49.412   7.379  1.00  0.00    -0.284 N
ATOM      5  H3  UNL     1      34.143  49.246   6.471  1.00  0.00     0.188 HD
HETATM    6  N4  UNL     1      32.747  48.581   7.819  1.00  0.00    -0.282 N
ATOM      7  H4  UNL     1      32.465  47.797   7.231  1.00  0.00     0.188 HD
HETATM    8  C6  UNL     1      32.147  48.751   9.002  1.00  0.00     0.147 A
HETATM    9  C12 UNL     1      32.554  49.826   9.765  1.00  0.00     0.129 A
ENDROOT
BRANCH   8  10
HETATM   10  N5  UNL     1      31.198  48.027   9.402  1.00  0.00    -0.364 N
ATOM     11  H5  UNL     1      31.343  47.587  10.311  1.00  0.00     0.161 HD
BRANCH  10  12
HETATM   12  C7  UNL     1      29.955  47.729   8.780  1.00  0.00     0.133 C
HETATM   13  C8  UNL     1      29.312  46.428   9.072  1.00  0.00     0.064 C
HETATM   14  C9  UNL     1      28.049  46.290   8.234  1.00  0.00     0.203 C
HETATM   15  C10 UNL     1      27.727  47.499   7.400  1.00  0.00     0.149 C
HETATM   16  N7  UNL     1      27.900  48.745   8.082  1.00  0.00    -0.393 N
HETATM   17  C11 UNL     1      28.912  48.827   9.078  1.00  0.00     0.236 C
ATOM     18  H7  UNL     1      27.315  49.550   7.861  1.00  0.00     0.155 HD
BRANCH  14  19
HETATM   19  N6  UNL     1      26.914  45.895   9.037  1.00  0.00    -0.073 N
ATOM     20  H63 UNL     1      26.295  45.268   8.523  1.00  0.00     0.274 HD
ATOM     21  H62 UNL     1      27.192  45.263   9.789  1.00  0.00     0.274 HD
ATOM     22  H61 UNL     1      26.407  46.702   9.399  1.00  0.00     0.274 HD
ENDBRANCH  14  19
BRANCH  17  23
HETATM   23  O2  UNL     1      28.421  48.661  10.362  1.00  0.00    -0.375 OA
ATOM     24  H2  UNL     1      28.609  49.438  10.876  1.00  0.00     0.212 HD
ENDBRANCH  17  23
ENDBRANCH  10  12
ENDBRANCH   8  10
BRANCH   9  25
HETATM   25  N8  UNL     1      31.961  50.073  11.023  1.00  0.00    -0.263 N
ATOM     26  H8  UNL     1      32.356  49.689  11.882  1.00  0.00     0.194 HD
BRANCH  25  27
HETATM   27  O3  UNL     1      30.908  50.798  11.039  1.00  0.00    -0.289 OA
ATOM     28  H3  UNL     1      30.980  51.658  11.436  1.00  0.00     0.244 HD
ENDBRANCH  25  27
ENDBRANCH   9  25
BRANCH   1  29
HETATM   29  N1  UNL     1      33.844  51.855  10.092  1.00  0.00    -0.319 N
HETATM   30  C3  UNL     1      34.899  52.087  10.995  1.00  0.00     0.245 C
HETATM   31  O1  UNL     1      35.776  51.181  11.201  1.00  0.00    -0.268 OA
ATOM     32  H1  UNL     1      33.189  52.629   9.980  1.00  0.00     0.169 HD
BRANCH  30  33
HETATM   33  C2  UNL     1      35.061  53.311  11.703  1.00  0.00     0.064 C
HETATM   34  C1  UNL     1      36.049  54.148  11.429  1.00  0.00     0.017 C
ENDBRANCH  30  33
ENDBRANCH   1  29
TORSDOF 8
ENDMDL