MODEL 4
REMARK VINA RESULT: -7.839772491      7.043      9.418
REMARK  8 active torsions:
REMARK  status: ('A' for Active; 'I' for Inactive)
REMARK    1  A    between atoms: C7_16  and  S1_17
REMARK    2  A    between atoms: S1_17  and  S2_18
REMARK    3  A    between atoms: S2_18  and  N5_19
REMARK    4  A    between atoms: N5_19  and  N6_20
REMARK    5  A    between atoms: N5_19  and  C8_23
REMARK    6  A    between atoms: C8_23  and  C10_25
REMARK    7  A    between atoms: C10_25  and  O2_26
REMARK    8  A    between atoms: C10_25  and  O3_28
ROOT
HETATM    1  C1  UNL     1      32.442  46.844   6.052  1.00  0.00     0.038 C
HETATM    2  C2  UNL     1      31.268  46.360   5.283  1.00  0.00     0.001 C
HETATM    3  C3  UNL     1      30.201  45.884   5.903  1.00  0.00     0.064 C
HETATM    4  N1  UNL     1      30.202  45.847   7.319  1.00  0.00    -0.191 N
ATOM      5  H1  UNL     1      31.122  45.945   7.748  1.00  0.00     0.184 HD
HETATM    6  C4  UNL     1      29.117  45.693   8.248  1.00  0.00     0.679 C
HETATM    7  N2  UNL     1      29.425  45.520   9.468  1.00  0.00    -0.234 N
ATOM      8  H21 UNL     1      28.655  45.411  10.128  1.00  0.00     0.174 HD
ATOM      9  H22 UNL     1      30.420  45.503   9.690  1.00  0.00     0.174 HD
HETATM   10  N3  UNL     1      27.730  45.716   7.938  1.00  0.00    -0.155 N
ATOM     11  H3  UNL     1      27.083  45.748   8.726  1.00  0.00     0.187 HD
HETATM   12  C5  UNL     1      27.157  45.700   6.639  1.00  0.00     0.285 C
HETATM   13  O1  UNL     1      25.931  46.019   6.569  1.00  0.00    -0.266 OA
HETATM   14  C6  UNL     1      27.820  45.356   5.344  1.00  0.00     0.134 C
HETATM   15  N4  UNL     1      26.888  44.874   4.393  1.00  0.00    -0.095 NA
HETATM   16  C7  UNL     1      29.089  45.430   5.026  1.00  0.00     0.069 C
ENDROOT
BRANCH  16  17
HETATM   17  S1  UNL     1      29.568  44.942   3.407  1.00  0.00    -0.035 SA
BRANCH  17  18
HETATM   18  S2  UNL     1      30.276  43.003   3.169  1.00  0.00     0.017 SA
BRANCH  18  19
HETATM   19  N5  UNL     1      29.056  41.770   3.473  1.00  0.00    -0.157 NA
BRANCH  19  20
HETATM   20  N6  UNL     1      29.555  40.805   4.347  1.00  0.00    -0.353 NA
ATOM     21  H62 UNL     1      29.062  40.767   5.240  1.00  0.00     0.172 HD
ATOM     22  H61 UNL     1      29.565  39.891   3.894  1.00  0.00     0.172 HD
ENDBRANCH  19  20
BRANCH  19  23
HETATM   23  C8  UNL     1      28.552  41.231   2.249  1.00  0.00     0.143 C
HETATM   24  C9  UNL     1      29.684  40.794   1.339  1.00  0.00     0.034 C
BRANCH  23  25
HETATM   25  C10 UNL     1      27.622  42.191   1.518  1.00  0.00     0.273 C
BRANCH  25  26
HETATM   26  O2  UNL     1      26.832  41.532   0.592  1.00  0.00    -0.370 OA
ATOM     27  H2  UNL     1      26.461  42.133  -0.044  1.00  0.00     0.212 HD
ENDBRANCH  25  26
BRANCH  25  28
HETATM   28  O3  UNL     1      26.837  42.813   2.498  1.00  0.00    -0.370 OA
ATOM     29  H3  UNL     1      26.270  42.141   2.858  1.00  0.00     0.212 HD
ENDBRANCH  25  28
ENDBRANCH  23  25
ENDBRANCH  19  23
ENDBRANCH  18  19
ENDBRANCH  17  18
ENDBRANCH  16  17
TORSDOF 8
ENDMDL