MODEL 2
REMARK VINA RESULT: -7.945141530      5.231      8.193
REMARK  8 active torsions:
REMARK  status: ('A' for Active; 'I' for Inactive)
REMARK    1  A    between atoms: C2_2  and  O1_3
REMARK    2  A    between atoms: C2_2  and  C3_5
REMARK    3  A    between atoms: C4_6  and  O2_7
REMARK    4  A    between atoms: C5_9  and  C6_10
REMARK    5  A    between atoms: C6_10  and  C10_20
REMARK    6  A    between atoms: N1_11  and  N2_13
REMARK    7  A    between atoms: N2_13  and  C7_15
REMARK    8  A    between atoms: C11_23  and  O4_24
ROOT
HETATM    1  C3  UNL     1      28.149  45.721   6.995  1.00  0.00     0.102 A
HETATM    2  C4  UNL     1      27.569  45.445   5.749  1.00  0.00     0.102 A
HETATM    3  C5  UNL     1      28.273  44.793   4.741  1.00  0.00     0.090 A
HETATM    4  C11 UNL     1      29.593  44.429   5.041  1.00  0.00     0.202 A
HETATM    5  O5  UNL     1      30.125  44.684   6.190  1.00  0.00    -0.250 OA
HETATM    6  C12 UNL     1      29.480  45.291   7.140  1.00  0.00     0.305 A
HETATM    7  O6  UNL     1      30.019  45.533   8.260  1.00  0.00    -0.259 OA
ENDROOT
BRANCH   3   8
HETATM    8  C6  UNL     1      27.747  44.467   3.419  1.00  0.00     0.131 C
HETATM    9  N1  UNL     1      27.671  43.185   3.192  1.00  0.00    -0.294 N
ATOM     10  H1  UNL     1      27.994  42.621   3.978  1.00  0.00     0.187 HD
BRANCH   9  11
HETATM   11  N2  UNL     1      27.260  42.447   2.148  1.00  0.00    -0.286 N
ATOM     12  H2  UNL     1      26.266  42.443   1.919  1.00  0.00     0.188 HD
BRANCH  11  13
HETATM   13  C7  UNL     1      28.155  41.659   1.334  1.00  0.00     0.150 C
HETATM   14  N3  UNL     1      28.121  41.777  -0.073  1.00  0.00    -0.080 NA
HETATM   15  C8  UNL     1      28.985  40.846   1.910  1.00  0.00     0.062 C
HETATM   16  C9  UNL     1      29.908  40.031   1.092  1.00  0.00     0.068 C
HETATM   17  N4  UNL     1      29.029  40.718   3.318  1.00  0.00    -0.104 NA
ENDBRANCH  11  13
ENDBRANCH   9  11
BRANCH   8  18
HETATM   18  C10 UNL     1      27.324  45.331   2.387  1.00  0.00     0.283 C
HETATM   19  N5  UNL     1      27.974  45.199   1.066  1.00  0.00    -0.056 NA
HETATM   20  O3  UNL     1      26.468  46.232   2.355  1.00  0.00    -0.269 OA
ENDBRANCH   8  18
ENDBRANCH   3   8
BRANCH   2  21
HETATM   21  O2  UNL     1      26.311  45.823   5.540  1.00  0.00    -0.358 OA
ATOM     22  H2  UNL     1      26.155  46.640   5.081  1.00  0.00     0.217 HD
ENDBRANCH   2  21
BRANCH   4  23
HETATM   23  O4  UNL     1      30.341  43.770   4.058  1.00  0.00    -0.340 OA
ATOM     24  H4  UNL     1      30.155  42.854   3.886  1.00  0.00     0.220 HD
ENDBRANCH   4  23
BRANCH   1  25
HETATM   25  C2  UNL     1      27.502  46.384   8.089  1.00  0.00     0.058 C
HETATM   26  C1  UNL     1      27.630  47.717   8.643  1.00  0.00     0.077 C
BRANCH  25  27
HETATM   27  O1  UNL     1      26.616  45.657   8.729  1.00  0.00    -0.364 OA
ATOM     28  H1  UNL     1      25.959  45.290   8.149  1.00  0.00     0.217 HD
ENDBRANCH  25  27
ENDBRANCH   1  25
TORSDOF 8
ENDMDL