MODEL 2
REMARK VINA RESULT: -7.875678959      2.842      4.362
REMARK  6 active torsions:
REMARK  status: ('A' for Active; 'I' for Inactive)
REMARK    1  A    between atoms: S1_2  and  C2_3
REMARK    2  A    between atoms: C4_11  and  C5_12
REMARK    3  A    between atoms: C5_12  and  O3_14
REMARK    4  A    between atoms: O3_14  and  C6_15
REMARK    5  A    between atoms: C7_18  and  N4_19
REMARK    6  A    between atoms: C8_24  and  N6_25
REMARK       I    between atoms: N6_25  and  C9_27
REMARK       I    between atoms: C9_27  and  N7_28
REMARK       I    between atoms: C9_27  and  N8_32
ROOT
HETATM    1  C6  UNL     1      27.462  45.431   5.863  1.00  0.00     0.260 A
HETATM    2  N3  UNL     1      28.087  46.516   5.383  1.00  0.00    -0.154 N
ATOM      3  H3  UNL     1      28.142  46.662   4.375  1.00  0.00     0.188 HD
HETATM    4  C7  UNL     1      28.640  47.412   6.217  1.00  0.00     0.693 A
HETATM    5  N5  UNL     1      28.578  47.241   7.543  1.00  0.00    -0.022 N
ATOM      6  H5  UNL     1      29.002  47.928   8.166  1.00  0.00     0.203 HD
HETATM    7  C8  UNL     1      27.961  46.167   8.052  1.00  0.00     0.698 A
HETATM    8  N9  UNL     1      27.415  45.285   7.200  1.00  0.00    -0.153 N
ATOM      9  H9  UNL     1      26.943  44.465   7.584  1.00  0.00     0.188 HD
ENDROOT
BRANCH   1  10
HETATM   10  O3  UNL     1      26.883  44.494   4.994  1.00  0.00    -0.239 OA
BRANCH  10  11
HETATM   11  C5  UNL     1      27.284  44.438   3.653  1.00  0.00     0.327 C
HETATM   12  O2  UNL     1      26.840  45.342   2.910  1.00  0.00    -0.256 OA
BRANCH  11  13
HETATM   13  C4  UNL     1      28.159  43.397   3.150  1.00  0.00     0.188 A
HETATM   14  C2  UNL     1      29.487  43.472   2.858  1.00  0.00     0.113 A
HETATM   15  N1  UNL     1      29.920  42.258   2.412  1.00  0.00    -0.314 N
HETATM   16  C3  UNL     1      28.821  41.472   2.448  1.00  0.00     0.223 A
ATOM     17  H1  UNL     1      30.862  42.001   2.117  1.00  0.00     0.170 HD
HETATM   18  N2  UNL     1      28.733  40.226   2.116  1.00  0.00    -0.365 N
HETATM   19  O1  UNL     1      27.785  42.169   2.891  1.00  0.00    -0.270 OA
ATOM     20  H22 UNL     1      29.530  39.689   1.775  1.00  0.00     0.159 HD
ATOM     21  H21 UNL     1      27.904  39.634   2.143  1.00  0.00     0.159 HD
BRANCH  14  22
HETATM   22  S1  UNL     1      30.489  44.922   3.032  1.00  0.00    -0.114 SA
HETATM   23  C1  UNL     1      31.600  45.042   1.628  1.00  0.00     0.097 C
ENDBRANCH  14  22
ENDBRANCH  11  13
ENDBRANCH  10  11
ENDBRANCH   1  10
BRANCH   4  24
HETATM   24  N4  UNL     1      29.243  48.460   5.739  1.00  0.00    -0.234 N
ATOM     25  H42 UNL     1      29.465  48.497   4.744  1.00  0.00     0.174 HD
ATOM     26  H41 UNL     1      29.490  49.233   6.357  1.00  0.00     0.174 HD
ENDBRANCH   4  24
BRANCH   7  27
HETATM   27  N6  UNL     1      27.879  45.963   9.301  1.00  0.00    -0.173 N
HETATM   28  C9  UNL     1      28.911  46.124  10.268  1.00  0.00     0.494 C
HETATM   29  N7  UNL     1      28.394  46.379  11.602  1.00  0.00    -0.032 N
HETATM   30  N8  UNL     1      29.858  45.060  10.335  1.00  0.00    -0.032 N
ATOM     31  H73 UNL     1      27.764  47.181  11.603  1.00  0.00     0.278 HD
ATOM     32  H72 UNL     1      27.737  45.652  11.885  1.00  0.00     0.278 HD
ATOM     33  H71 UNL     1      29.134  46.494  12.295  1.00  0.00     0.278 HD
ATOM     34  H83 UNL     1      29.378  44.172  10.481  1.00  0.00     0.278 HD
ATOM     35  H82 UNL     1      30.265  44.896   9.414  1.00  0.00     0.278 HD
ATOM     36  H81 UNL     1      30.598  45.175  11.027  1.00  0.00     0.278 HD
ATOM     37  H6  UNL     1      26.974  45.650   9.651  1.00  0.00     0.181 HD
ENDBRANCH   7  27
TORSDOF 6
ENDMDL