MODEL 1
REMARK VINA RESULT: -7.375770011      0.000      0.000
REMARK  9 active torsions:
REMARK  status: ('A' for Active; 'I' for Inactive)
REMARK       I    between atoms: C2_2  and  N1_4
REMARK    1  A    between atoms: N1_4  and  N2_6
REMARK    2  A    between atoms: N2_6  and  C3_8
REMARK    3  A    between atoms: C3_8  and  N3_10
REMARK    4  A    between atoms: N3_10  and  N4_12
REMARK       I    between atoms: N4_12  and  C4_14
REMARK    5  A    between atoms: C4_14  and  C5_16
REMARK    6  A    between atoms: C6_18  and  N5_19
REMARK    7  A    between atoms: N6_22  and  C7_23
REMARK    8  A    between atoms: C7_23  and  C8_24
REMARK    9  A    between atoms: C8_24  and  N7_25
ROOT
HETATM    1  C5  UNL     1      28.497  45.685   6.032  1.00  0.00     0.119 A
HETATM    2  S2  UNL     1      29.953  46.058   5.235  1.00  0.00    -0.045 SA
HETATM    3  C6  UNL     1      29.605  45.334   3.727  1.00  0.00     0.146 A
HETATM    4  N6  UNL     1      28.387  44.840   3.906  1.00  0.00    -0.313 N
HETATM    5  C9  UNL     1      27.797  45.003   5.071  1.00  0.00     0.143 A
HETATM    6  N8  UNL     1      26.478  44.517   5.410  1.00  0.00    -0.081 NA
ENDROOT
BRANCH   1   7
HETATM    7  C4  UNL     1      28.122  46.032   7.403  1.00  0.00     0.280 C
HETATM    8  N4  UNL     1      28.548  45.301   8.518  1.00  0.00    -0.263 N
ATOM      9  H4  UNL     1      29.144  44.483   8.396  1.00  0.00     0.190 HD
HETATM   10  O2  UNL     1      27.375  47.043   7.601  1.00  0.00    -0.265 OA
BRANCH   8  11
HETATM   11  N3  UNL     1      28.157  45.695   9.799  1.00  0.00    -0.272 N
ATOM     12  H3  UNL     1      27.200  46.015   9.951  1.00  0.00     0.189 HD
BRANCH  11  13
HETATM   13  C3  UNL     1      29.060  45.662  10.895  1.00  0.00     0.205 C
HETATM   14  S1  UNL     1      30.313  46.734  10.977  1.00  0.00    -0.038 SA
BRANCH  13  15
HETATM   15  N2  UNL     1      28.906  44.735  11.926  1.00  0.00    -0.273 N
ATOM     16  H2  UNL     1      29.055  43.751  11.703  1.00  0.00     0.189 HD
BRANCH  15  17
HETATM   17  N1  UNL     1      28.564  45.052  13.233  1.00  0.00    -0.268 N
HETATM   18  C2  UNL     1      27.955  44.076  14.081  1.00  0.00     0.232 C
HETATM   19  C1  UNL     1      27.584  44.387  15.472  1.00  0.00     0.119 C
HETATM   20  O1  UNL     1      27.750  42.928  13.571  1.00  0.00    -0.272 OA
ATOM     21  H1  UNL     1      28.749  45.988  13.592  1.00  0.00     0.190 HD
ENDBRANCH  15  17
ENDBRANCH  13  15
ENDBRANCH  11  13
ENDBRANCH   8  11
ENDBRANCH   1   7
BRANCH   3  22
HETATM   22  N5  UNL     1      30.373  45.296   2.675  1.00  0.00    -0.379 N
ATOM     23  H52 UNL     1      31.206  45.843   2.457  1.00  0.00     0.158 HD
ATOM     24  H51 UNL     1      30.272  44.691   1.860  1.00  0.00     0.158 HD
ENDBRANCH   3  22
BRANCH   4  25
HETATM   25  C7  UNL     1      27.719  44.135   2.794  1.00  0.00     0.159 C
BRANCH  25  26
HETATM   26  C8  UNL     1      28.065  42.683   2.735  1.00  0.00     0.249 C
BRANCH  26  27
HETATM   27  N7  UNL     1      27.300  42.086   1.629  1.00  0.00    -0.078 N
ATOM     28  H73 UNL     1      26.979  41.140   1.833  1.00  0.00     0.274 HD
ATOM     29  H72 UNL     1      26.383  42.515   1.504  1.00  0.00     0.274 HD
ATOM     30  H71 UNL     1      27.880  42.136   0.791  1.00  0.00     0.274 HD
ENDBRANCH  26  27
ENDBRANCH  25  26
ENDBRANCH   4  25
TORSDOF 9
ENDMDL