MODEL 5
REMARK VINA RESULT: -7.740528371      2.287      7.098
REMARK  4 active torsions:
REMARK  status: ('A' for Active; 'I' for Inactive)
REMARK    1  A    between atoms: C1_2  and  C2_4
REMARK    2  A    between atoms: C5_13  and  N4_14
REMARK    3  A    between atoms: N4_14  and  N5_16
REMARK       I    between atoms: N5_16  and  C6_18
REMARK    4  A    between atoms: C6_18  and  C7_20
ROOT
HETATM    1  N4  UNL     1      28.104  45.675   3.808  1.00  0.00    -0.291 N
ATOM      2  H4  UNL     1      27.851  46.466   3.216  1.00  0.00     0.187 HD
ENDROOT
BRANCH   1   3
HETATM    3  C5  UNL     1      28.300  44.411   3.241  1.00  0.00     0.148 A
HETATM    4  C2  UNL     1      29.544  44.068   2.778  1.00  0.00     0.134 A
HETATM    5  N2  UNL     1      29.774  42.840   2.225  1.00  0.00    -0.327 N
HETATM    6  C3  UNL     1      28.763  41.956   2.134  1.00  0.00     0.179 A
ATOM      7  H2  UNL     1      30.704  42.595   1.884  1.00  0.00     0.168 HD
HETATM    8  S1  UNL     1      29.037  40.484   1.471  1.00  0.00    -0.040 SA
HETATM    9  N3  UNL     1      27.549  42.299   2.589  1.00  0.00    -0.298 N
HETATM   10  C4  UNL     1      27.288  43.495   3.137  1.00  0.00     0.278 A
ATOM     11  H3  UNL     1      26.790  41.621   2.515  1.00  0.00     0.171 HD
HETATM   12  O2  UNL     1      26.151  43.811   3.560  1.00  0.00    -0.265 OA
BRANCH   4  13
HETATM   13  C1  UNL     1      30.654  45.003   2.856  1.00  0.00     0.284 C
HETATM   14  N1  UNL     1      31.117  45.505   4.099  1.00  0.00    -0.056 NA
HETATM   15  O1  UNL     1      31.262  45.416   1.836  1.00  0.00    -0.269 OA
ENDBRANCH   4  13
ENDBRANCH   1   3
BRANCH   1  16
HETATM   16  N5  UNL     1      28.253  45.855   5.185  1.00  0.00    -0.263 N
HETATM   17  C6  UNL     1      27.337  46.533   5.984  1.00  0.00     0.295 C
HETATM   18  O3  UNL     1      26.305  47.032   5.499  1.00  0.00    -0.264 OA
ATOM     19  H5  UNL     1      29.083  45.466   5.632  1.00  0.00     0.190 HD
BRANCH  17  20
HETATM   20  C7  UNL     1      27.569  46.674   7.419  1.00  0.00     0.164 A
HETATM   21  N6  UNL     1      27.451  45.782   8.389  1.00  0.00    -0.286 N
HETATM   22  N7  UNL     1      27.695  46.086   9.594  1.00  0.00    -0.259 N
ATOM     23  H6  UNL     1      27.158  44.831   8.161  1.00  0.00     0.188 HD
HETATM   24  C8  UNL     1      28.078  47.337   9.874  1.00  0.00     0.304 A
ATOM     25  H7  UNL     1      27.601  45.393  10.335  1.00  0.00     0.191 HD
HETATM   26  O4  UNL     1      28.366  47.825  11.024  1.00  0.00    -0.258 OA
HETATM   27  S2  UNL     1      28.072  48.057   8.324  1.00  0.00    -0.003 SA
ENDBRANCH  17  20
ENDBRANCH   1  16
TORSDOF 4
ENDMDL