MODEL 1
REMARK VINA RESULT: -9.919374229      0.000      0.000
REMARK  8 active torsions:
REMARK  status: ('A' for Active; 'I' for Inactive)
REMARK    1  A    between atoms: C2_5  and  C3_6
REMARK    2  A    between atoms: C3_6  and  C4_7
REMARK    3  A    between atoms: C4_7  and  S1_8
REMARK    4  A    between atoms: S1_8  and  C5_9
REMARK    5  A    between atoms: C6_12  and  N4_13
REMARK    6  A    between atoms: C9_22  and  C10_23
REMARK    7  A    between atoms: C10_23  and  C11_24
REMARK    8  A    between atoms: C15_31  and  N8_32
ROOT
HETATM    1  C1  UNL     1      33.392  49.145   7.056  1.00  0.00     0.177 C
HETATM    2  N1  UNL     1      32.266  48.644   7.844  1.00  0.00    -0.300 N
HETATM    3  N2  UNL     1      31.525  47.607   7.612  1.00  0.00    -0.302 N
ATOM      4  H2  UNL     1      31.643  46.981   6.815  1.00  0.00     0.186 HD
HETATM    5  C2  UNL     1      30.553  47.457   8.585  1.00  0.00     0.035 A
HETATM    6  C7  UNL     1      30.781  48.525   9.450  1.00  0.00    -0.009 A
HETATM    7  C8  UNL     1      31.842  49.258   8.985  1.00  0.00     0.041 A
HETATM    8  C9  UNL     1      32.311  50.480   9.685  1.00  0.00     0.043 C
HETATM    9  C17 UNL     1      31.007  51.162  10.118  1.00  0.00     0.011 C
HETATM   10  C18 UNL     1      30.203  50.322  11.043  1.00  0.00     0.006 C
HETATM   11  C19 UNL     1      30.117  48.881  10.733  1.00  0.00     0.043 C
ENDROOT
BRANCH   8  12
HETATM   12  C10 UNL     1      33.210  50.148  10.820  1.00  0.00     0.068 C
BRANCH  12  13
HETATM   13  C11 UNL     1      34.427  51.000  10.861  1.00  0.00     0.012 A
HETATM   14  C12 UNL     1      34.812  51.816   9.793  1.00  0.00     0.046 A
HETATM   15  C13 UNL     1      35.953  52.505  10.121  1.00  0.00     0.079 A
HETATM   16  C14 UNL     1      36.779  53.425   9.499  1.00  0.00     0.273 A
HETATM   17  C16 UNL     1      36.276  52.112  11.399  1.00  0.00     0.137 A
HETATM   18  O1  UNL     1      36.479  53.786   8.322  1.00  0.00    -0.267 OA
HETATM   19  N7  UNL     1      37.859  53.910  10.143  1.00  0.00    -0.156 N
HETATM   20  C15 UNL     1      38.171  53.523  11.393  1.00  0.00     0.680 A
ATOM     21  H7  UNL     1      38.455  54.588   9.670  1.00  0.00     0.187 HD
HETATM   22  N9  UNL     1      37.366  52.625  11.999  1.00  0.00    -0.176 N
ATOM     23  H9  UNL     1      37.592  52.324  12.947  1.00  0.00     0.186 HD
HETATM   24  N10 UNL     1      35.338  51.209  11.813  1.00  0.00    -0.345 N
ATOM     25  H10 UNL     1      35.335  50.755  12.726  1.00  0.00     0.167 HD
BRANCH  20  26
HETATM   26  N8  UNL     1      39.207  53.973  12.038  1.00  0.00    -0.234 N
ATOM     27  H82 UNL     1      39.847  54.607  11.559  1.00  0.00     0.174 HD
ATOM     28  H81 UNL     1      39.414  53.721  13.005  1.00  0.00     0.174 HD
ENDBRANCH  20  26
ENDBRANCH  12  13
ENDBRANCH   8  12
BRANCH   5  29
HETATM   29  C3  UNL     1      29.529  46.413   8.554  1.00  0.00     0.069 C
BRANCH  29  30
HETATM   30  C4  UNL     1      29.367  45.578   9.770  1.00  0.00     0.088 C
BRANCH  30  31
HETATM   31  S1  UNL     1      27.970  45.801  10.822  1.00  0.00    -0.092 SA
BRANCH  31  32
HETATM   32  C5  UNL     1      28.013  44.779  12.286  1.00  0.00     0.174 A
HETATM   33  N3  UNL     1      28.150  45.263  13.540  1.00  0.00    -0.168 N
HETATM   34  C6  UNL     1      28.132  44.225  14.379  1.00  0.00     0.692 A
ATOM     35  H3  UNL     1      28.249  46.245  13.799  1.00  0.00     0.186 HD
HETATM   36  N5  UNL     1      27.987  43.081  13.679  1.00  0.00    -0.130 N
HETATM   37  N6  UNL     1      27.917  43.448  12.411  1.00  0.00    -0.265 N
ATOM     38  H5  UNL     1      27.940  42.132  14.050  1.00  0.00     0.205 HD
ATOM     39  H6  UNL     1      27.805  42.801  11.629  1.00  0.00     0.189 HD
BRANCH  34  40
HETATM   40  N4  UNL     1      28.232  44.261  15.677  1.00  0.00    -0.233 N
ATOM     41  H42 UNL     1      29.072  44.570  16.166  1.00  0.00     0.174 HD
ATOM     42  H41 UNL     1      27.519  43.996  16.357  1.00  0.00     0.174 HD
ENDBRANCH  34  40
ENDBRANCH  31  32
ENDBRANCH  30  31
ENDBRANCH  29  30
ENDBRANCH   5  29
TORSDOF 8
ENDMDL