MODEL 3
REMARK VINA RESULT: -8.520590684      7.548     10.657
REMARK  12 active torsions:
REMARK  status: ('A' for Active; 'I' for Inactive)
REMARK    1  A    between atoms: C2_2  and  N2_6
REMARK       I    between atoms: C3_8  and  N4_10
REMARK    2  A    between atoms: N4_10  and  C4_12
REMARK    3  A    between atoms: C4_12  and  C5_13
REMARK    4  A    between atoms: C5_13  and  N5_14
REMARK    5  A    between atoms: N5_14  and  C6_16
REMARK    6  A    between atoms: C6_16  and  S1_21
REMARK    7  A    between atoms: N6_17  and  O1_19
REMARK    8  A    between atoms: S1_21  and  S2_22
REMARK    9  A    between atoms: S2_22  and  C7_23
REMARK       I    between atoms: C7_23  and  N7_25
REMARK   10  A    between atoms: N7_25  and  C8_27
REMARK   11  A    between atoms: C12_31  and  C13_32
REMARK   12  A    between atoms: C13_32  and  C14_33
ROOT
HETATM    1  C6  UNL     1      26.940  46.055   8.750  1.00  0.00     0.171 C
HETATM    2  N6  UNL     1      25.867  45.716   8.157  1.00  0.00    -0.247 N
ATOM      3  H6  UNL     1      25.195  45.144   8.668  1.00  0.00     0.196 HD
ENDROOT
BRANCH   1   4
HETATM    4  N5  UNL     1      27.120  45.598  10.107  1.00  0.00    -0.367 N
ATOM      5  H5  UNL     1      27.063  44.605  10.335  1.00  0.00     0.161 HD
BRANCH   4   6
HETATM    6  C5  UNL     1      27.384  46.585  11.146  1.00  0.00     0.141 C
BRANCH   6   7
HETATM    7  C4  UNL     1      28.765  46.341  11.722  1.00  0.00     0.142 C
BRANCH   7   8
HETATM    8  N4  UNL     1      28.957  44.909  11.951  1.00  0.00    -0.363 N
HETATM    9  C3  UNL     1      28.123  44.311  12.920  1.00  0.00     0.189 C
HETATM   10  N2  UNL     1      28.153  44.724  14.123  1.00  0.00    -0.321 N
HETATM   11  N3  UNL     1      27.262  43.259  12.545  1.00  0.00    -0.064 NA
ATOM     12  H2  UNL     1      28.799  45.488  14.321  1.00  0.00     0.169 HD
ATOM     13  H4  UNL     1      29.656  44.371  11.438  1.00  0.00     0.162 HD
BRANCH  10  14
HETATM   14  C2  UNL     1      27.403  44.251  15.207  1.00  0.00     0.072 C
HETATM   15  C1  UNL     1      26.267  45.105  15.681  1.00  0.00     0.088 C
HETATM   16  N1  UNL     1      27.622  43.153  15.811  1.00  0.00    -0.389 N
ATOM     17  H12 UNL     1      27.076  42.808  16.600  1.00  0.00     0.157 HD
ATOM     18  H11 UNL     1      28.396  42.572  15.488  1.00  0.00     0.157 HD
ENDBRANCH  10  14
ENDBRANCH   7   8
ENDBRANCH   6   7
ENDBRANCH   4   6
ENDBRANCH   1   4
BRANCH   1  19
HETATM   19  S1  UNL     1      28.159  47.046   7.940  1.00  0.00    -0.010 SA
BRANCH  19  20
HETATM   20  S2  UNL     1      29.626  45.774   7.091  1.00  0.00     0.012 SA
BRANCH  20  21
HETATM   21  C7  UNL     1      28.892  44.981   5.670  1.00  0.00     0.291 C
HETATM   22  O2  UNL     1      27.649  44.976   5.457  1.00  0.00    -0.260 OA
HETATM   23  N7  UNL     1      29.739  44.327   4.734  1.00  0.00    -0.347 N
ATOM     24  H7  UNL     1      30.747  44.319   4.887  1.00  0.00     0.163 HD
BRANCH  23  25
HETATM   25  C8  UNL     1      29.186  43.672   3.565  1.00  0.00     0.085 C
HETATM   26  C9  UNL     1      29.474  42.193   3.716  1.00  0.00     0.025 C
HETATM   27  C10 UNL     1      28.656  41.313   2.863  1.00  0.00     0.002 C
HETATM   28  C11 UNL     1      27.916  41.926   1.743  1.00  0.00     0.005 C
HETATM   29  C12 UNL     1      28.779  42.653   0.726  1.00  0.00    -0.005 C
HETATM   30  C15 UNL     1      28.974  44.091   1.127  1.00  0.00     0.007 C
HETATM   31  C16 UNL     1      29.804  44.279   2.346  1.00  0.00     0.025 C
BRANCH  29  32
HETATM   32  C13 UNL     1      30.017  41.899   0.412  1.00  0.00     0.117 C
BRANCH  32  33
HETATM   33  C14 UNL     1      30.094  41.264  -0.915  1.00  0.00     0.172 C
HETATM   34  O3  UNL     1      29.759  41.930  -1.967  1.00  0.00    -0.648 OA
HETATM   35  O4  UNL     1      30.506  39.978  -1.190  1.00  0.00    -0.648 OA
ENDBRANCH  32  33
ENDBRANCH  29  32
ENDBRANCH  23  25
ENDBRANCH  20  21
ENDBRANCH  19  20
ENDBRANCH   1  19
BRANCH   2  36
HETATM   36  O1  UNL     1      25.564  46.073   6.879  1.00  0.00    -0.288 OA
ATOM     37  H1  UNL     1      24.682  46.255   6.577  1.00  0.00     0.244 HD
ENDBRANCH   2  36
TORSDOF 12
ENDMDL