MODEL 4
REMARK VINA RESULT: -8.731343554      6.245      9.060
REMARK  8 active torsions:
REMARK  status: ('A' for Active; 'I' for Inactive)
REMARK    1  A    between atoms: C2_2  and  N1_3
REMARK    2  A    between atoms: C2_2  and  C20_37
REMARK       I    between atoms: N1_3  and  C3_5
REMARK    3  A    between atoms: C3_5  and  C4_7
REMARK    4  A    between atoms: C4_7  and  N2_8
REMARK    5  A    between atoms: C4_7  and  C5_12
REMARK    6  A    between atoms: C5_12  and  O2_13
REMARK    7  A    between atoms: C5_12  and  N3_15
REMARK    8  A    between atoms: N3_15  and  C6_17
ROOT
HETATM    1  N3  UNL     1      29.901  43.771   4.621  1.00  0.00    -0.391 N
ATOM      2  H3  UNL     1      30.645  43.255   5.092  1.00  0.00     0.156 HD
ENDROOT
BRANCH   1   3
HETATM    3  C5  UNL     1      29.139  43.148   3.620  1.00  0.00     0.254 C
BRANCH   3   4
HETATM    4  C4  UNL     1      29.034  41.640   3.948  1.00  0.00     0.322 C
BRANCH   4   5
HETATM    5  C3  UNL     1      29.888  40.871   3.006  1.00  0.00     0.253 C
HETATM    6  N1  UNL     1      29.354  40.184   1.889  1.00  0.00    -0.349 N
ATOM      7  H1  UNL     1      28.354  40.200   1.689  1.00  0.00     0.163 HD
HETATM    8  O1  UNL     1      31.107  40.849   3.224  1.00  0.00    -0.271 OA
BRANCH   6   9
HETATM    9  C2  UNL     1      30.282  39.456   1.034  1.00  0.00     0.132 C
HETATM   10  C1  UNL     1      29.857  38.094   0.663  1.00  0.00     0.039 C
BRANCH   9  11
HETATM   11  C20 UNL     1      30.502  40.268  -0.230  1.00  0.00     0.059 A
HETATM   12  C21 UNL     1      30.897  39.781  -1.450  1.00  0.00     0.174 A
HETATM   13  O3  UNL     1      30.967  40.785  -2.291  1.00  0.00    -0.272 OA
HETATM   14  C22 UNL     1      30.635  41.919  -1.688  1.00  0.00     0.369 A
HETATM   15  O4  UNL     1      30.582  43.084  -2.160  1.00  0.00    -0.238 OA
HETATM   16  N6  UNL     1      30.347  41.585  -0.403  1.00  0.00    -0.302 N
ATOM     17  H6  UNL     1      30.056  42.241   0.321  1.00  0.00     0.171 HD
ENDBRANCH   9  11
ENDBRANCH   6   9
ENDBRANCH   4   5
BRANCH   4  18
HETATM   18  N2  UNL     1      27.659  41.209   3.744  1.00  0.00    -0.062 N
ATOM     19  H23 UNL     1      27.079  41.923   3.304  1.00  0.00     0.275 HD
ATOM     20  H22 UNL     1      27.569  40.499   3.017  1.00  0.00     0.275 HD
ATOM     21  H21 UNL     1      27.295  40.902   4.647  1.00  0.00     0.275 HD
ENDBRANCH   4  18
ENDBRANCH   3   4
BRANCH   3  22
HETATM   22  O2  UNL     1      29.543  43.256   2.310  1.00  0.00    -0.374 OA
ATOM     23  H2  UNL     1      29.682  44.179   2.131  1.00  0.00     0.212 HD
ENDBRANCH   3  22
ENDBRANCH   1   3
BRANCH   1  24
HETATM   24  C6  UNL     1      29.636  45.112   4.976  1.00  0.00     0.079 C
HETATM   25  C7  UNL     1      30.461  46.017   4.077  1.00  0.00     0.025 C
HETATM   26  C8  UNL     1      31.929  45.785   4.335  1.00  0.00     0.002 C
HETATM   27  C9  UNL     1      32.264  46.028   5.795  1.00  0.00     0.002 C
HETATM   28  C10 UNL     1      33.692  46.440   5.982  1.00  0.00     0.027 C
HETATM   29  C11 UNL     1      33.867  47.941   6.070  1.00  0.00     0.232 C
HETATM   30  N4  UNL     1      32.616  48.598   6.390  1.00  0.00    -0.075 N
HETATM   31  C12 UNL     1      32.438  48.798   7.820  1.00  0.00     0.232 C
ATOM     32  H42 UNL     1      32.525  49.478   5.882  1.00  0.00     0.277 HD
ATOM     33  H41 UNL     1      31.825  48.094   5.989  1.00  0.00     0.277 HD
HETATM   34  C13 UNL     1      31.880  50.149   8.111  1.00  0.00     0.029 C
HETATM   35  C14 UNL     1      30.464  50.104   8.651  1.00  0.00     0.029 C
HETATM   36  C15 UNL     1      29.725  48.874   8.174  1.00  0.00     0.232 C
HETATM   37  N5  UNL     1      28.298  49.157   8.144  1.00  0.00    -0.075 N
HETATM   38  C16 UNL     1      27.557  47.931   7.798  1.00  0.00     0.232 C
ATOM     39  H52 UNL     1      27.970  49.572   9.017  1.00  0.00     0.277 HD
ATOM     40  H51 UNL     1      28.073  49.932   7.521  1.00  0.00     0.277 HD
HETATM   41  C17 UNL     1      28.424  47.207   6.791  1.00  0.00     0.027 C
HETATM   42  C18 UNL     1      27.663  46.019   6.280  1.00  0.00     0.004 C
HETATM   43  C19 UNL     1      28.185  45.501   4.964  1.00  0.00     0.025 C
ENDBRANCH   1  24
TORSDOF 8
ENDMDL