MODEL 2
REMARK VINA RESULT: -8.639281046      1.508      2.680
REMARK  8 active torsions:
REMARK  status: ('A' for Active; 'I' for Inactive)
REMARK    1  A    between atoms: N2_6  and  N3_8
REMARK    2  A    between atoms: C4_11  and  S1_12
REMARK    3  A    between atoms: S1_12  and  C5_13
REMARK    4  A    between atoms: C5_13  and  C6_14
REMARK    5  A    between atoms: C6_14  and  C7_15
REMARK    6  A    between atoms: C8_16  and  S2_17
REMARK    7  A    between atoms: S2_17  and  C9_18
REMARK    8  A    between atoms: C15_26  and  N5_27
ROOT
HETATM    1  C6  UNL     1      28.127  47.153   5.808  1.00  0.00     0.057 C
ENDROOT
BRANCH   1   2
HETATM    2  C5  UNL     1      27.983  46.114   4.757  1.00  0.00     0.081 C
BRANCH   2   3
HETATM    3  S1  UNL     1      28.934  44.624   4.971  1.00  0.00    -0.128 SA
BRANCH   3   4
HETATM    4  C4  UNL     1      28.511  43.301   3.825  1.00  0.00     0.316 C
HETATM    5  C3  UNL     1      29.599  42.315   3.669  1.00  0.00     0.133 C
HETATM    6  N1  UNL     1      30.731  42.760   2.891  1.00  0.00    -0.370 N
HETATM    7  N2  UNL     1      29.600  41.129   4.163  1.00  0.00    -0.293 N
HETATM    8  C2  UNL     1      30.461  43.921   2.052  1.00  0.00     0.114 C
ATOM      9  H1  UNL     1      31.641  42.301   2.926  1.00  0.00     0.161 HD
HETATM   10  C1  UNL     1      31.387  43.876   0.875  1.00  0.00     0.034 C
HETATM   11  C17 UNL     1      29.043  43.839   1.532  1.00  0.00     0.140 C
HETATM   12  N7  UNL     1      28.058  43.842   2.565  1.00  0.00    -0.045 N
HETATM   13  C18 UNL     1      28.898  42.681   0.565  1.00  0.00     0.048 C
HETATM   14  C19 UNL     1      28.825  45.114   0.703  1.00  0.00     0.048 C
ATOM     15  H72 UNL     1      27.215  43.360   2.253  1.00  0.00     0.280 HD
ATOM     16  H71 UNL     1      27.684  44.782   2.696  1.00  0.00     0.280 HD
ATOM     17  H2  UNL     1      30.416  40.544   3.979  1.00  0.00     0.187 HD
BRANCH   7  18
HETATM   18  N3  UNL     1      28.575  40.577   4.930  1.00  0.00    -0.344 N
ATOM     19  H32 UNL     1      27.909  41.235   5.336  1.00  0.00     0.176 HD
ATOM     20  H31 UNL     1      28.446  39.582   5.110  1.00  0.00     0.176 HD
ENDBRANCH   7  18
ENDBRANCH   3   4
ENDBRANCH   2   3
ENDBRANCH   1   2
BRANCH   1  21
HETATM   21  C7  UNL     1      27.882  46.712   7.188  1.00  0.00     0.045 A
HETATM   22  C8  UNL     1      28.900  46.728   8.156  1.00  0.00     0.098 A
HETATM   23  N4  UNL     1      28.661  46.319   9.414  1.00  0.00    -0.185 N
HETATM   24  C15 UNL     1      27.436  45.882   9.779  1.00  0.00     0.679 A
ATOM     25  H4  UNL     1      29.415  46.339  10.101  1.00  0.00     0.185 HD
HETATM   26  N6  UNL     1      26.454  45.861   8.864  1.00  0.00    -0.156 N
HETATM   27  C16 UNL     1      26.646  46.262   7.588  1.00  0.00     0.268 A
ATOM     28  H6  UNL     1      25.529  45.531   9.143  1.00  0.00     0.187 HD
HETATM   29  O1  UNL     1      25.654  46.207   6.782  1.00  0.00    -0.267 OA
BRANCH  22  30
HETATM   30  S2  UNL     1      30.500  47.313   7.622  1.00  0.00    -0.106 SA
BRANCH  30  31
HETATM   31  C9  UNL     1      30.929  48.825   8.509  1.00  0.00     0.054 C
HETATM   32  C10 UNL     1      29.741  49.594   9.001  1.00  0.00     0.015 C
HETATM   33  C11 UNL     1      30.208  50.406  10.195  1.00  0.00     0.001 C
HETATM   34  C12 UNL     1      31.631  50.900   9.938  1.00  0.00     0.000 C
HETATM   35  C13 UNL     1      31.869  51.064   8.452  1.00  0.00     0.001 C
HETATM   36  C14 UNL     1      31.810  49.747   7.703  1.00  0.00     0.015 C
ENDBRANCH  30  31
ENDBRANCH  22  30
BRANCH  24  37
HETATM   37  N5  UNL     1      27.199  45.487  10.984  1.00  0.00    -0.234 N
ATOM     38  H52 UNL     1      27.420  46.098  11.771  1.00  0.00     0.174 HD
ATOM     39  H51 UNL     1      26.791  44.571  11.170  1.00  0.00     0.174 HD
ENDBRANCH  24  37
ENDBRANCH   1  21
TORSDOF 8
ENDMDL