MODEL 2
REMARK VINA RESULT: -8.238708483      2.749      8.491
REMARK  10 active torsions:
REMARK  status: ('A' for Active; 'I' for Inactive)
REMARK    1  A    between atoms: C4_4  and  C5_5
REMARK    2  A    between atoms: C8_12  and  N3_13
REMARK    3  A    between atoms: C10_20  and  C11_21
REMARK    4  A    between atoms: C11_21  and  N5_22
REMARK    5  A    between atoms: C11_21  and  N6_26
REMARK    6  A    between atoms: N6_26  and  C12_28
REMARK    7  A    between atoms: C12_28  and  O2_29
REMARK    8  A    between atoms: C13_31  and  N7_32
REMARK    9  A    between atoms: C13_31  and  C14_35
REMARK   10  A    between atoms: C14_35  and  C15_36
ROOT
HETATM    1  C11 UNL     1      31.025  46.726   4.670  1.00  0.00     0.323 C
ENDROOT
BRANCH   1   2
HETATM    2  C10 UNL     1      30.931  47.561   5.849  1.00  0.00     0.065 A
HETATM    3  C2  UNL     1      31.945  47.557   6.790  1.00  0.00    -0.044 A
HETATM    4  C1  UNL     1      33.125  46.668   6.633  1.00  0.00     0.049 C
HETATM    5  C3  UNL     1      31.878  48.377   7.921  1.00  0.00     0.038 A
HETATM    6  C4  UNL     1      30.808  49.215   8.142  1.00  0.00     0.051 A
HETATM    7  N4  UNL     1      29.835  49.212   7.233  1.00  0.00    -0.322 N
HETATM    8  C9  UNL     1      29.890  48.412   6.120  1.00  0.00     0.256 A
ATOM      9  H4  UNL     1      29.028  49.820   7.367  1.00  0.00     0.169 HD
HETATM   10  O1  UNL     1      28.957  48.436   5.288  1.00  0.00    -0.267 OA
BRANCH   6  11
HETATM   11  C5  UNL     1      30.735  50.006   9.394  1.00  0.00     0.059 A
HETATM   12  C6  UNL     1      31.650  50.911   9.873  1.00  0.00     0.038 A
HETATM   13  C7  UNL     1      32.901  51.419   9.221  1.00  0.00     0.071 C
HETATM   14  N1  UNL     1      31.247  51.353  11.078  1.00  0.00    -0.303 N
HETATM   15  N2  UNL     1      30.122  50.773  11.383  1.00  0.00    -0.285 N
ATOM     16  H1  UNL     1      31.741  52.031  11.658  1.00  0.00     0.186 HD
HETATM   17  C8  UNL     1      29.748  49.917  10.371  1.00  0.00     0.128 A
ATOM     18  H2  UNL     1      29.597  50.929  12.243  1.00  0.00     0.188 HD
BRANCH  17  19
HETATM   19  N3  UNL     1      28.716  49.202  10.448  1.00  0.00    -0.384 N
ATOM     20  H32 UNL     1      28.014  49.184   9.709  1.00  0.00     0.157 HD
ATOM     21  H31 UNL     1      28.371  48.594  11.189  1.00  0.00     0.157 HD
ENDBRANCH  17  19
ENDBRANCH   6  11
ENDBRANCH   1   2
BRANCH   1  22
HETATM   22  N5  UNL     1      31.390  47.381   3.450  1.00  0.00    -0.054 N
ATOM     23  H53 UNL     1      31.796  46.703   2.805  1.00  0.00     0.277 HD
ATOM     24  H52 UNL     1      30.549  47.645   2.938  1.00  0.00     0.277 HD
ATOM     25  H51 UNL     1      32.008  48.188   3.532  1.00  0.00     0.277 HD
ENDBRANCH   1  22
BRANCH   1  26
HETATM   26  N6  UNL     1      29.911  45.852   4.365  1.00  0.00    -0.338 N
ATOM     27  H6  UNL     1      29.006  46.274   4.157  1.00  0.00     0.164 HD
BRANCH  26  28
HETATM   28  C12 UNL     1      30.016  44.450   4.343  1.00  0.00     0.168 C
HETATM   29  C13 UNL     1      29.921  43.466   3.291  1.00  0.00     0.150 C
BRANCH  28  30
HETATM   30  O2  UNL     1      30.255  43.945   5.522  1.00  0.00    -0.345 OA
ATOM     31  H2  UNL     1      30.977  43.328   5.517  1.00  0.00     0.219 HD
ENDBRANCH  28  30
BRANCH  29  32
HETATM   32  N7  UNL     1      30.096  42.097   3.768  1.00  0.00    -0.114 N
HETATM   33  O3  UNL     1      29.304  41.520   4.534  1.00  0.00    -0.532 OA
HETATM   34  O4  UNL     1      31.186  41.321   3.390  1.00  0.00    -0.532 OA
ENDBRANCH  29  32
BRANCH  29  35
HETATM   35  C14 UNL     1      28.844  43.581   2.275  1.00  0.00     0.101 C
HETATM   36  C16 UNL     1      28.498  42.313   1.566  1.00  0.00     0.027 C
HETATM   37  C17 UNL     1      28.754  42.491   0.090  1.00  0.00     0.002 C
HETATM   38  C18 UNL     1      29.646  43.680  -0.034  1.00  0.00     0.002 C
HETATM   39  C19 UNL     1      29.314  44.519   1.144  1.00  0.00     0.027 C
BRANCH  35  40
HETATM   40  C15 UNL     1      27.618  44.189   2.829  1.00  0.00     0.188 C
HETATM   41  O5  UNL     1      26.802  43.499   3.530  1.00  0.00    -0.647 OA
HETATM   42  O6  UNL     1      27.289  45.518   2.633  1.00  0.00    -0.647 OA
ENDBRANCH  35  40
ENDBRANCH  29  35
ENDBRANCH  26  28
ENDBRANCH   1  26
TORSDOF 10
ENDMDL