MODEL 4
REMARK VINA RESULT: -6.669406024      3.381      6.525
REMARK  9 active torsions:
REMARK  status: ('A' for Active; 'I' for Inactive)
REMARK    1  A    between atoms: C2_2  and  C3_3
REMARK    2  A    between atoms: C3_3  and  C4_4
REMARK    3  A    between atoms: C4_4  and  C5_5
REMARK    4  A    between atoms: C5_5  and  N1_6
REMARK    5  A    between atoms: N2_8  and  N3_10
REMARK       I    between atoms: N3_10  and  C7_12
REMARK    6  A    between atoms: C10_18  and  N5_19
REMARK    7  A    between atoms: C11_24  and  N7_25
REMARK    8  A    between atoms: C13_31  and  N9_32
REMARK    9  A    between atoms: C16_38  and  C17_39
ROOT
HETATM    1  N1  UNL     1      32.215  44.650   2.418  1.00  0.00    -0.179 N
HETATM    2  C6  UNL     1      32.811  45.452   3.347  1.00  0.00     0.700 A
HETATM    3  N2  UNL     1      34.047  45.789   3.357  1.00  0.00    -0.129 N
ATOM      4  H2  UNL     1      34.687  45.461   2.634  1.00  0.00     0.205 HD
HETATM    5  N4  UNL     1      31.886  45.854   4.271  1.00  0.00    -0.184 N
ATOM      6  H4  UNL     1      32.073  46.459   5.070  1.00  0.00     0.184 HD
HETATM    7  C9  UNL     1      30.730  45.340   3.968  1.00  0.00     0.121 A
HETATM    8  C10 UNL     1      29.460  45.625   4.464  1.00  0.00     0.130 C
HETATM    9  N6  UNL     1      28.352  45.814   3.673  1.00  0.00    -0.326 N
ATOM     10  H6  UNL     1      27.578  46.310   4.113  1.00  0.00     0.169 HD
HETATM   11  C11 UNL     1      28.142  45.426   2.366  1.00  0.00     0.128 C
HETATM   12  C12 UNL     1      28.778  44.382   1.720  1.00  0.00     0.091 A
HETATM   13  N8  UNL     1      28.154  43.763   0.743  1.00  0.00    -0.338 N
ATOM     14  H8  UNL     1      27.279  44.139   0.377  1.00  0.00     0.167 HD
HETATM   15  C13 UNL     1      28.669  42.633   0.226  1.00  0.00     0.121 A
HETATM   16  C14 UNL     1      29.871  42.056   0.699  1.00  0.00     0.095 A
HETATM   17  C15 UNL     1      30.387  40.889   0.095  1.00  0.00     0.104 C
HETATM   18  N10 UNL     1      30.781  39.939  -0.442  1.00  0.00    -0.191 NA
HETATM   19  C16 UNL     1      30.568  42.655   1.733  1.00  0.00    -0.015 A
HETATM   20  C20 UNL     1      29.981  43.799   2.167  1.00  0.00     0.033 A
HETATM   21  C21 UNL     1      30.963  44.583   2.823  1.00  0.00     0.096 A
ENDROOT
BRANCH  15  22
HETATM   22  N9  UNL     1      28.088  42.019  -0.736  1.00  0.00    -0.384 N
ATOM     23  H92 UNL     1      28.664  41.365  -1.266  1.00  0.00     0.157 HD
ATOM     24  H91 UNL     1      27.105  42.186  -0.952  1.00  0.00     0.157 HD
ENDBRANCH  15  22
BRANCH  19  25
HETATM   25  C17 UNL     1      31.614  42.057   2.503  1.00  0.00     0.013 C
HETATM   26  C18 UNL     1      30.754  40.949   3.301  1.00  0.00     0.015 C
HETATM   27  C19 UNL     1      32.679  41.198   1.977  1.00  0.00     0.015 C
ENDBRANCH  19  25
BRANCH  11  28
HETATM   28  N7  UNL     1      27.294  46.005   1.632  1.00  0.00    -0.384 N
ATOM     29  H72 UNL     1      27.207  46.999   1.845  1.00  0.00     0.157 HD
ATOM     30  H71 UNL     1      26.787  45.504   0.903  1.00  0.00     0.157 HD
ENDBRANCH  11  28
BRANCH   1  31
HETATM   31  C5  UNL     1      32.850  44.329   1.173  1.00  0.00     0.148 C
BRANCH  31  32
HETATM   32  C4  UNL     1      32.476  45.456   0.126  1.00  0.00     0.021 C
BRANCH  32  33
HETATM   33  C3  UNL     1      31.753  44.866  -1.021  1.00  0.00     0.001 C
BRANCH  33  34
HETATM   34  C2  UNL     1      32.326  43.588  -1.570  1.00  0.00    -0.004 C
HETATM   35  C1  UNL     1      31.404  42.991  -2.590  1.00  0.00     0.005 C
ENDBRANCH  33  34
ENDBRANCH  32  33
ENDBRANCH  31  32
ENDBRANCH   1  31
BRANCH   8  36
HETATM   36  N5  UNL     1      29.432  45.771   5.707  1.00  0.00    -0.384 N
ATOM     37  H52 UNL     1      30.279  45.862   6.267  1.00  0.00     0.157 HD
ATOM     38  H51 UNL     1      28.492  45.727   6.100  1.00  0.00     0.157 HD
ENDBRANCH   8  36
BRANCH   3  39
HETATM   39  N3  UNL     1      34.495  46.631   4.401  1.00  0.00    -0.256 N
HETATM   40  C7  UNL     1      35.873  46.781   4.689  1.00  0.00     0.232 C
HETATM   41  C8  UNL     1      36.394  47.639   5.773  1.00  0.00     0.119 C
HETATM   42  O1  UNL     1      36.729  46.143   3.985  1.00  0.00    -0.272 OA
ATOM     43  H3  UNL     1      33.810  47.141   4.958  1.00  0.00     0.190 HD
ENDBRANCH   3  39
TORSDOF 9
ENDMDL