MODEL 4
REMARK VINA RESULT: -8.710691336      3.781      8.598
REMARK  8 active torsions:
REMARK  status: ('A' for Active; 'I' for Inactive)
REMARK    1  A    between atoms: N1_1  and  C1_4
REMARK    2  A    between atoms: C2_7  and  N3_8
REMARK    3  A    between atoms: C4_14  and  C5_15
REMARK    4  A    between atoms: C5_15  and  C6_16
REMARK    5  A    between atoms: C5_15  and  N5_21
REMARK    6  A    between atoms: C6_16  and  C7_17
REMARK    7  A    between atoms: C7_17  and  C8_18
REMARK       I    between atoms: N5_21  and  C9_23
REMARK    8  A    between atoms: C9_23  and  C10_25
ROOT
HETATM    1  C5  UNL     1      28.696  47.433   6.839  1.00  0.00     0.153 C
ENDROOT
BRANCH   1   2
HETATM    2  C4  UNL     1      28.601  46.924   8.218  1.00  0.00     0.106 A
HETATM    3  N4  UNL     1      29.359  47.341   9.241  1.00  0.00    -0.338 N
HETATM    4  C3  UNL     1      29.033  46.689  10.356  1.00  0.00     0.123 A
ATOM      5  H4  UNL     1      30.084  48.056   9.176  1.00  0.00     0.167 HD
HETATM    6  C2  UNL     1      29.533  46.779  11.638  1.00  0.00     0.145 A
HETATM    7  C18 UNL     1      28.023  45.827   9.999  1.00  0.00     0.153 A
HETATM    8  N2  UNL     1      28.976  45.964  12.562  1.00  0.00    -0.175 N
HETATM    9  C1  UNL     1      27.984  45.111  12.237  1.00  0.00     0.679 A
ATOM     10  H2  UNL     1      29.314  45.995  13.524  1.00  0.00     0.186 HD
HETATM   11  N8  UNL     1      27.514  45.044  10.971  1.00  0.00    -0.174 N
ATOM     12  H8  UNL     1      26.763  44.391  10.747  1.00  0.00     0.186 HD
HETATM   13  N7  UNL     1      27.751  45.964   8.694  1.00  0.00    -0.328 N
ATOM     14  H7  UNL     1      27.049  45.451   8.160  1.00  0.00     0.169 HD
BRANCH   6  15
HETATM   15  N3  UNL     1      30.488  47.597  11.965  1.00  0.00    -0.383 N
ATOM     16  H32 UNL     1      31.465  47.310  12.031  1.00  0.00     0.157 HD
ATOM     17  H31 UNL     1      30.287  48.575  12.171  1.00  0.00     0.157 HD
ENDBRANCH   6  15
BRANCH   9  18
HETATM   18  N1  UNL     1      27.502  44.367  13.163  1.00  0.00    -0.234 N
ATOM     19  H12 UNL     1      26.533  44.052  13.135  1.00  0.00     0.174 HD
ATOM     20  H11 UNL     1      28.118  44.097  13.931  1.00  0.00     0.174 HD
ENDBRANCH   9  18
ENDBRANCH   1   2
BRANCH   1  21
HETATM   21  C6  UNL     1      29.611  48.618   6.737  1.00  0.00     0.043 C
BRANCH  21  22
HETATM   22  C7  UNL     1      30.842  48.417   5.930  1.00  0.00     0.116 C
BRANCH  22  23
HETATM   23  C8  UNL     1      32.003  48.621   6.872  1.00  0.00     0.172 C
HETATM   24  O1  UNL     1      33.127  48.820   6.364  1.00  0.00    -0.648 OA
HETATM   25  O2  UNL     1      31.844  48.589   8.241  1.00  0.00    -0.648 OA
ENDBRANCH  22  23
ENDBRANCH  21  22
ENDBRANCH   1  21
BRANCH   1  26
HETATM   26  N5  UNL     1      29.089  46.379   5.918  1.00  0.00    -0.344 N
HETATM   27  C9  UNL     1      28.110  45.564   5.301  1.00  0.00     0.276 C
HETATM   28  O3  UNL     1      26.885  45.756   5.552  1.00  0.00    -0.265 OA
ATOM     29  H5  UNL     1      30.077  46.225   5.716  1.00  0.00     0.163 HD
BRANCH  27  30
HETATM   30  C10 UNL     1      28.482  44.490   4.364  1.00  0.00     0.143 A
HETATM   31  N6  UNL     1      29.660  44.079   3.957  1.00  0.00    -0.342 N
HETATM   32  C11 UNL     1      29.753  43.096   3.112  1.00  0.00     0.092 A
ATOM     33  H6  UNL     1      30.504  44.533   4.304  1.00  0.00     0.167 HD
HETATM   34  C12 UNL     1      28.581  42.523   2.679  1.00  0.00     0.015 A
HETATM   35  C17 UNL     1      31.088  42.622   2.644  1.00  0.00     0.176 C
HETATM   36  S1  UNL     1      27.419  43.449   3.527  1.00  0.00    -0.069 SA
HETATM   37  C13 UNL     1      28.338  41.405   1.732  1.00  0.00     0.049 C
HETATM   38  C14 UNL     1      29.142  40.194   1.925  1.00  0.00     0.006 C
HETATM   39  C15 UNL     1      30.522  40.301   2.423  1.00  0.00     0.008 C
HETATM   40  C16 UNL     1      31.385  41.372   1.858  1.00  0.00     0.085 C
HETATM   41  O4  UNL     1      32.075  43.347   2.936  1.00  0.00    -0.291 OA
ENDBRANCH  27  30
ENDBRANCH   1  26
TORSDOF 8
ENDMDL