MODEL 2
REMARK VINA RESULT: -7.833242764      1.734      2.127
REMARK  10 active torsions:
REMARK  status: ('A' for Active; 'I' for Inactive)
REMARK    1  A    between atoms: C2_2  and  N1_3
REMARK       I    between atoms: N1_3  and  C3_5
REMARK       I    between atoms: C3_5  and  N2_7
REMARK    2  A    between atoms: N2_7  and  C4_9
REMARK    3  A    between atoms: C5_12  and  N4_13
REMARK    4  A    between atoms: C6_18  and  C7_19
REMARK    5  A    between atoms: C7_19  and  N6_20
REMARK    6  A    between atoms: C7_19  and  C8_24
REMARK    7  A    between atoms: C13_29  and  C14_30
REMARK    8  A    between atoms: C17_35  and  N8_36
REMARK       I    between atoms: N8_36  and  C18_38
REMARK    9  A    between atoms: C18_38  and  C19_40
REMARK   10  A    between atoms: C19_40  and  O3_41
ROOT
HETATM    1  C4  UNL     1      28.549  48.110  10.091  1.00  0.00     0.140 A
HETATM    2  N3  UNL     1      28.763  48.825  11.200  1.00  0.00    -0.176 N
ATOM      3  H3  UNL     1      28.163  48.719  12.017  1.00  0.00     0.186 HD
HETATM    4  C5  UNL     1      29.791  49.683  11.206  1.00  0.00     0.677 A
HETATM    5  N5  UNL     1      30.612  49.856  10.144  1.00  0.00    -0.193 N
ATOM      6  H5  UNL     1      31.383  50.522  10.195  1.00  0.00     0.184 HD
HETATM    7  C6  UNL     1      30.401  49.134   9.000  1.00  0.00     0.074 A
HETATM    8  C13 UNL     1      29.369  48.249   8.961  1.00  0.00     0.068 A
ENDROOT
BRANCH   8   9
HETATM    9  C14 UNL     1      29.086  47.396   7.818  1.00  0.00     0.092 A
HETATM   10  N7  UNL     1      28.599  47.580   6.612  1.00  0.00    -0.351 N
HETATM   11  C15 UNL     1      28.483  46.630   5.760  1.00  0.00     0.040 A
ATOM     12  H7  UNL     1      28.301  48.518   6.343  1.00  0.00     0.166 HD
HETATM   13  C16 UNL     1      27.922  46.827   4.361  1.00  0.00     0.071 C
HETATM   14  C17 UNL     1      28.891  45.382   6.149  1.00  0.00     0.101 A
HETATM   15  S1  UNL     1      29.420  45.681   7.738  1.00  0.00    -0.051 SA
BRANCH  14  16
HETATM   16  N8  UNL     1      28.869  44.152   5.387  1.00  0.00    -0.318 N
HETATM   17  C18 UNL     1      30.009  43.723   4.670  1.00  0.00     0.246 C
HETATM   18  O2  UNL     1      31.044  44.428   4.703  1.00  0.00    -0.271 OA
ATOM     19  H8  UNL     1      28.020  43.587   5.368  1.00  0.00     0.169 HD
BRANCH  17  20
HETATM   20  C19 UNL     1      29.972  42.472   3.901  1.00  0.00     0.267 C
BRANCH  20  21
HETATM   21  O3  UNL     1      29.460  41.408   4.602  1.00  0.00    -0.392 OA
ATOM     22  H3  UNL     1      30.095  40.723   4.775  1.00  0.00     0.210 HD
ENDBRANCH  20  21
ENDBRANCH  17  20
ENDBRANCH  14  16
ENDBRANCH   8   9
BRANCH   1  23
HETATM   23  N2  UNL     1      27.573  47.279  10.054  1.00  0.00    -0.293 N
HETATM   24  C3  UNL     1      27.315  46.347  11.077  1.00  0.00     0.321 C
HETATM   25  N1  UNL     1      28.051  45.141  11.223  1.00  0.00    -0.343 N
HETATM   26  O1  UNL     1      26.394  46.600  11.892  1.00  0.00    -0.247 OA
ATOM     27  H1  UNL     1      28.799  44.938  10.561  1.00  0.00     0.164 HD
ATOM     28  H2  UNL     1      26.954  47.293   9.243  1.00  0.00     0.172 HD
BRANCH  25  29
HETATM   29  C2  UNL     1      27.776  44.201  12.271  1.00  0.00     0.120 C
HETATM   30  C1  UNL     1      28.118  44.744  13.642  1.00  0.00     0.026 C
ENDBRANCH  25  29
ENDBRANCH   1  23
BRANCH   7  31
HETATM   31  C7  UNL     1      31.261  49.349   7.855  1.00  0.00     0.238 C
BRANCH  31  32
HETATM   32  N6  UNL     1      31.392  50.845   7.757  1.00  0.00    -0.069 N
ATOM     33  H63 UNL     1      30.630  51.297   7.250  1.00  0.00     0.275 HD
ATOM     34  H62 UNL     1      31.246  51.335   8.639  1.00  0.00     0.275 HD
ATOM     35  H61 UNL     1      32.313  50.995   7.345  1.00  0.00     0.275 HD
ENDBRANCH  31  32
BRANCH  31  36
HETATM   36  C8  UNL     1      32.704  48.917   7.976  1.00  0.00     0.022 C
HETATM   37  C9  UNL     1      33.709  50.011   7.899  1.00  0.00     0.007 C
HETATM   38  C10 UNL     1      34.447  49.837   6.588  1.00  0.00     0.000 C
HETATM   39  C11 UNL     1      34.299  48.403   6.200  1.00  0.00     0.000 C
HETATM   40  C12 UNL     1      33.047  47.938   6.892  1.00  0.00     0.007 C
ENDBRANCH  31  36
ENDBRANCH   7  31
BRANCH   4  41
HETATM   41  N4  UNL     1      30.002  50.374  12.277  1.00  0.00    -0.234 N
ATOM     42  H42 UNL     1      30.897  50.851  12.387  1.00  0.00     0.174 HD
ATOM     43  H41 UNL     1      29.261  50.417  12.976  1.00  0.00     0.174 HD
ENDBRANCH   4  41
TORSDOF 10
ENDMDL