MODEL 2
REMARK VINA RESULT: -8.937028082      3.766      5.861
REMARK  11 active torsions:
REMARK  status: ('A' for Active; 'I' for Inactive)
REMARK    1  A    between atoms: C2_2  and  C3_3
REMARK    2  A    between atoms: C3_3  and  O1_4
REMARK    3  A    between atoms: C3_3  and  N1_6
REMARK    4  A    between atoms: N1_6  and  C4_8
REMARK    5  A    between atoms: C5_11  and  N3_12
REMARK    6  A    between atoms: N3_12  and  C6_14
REMARK    7  A    between atoms: N4_17  and  C9_18
REMARK    8  A    between atoms: C9_18  and  C10_19
REMARK    9  A    between atoms: C10_19  and  O2_20
REMARK   10  A    between atoms: C13_26  and  N6_27
REMARK   11  A    between atoms: C15_33  and  C16_34
ROOT
HETATM    1  C4  UNL     1      34.768  52.523  10.457  1.00  0.00     0.148 C
HETATM    2  N2  UNL     1      33.624  51.825  10.499  1.00  0.00    -0.175 N
ATOM      3  H2  UNL     1      32.925  52.184  11.149  1.00  0.00     0.186 HD
HETATM    4  C5  UNL     1      33.245  50.693   9.800  1.00  0.00     0.681 C
HETATM    5  N5  UNL     1      33.657  50.347   8.577  1.00  0.00    -0.175 N
ATOM      6  H5  UNL     1      33.182  49.539   8.174  1.00  0.00     0.186 HD
HETATM    7  C13 UNL     1      34.622  50.910   7.781  1.00  0.00     0.144 C
HETATM    8  C14 UNL     1      35.400  52.011   8.072  1.00  0.00     0.109 A
HETATM    9  N7  UNL     1      36.260  52.591   7.206  1.00  0.00    -0.341 N
ATOM     10  H7  UNL     1      36.429  52.282   6.249  1.00  0.00     0.167 HD
HETATM   11  C15 UNL     1      36.857  53.637   7.799  1.00  0.00     0.086 A
HETATM   12  N8  UNL     1      36.360  53.700   9.043  1.00  0.00    -0.341 N
ATOM     13  H8  UNL     1      36.626  54.398   9.737  1.00  0.00     0.167 HD
HETATM   14  C22 UNL     1      35.469  52.729   9.251  1.00  0.00     0.109 A
ENDROOT
BRANCH   4  15
HETATM   15  N3  UNL     1      32.435  49.940  10.396  1.00  0.00    -0.221 N
ATOM     16  H3  UNL     1      32.740  49.598  11.308  1.00  0.00     0.178 HD
BRANCH  15  17
HETATM   17  C6  UNL     1      31.151  49.500   9.972  1.00  0.00     0.102 C
HETATM   18  C7  UNL     1      30.127  49.685  11.086  1.00  0.00     0.056 C
HETATM   19  C8  UNL     1      29.153  48.501  10.956  1.00  0.00     0.274 C
HETATM   20  N4  UNL     1      29.858  47.354  11.485  1.00  0.00     0.090 N
HETATM   21  C11 UNL     1      31.006  47.100  10.677  1.00  0.00     0.274 C
HETATM   22  C12 UNL     1      31.174  48.037   9.532  1.00  0.00     0.056 C
BRANCH  20  23
HETATM   23  C9  UNL     1      29.042  46.210  11.729  1.00  0.00     0.298 C
BRANCH  23  24
HETATM   24  C10 UNL     1      27.736  46.365  10.984  1.00  0.00     0.194 C
BRANCH  24  25
HETATM   25  O2  UNL     1      27.115  45.120  10.829  1.00  0.00    -0.399 OA
ATOM     26  H2  UNL     1      26.233  45.145  11.182  1.00  0.00     0.209 HD
ENDBRANCH  24  25
ENDBRANCH  23  24
ENDBRANCH  20  23
ENDBRANCH  15  17
ENDBRANCH   4  15
BRANCH   1  27
HETATM   27  N1  UNL     1      35.285  53.026  11.485  1.00  0.00    -0.348 N
ATOM     28  H1  UNL     1      34.769  53.847  11.800  1.00  0.00     0.163 HD
BRANCH  27  29
HETATM   29  C3  UNL     1      36.377  52.760  12.311  1.00  0.00     0.218 C
BRANCH  29  30
HETATM   30  C2  UNL     1      37.326  53.969  12.249  1.00  0.00     0.049 C
HETATM   31  C1  UNL     1      38.736  53.522  12.007  1.00  0.00     0.009 C
ENDBRANCH  29  30
BRANCH  29  32
HETATM   32  O1  UNL     1      36.029  52.445  13.611  1.00  0.00    -0.377 OA
ATOM     33  H1  UNL     1      36.159  51.523  13.798  1.00  0.00     0.212 HD
ENDBRANCH  29  32
ENDBRANCH  27  29
ENDBRANCH   1  27
BRANCH   7  34
HETATM   34  N6  UNL     1      34.798  50.337   6.659  1.00  0.00    -0.383 N
ATOM     35  H62 UNL     1      33.972  50.097   6.111  1.00  0.00     0.157 HD
ATOM     36  H61 UNL     1      35.772  50.168   6.408  1.00  0.00     0.157 HD
ENDBRANCH   7  34
BRANCH  11  37
HETATM   37  C16 UNL     1      37.878  54.543   7.173  1.00  0.00     0.053 C
HETATM   38  C17 UNL     1      38.699  53.836   6.134  1.00  0.00     0.012 C
HETATM   39  C18 UNL     1      39.520  54.899   5.419  1.00  0.00     0.001 C
HETATM   40  C19 UNL     1      38.598  55.721   4.557  1.00  0.00     0.000 C
HETATM   41  C20 UNL     1      37.187  55.677   5.071  1.00  0.00     0.001 C
HETATM   42  C21 UNL     1      37.195  55.750   6.569  1.00  0.00     0.012 C
ENDBRANCH  11  37
TORSDOF 11
ENDMDL