MODEL 5
REMARK VINA RESULT: -9.107838468      1.948      3.455
REMARK  9 active torsions:
REMARK  status: ('A' for Active; 'I' for Inactive)
REMARK    1  A    between atoms: N1_1  and  C1_4
REMARK    2  A    between atoms: C2_7  and  C3_8
REMARK    3  A    between atoms: C3_8  and  N3_9
REMARK    4  A    between atoms: C3_8  and  C9_20
REMARK       I    between atoms: N3_9  and  C4_11
REMARK    5  A    between atoms: C4_11  and  C5_13
REMARK    6  A    between atoms: C9_20  and  O3_25
REMARK    7  A    between atoms: N5_21  and  O2_23
REMARK    8  A    between atoms: O3_25  and  C10_26
REMARK    9  A    between atoms: C13_29  and  C14_30
ROOT
HETATM    1  C3  UNL     1      29.816  47.343   5.396  1.00  0.00     0.231 C
ENDROOT
BRANCH   1   2
HETATM    2  C2  UNL     1      31.268  47.218   5.609  1.00  0.00     0.143 A
HETATM    3  N2  UNL     1      32.167  47.305   4.589  1.00  0.00    -0.176 N
HETATM    4  C1  UNL     1      33.403  47.166   5.078  1.00  0.00     0.692 A
ATOM      5  H2  UNL     1      31.934  47.454   3.607  1.00  0.00     0.185 HD
HETATM    6  N7  UNL     1      33.270  46.991   6.401  1.00  0.00    -0.131 N
HETATM    7  N6  UNL     1      31.987  47.022   6.719  1.00  0.00    -0.272 N
ATOM      8  H7  UNL     1      34.038  46.855   7.059  1.00  0.00     0.205 HD
ATOM      9  H6  UNL     1      31.608  46.914   7.659  1.00  0.00     0.189 HD
BRANCH   4  10
HETATM   10  N1  UNL     1      34.542  47.171   4.490  1.00  0.00    -0.233 N
ATOM     11  H12 UNL     1      34.640  47.125   3.476  1.00  0.00     0.174 HD
ATOM     12  H11 UNL     1      35.488  47.226   4.869  1.00  0.00     0.174 HD
ENDBRANCH   4  10
ENDBRANCH   1   2
BRANCH   1  13
HETATM   13  N3  UNL     1      29.375  46.215   4.594  1.00  0.00    -0.341 N
HETATM   14  C4  UNL     1      29.749  44.890   4.840  1.00  0.00     0.249 C
HETATM   15  O1  UNL     1      30.495  44.608   5.802  1.00  0.00    -0.271 OA
ATOM     16  H3  UNL     1      28.756  46.400   3.805  1.00  0.00     0.163 HD
BRANCH  14  17
HETATM   17  C5  UNL     1      29.261  43.808   3.964  1.00  0.00     0.277 C
HETATM   18  C6  UNL     1      30.471  43.033   3.384  1.00  0.00     0.044 C
HETATM   19  C7  UNL     1      29.802  41.776   2.885  1.00  0.00     0.030 C
HETATM   20  C8  UNL     1      28.503  41.723   3.659  1.00  0.00     0.233 C
HETATM   21  N4  UNL     1      28.647  42.725   4.710  1.00  0.00    -0.062 N
ATOM     22  H42 UNL     1      29.152  42.421   5.542  1.00  0.00     0.278 HD
ATOM     23  H41 UNL     1      27.791  42.964   5.212  1.00  0.00     0.278 HD
ENDBRANCH  14  17
ENDBRANCH   1  13
BRANCH   1  24
HETATM   24  C9  UNL     1      29.041  47.533   6.615  1.00  0.00     0.169 C
HETATM   25  N5  UNL     1      27.736  47.653   6.520  1.00  0.00    -0.249 N
ATOM     26  H5  UNL     1      27.186  47.786   7.369  1.00  0.00     0.196 HD
BRANCH  25  27
HETATM   27  O2  UNL     1      27.092  47.604   5.306  1.00  0.00    -0.288 OA
ATOM     28  H2  UNL     1      26.229  47.982   5.183  1.00  0.00     0.244 HD
ENDBRANCH  25  27
BRANCH  24  29
HETATM   29  O3  UNL     1      29.483  47.609   7.899  1.00  0.00    -0.330 OA
BRANCH  29  30
HETATM   30  C10 UNL     1      29.117  46.784   8.930  1.00  0.00     0.139 C
HETATM   31  C11 UNL     1      29.769  45.473   9.066  1.00  0.00     0.034 C
HETATM   32  C12 UNL     1      29.552  44.958  10.479  1.00  0.00     0.018 C
HETATM   33  C13 UNL     1      28.259  45.448  11.057  1.00  0.00     0.087 C
HETATM   34  C15 UNL     1      28.281  46.948  11.216  1.00  0.00     0.027 C
HETATM   35  C16 UNL     1      29.189  47.622  10.218  1.00  0.00    -0.013 C
HETATM   36  C17 UNL     1      30.577  47.804  10.693  1.00  0.00     0.012 C
HETATM   37  C20 UNL     1      28.669  48.989   9.875  1.00  0.00     0.012 C
HETATM   38  C18 UNL     1      30.992  49.233  10.460  1.00  0.00     0.001 C
HETATM   39  C19 UNL     1      29.678  49.977  10.418  1.00  0.00     0.001 C
BRANCH  33  40
HETATM   40  C14 UNL     1      28.065  44.807  12.372  1.00  0.00     0.177 C
HETATM   41  O4  UNL     1      28.515  45.393  13.391  1.00  0.00    -0.648 OA
HETATM   42  O5  UNL     1      27.424  43.607  12.577  1.00  0.00    -0.648 OA
ENDBRANCH  33  40
ENDBRANCH  29  30
ENDBRANCH  24  29
ENDBRANCH   1  24
TORSDOF 9
ENDMDL