MODEL 5
REMARK VINA RESULT: -4.649817148      8.476     11.446
REMARK  3 active torsions:
REMARK  status: ('A' for Active; 'I' for Inactive)
REMARK    1  A    between atoms: C5_12  and  C15_25
REMARK    2  A    between atoms: C10_18  and  C11_19
REMARK    3  A    between atoms: C11_19  and  O1_20
ROOT
HETATM    1  C1  UNL     1      -0.643   9.043 -19.808  1.00  0.00     0.022 C
HETATM    2  C2  UNL     1       0.846   9.029 -19.894  1.00  0.00     0.058 C
HETATM    3  S1  UNL     1       1.562   8.169 -18.383  1.00  0.00    -0.111 SA
HETATM    4  C3  UNL     1       3.223   7.803 -19.073  1.00  0.00     0.058 C
HETATM    5  N1  UNL     1       4.152   8.483 -18.510  1.00  0.00    -0.334 N
ATOM      6  H1  UNL     1       3.899   9.124 -17.758  1.00  0.00     0.168 HD
HETATM    7  C4  UNL     1       5.546   8.380 -18.892  1.00  0.00     0.138 C
HETATM    8  N2  UNL     1       6.384   8.216 -17.963  1.00  0.00    -0.380 N
ATOM      9  H21 UNL     1       7.365   8.143 -18.232  1.00  0.00     0.158 HD
ATOM     10  H22 UNL     1       6.044   8.142 -17.004  1.00  0.00     0.158 HD
HETATM   11  S2  UNL     1       6.153   8.513 -20.606  1.00  0.00    -0.089 SA
HETATM   12  C5  UNL     1       4.664   8.143 -21.636  1.00  0.00     0.063 C
HETATM   13  C6  UNL     1       4.203   6.812 -21.168  1.00  0.00     0.033 C
HETATM   14  C7  UNL     1       3.137   6.794 -20.152  1.00  0.00     0.023 C
HETATM   15  C8  UNL     1       3.165   5.435 -19.464  1.00  0.00     0.024 C
HETATM   16  C9  UNL     1       1.781   6.892 -20.812  1.00  0.00     0.105 C
HETATM   17 CL1  UNL     1       1.698   5.910 -22.267  1.00  0.00    -0.123 Cl
HETATM   18  C10 UNL     1       1.387   8.307 -21.115  1.00  0.00     0.054 C
ENDROOT
BRANCH  12  19
HETATM   19  C15 UNL     1       3.734   9.271 -21.491  1.00  0.00     0.035 C
HETATM   20  C11 UNL     1       3.042   9.827 -22.662  1.00  0.00     0.069 C
HETATM   21  C12 UNL     1       4.212  10.283 -23.528  1.00  0.00     0.038 C
HETATM   22  C13 UNL     1       4.934  11.134 -22.502  1.00  0.00     0.004 C
HETATM   23  C14 UNL     1       4.635  10.495 -21.163  1.00  0.00     0.009 C
BRANCH  20  24
HETATM   24  O1  UNL     1       2.449  11.049 -22.231  1.00  0.00    -0.389 OA
ATOM     25  H1  UNL     1       2.931  11.742 -22.665  1.00  0.00     0.210 HD
ENDBRANCH  20  24
ENDBRANCH  12  19
TORSDOF 3
ENDMDL