MODEL 1
REMARK VINA RESULT: -6.892014124      0.000      0.000
REMARK  1 active torsions:
REMARK  status: ('A' for Active; 'I' for Inactive)
REMARK    1  A    between atoms: C13_15  and  N2_16
ROOT
HETATM    1  C1  UNL     1      -4.956   8.976 -14.960  1.00  0.00     0.011 C
HETATM    2  C2  UNL     1      -5.624   7.697 -15.415  1.00  0.00    -0.007 C
HETATM    3  C3  UNL     1      -7.064   7.715 -15.007  1.00  0.00     0.016 C
HETATM    4  C4  UNL     1      -7.999   8.084 -16.111  1.00  0.00    -0.016 C
HETATM    5  C5  UNL     1      -8.583   6.828 -16.713  1.00  0.00     0.018 C
HETATM    6  C6  UNL     1      -9.196   8.866 -15.548  1.00  0.00     0.018 C
HETATM    7  C7  UNL     1      -7.412   8.934 -17.183  1.00  0.00     0.185 C
HETATM    8  F1  UNL     1      -8.428   9.013 -18.152  1.00  0.00    -0.248 F
HETATM    9  C8  UNL     1      -6.178   8.288 -17.799  1.00  0.00     0.067 C
HETATM   10  C9  UNL     1      -5.404   7.438 -16.873  1.00  0.00     0.053 C
HETATM   11  C10 UNL     1      -3.926   7.447 -17.069  1.00  0.00     0.073 A
HETATM   12  C11 UNL     1      -3.172   6.347 -16.730  1.00  0.00     0.113 A
HETATM   13  C12 UNL     1      -3.755   5.133 -16.207  1.00  0.00     0.105 C
HETATM   14  N1  UNL     1      -4.232   4.161 -15.806  1.00  0.00    -0.191 NA
HETATM   15  C13 UNL     1      -1.802   6.403 -16.912  1.00  0.00     0.124 A
HETATM   16  N3  UNL     1      -1.202   7.490 -17.403  1.00  0.00    -0.317 N
ATOM     17  H3  UNL     1      -0.190   7.512 -17.529  1.00  0.00     0.170 HD
HETATM   18  C14 UNL     1      -1.956   8.562 -17.731  1.00  0.00     0.204 A
HETATM   19  S1  UNL     1      -1.244   9.918 -18.336  1.00  0.00    -0.038 SA
HETATM   20  N4  UNL     1      -3.288   8.523 -17.561  1.00  0.00    -0.196 N
HETATM   21  O1  UNL     1      -4.124   9.576 -17.887  1.00  0.00    -0.260 OA
HETATM   22  C15 UNL     1      -5.337   9.259 -18.541  1.00  0.00     0.089 C
HETATM   23  C16 UNL     1      -6.012  10.624 -18.765  1.00  0.00     0.049 C
HETATM   24  C17 UNL     1      -5.071   8.786 -19.973  1.00  0.00     0.049 C
ENDROOT
BRANCH  15  25
HETATM   25  N2  UNL     1      -1.077   5.386 -16.602  1.00  0.00    -0.384 N
ATOM     26  H22 UNL     1      -1.466   4.451 -16.730  1.00  0.00     0.157 HD
ATOM     27  H21 UNL     1      -0.135   5.531 -16.237  1.00  0.00     0.157 HD
ENDBRANCH  15  25
TORSDOF 1
ENDMDL