MODEL 5
REMARK VINA RESULT: -4.786935540      1.765      4.196
REMARK  3 active torsions:
REMARK  status: ('A' for Active; 'I' for Inactive)
REMARK    1  A    between atoms: C3_3  and  O1_4
REMARK    2  A    between atoms: C7_10  and  C8_11
REMARK    3  A    between atoms: C8_11  and  O3_14
ROOT
HETATM    1  C1  UNL     1       1.791   6.079 -23.024  1.00  0.00     0.016 C
HETATM    2  C2  UNL     1       3.232   6.194 -22.550  1.00  0.00     0.058 C
HETATM    3  C3  UNL     1       3.873   7.480 -22.787  1.00  0.00     0.159 C
HETATM    4  C4  UNL     1       3.400   8.748 -22.248  1.00  0.00     0.083 C
HETATM    5  C5  UNL     1       1.988   9.131 -22.730  1.00  0.00     0.048 C
HETATM    6  C6  UNL     1       4.214   9.831 -23.023  1.00  0.00     0.048 C
HETATM    7  O2  UNL     1       3.503   9.113 -20.995  1.00  0.00    -0.339 OA
HETATM    8  C7  UNL     1       3.903   8.508 -19.916  1.00  0.00     0.201 C
HETATM    9  C11 UNL     1       2.818   8.675 -18.839  1.00  0.00     0.109 C
HETATM   10  C12 UNL     1       1.854   7.541 -18.779  1.00  0.00     0.062 C
HETATM   11  C13 UNL     1       0.449   8.125 -19.009  1.00  0.00     0.046 C
HETATM   12  C14 UNL     1       1.766   6.974 -17.362  1.00  0.00     0.046 C
HETATM   13  O4  UNL     1       2.053   6.604 -19.736  1.00  0.00    -0.342 OA
HETATM   14  C15 UNL     1       3.358   6.234 -19.994  1.00  0.00     0.201 C
HETATM   15  C16 UNL     1       3.700   5.202 -18.899  1.00  0.00     0.083 C
HETATM   16  O5  UNL     1       4.286   7.207 -19.924  1.00  0.00    -0.313 OA
HETATM   17  C17 UNL     1       3.478   5.488 -21.268  1.00  0.00     0.161 C
HETATM   18  C18 UNL     1       2.500   4.306 -21.178  1.00  0.00     0.058 C
HETATM   19  F1  UNL     1       4.760   4.910 -21.268  1.00  0.00    -0.237 F
ENDROOT
BRANCH   8  20
HETATM   20  C8  UNL     1       5.078   9.301 -19.304  1.00  0.00     0.107 C
HETATM   21  C9  UNL     1       4.979  10.764 -19.520  1.00  0.00     0.051 C
HETATM   22  C10 UNL     1       6.410   8.815 -19.777  1.00  0.00     0.051 C
BRANCH  20  23
HETATM   23  O3  UNL     1       4.970   9.068 -17.912  1.00  0.00    -0.385 OA
ATOM     24  H3  UNL     1       4.036   8.989 -17.759  1.00  0.00     0.210 HD
ENDBRANCH  20  23
ENDBRANCH   8  20
BRANCH   3  25
HETATM   25  O1  UNL     1       3.929   7.653 -24.204  1.00  0.00    -0.392 OA
ATOM     26  H1  UNL     1       4.393   8.466 -24.360  1.00  0.00     0.210 HD
ENDBRANCH   3  25
TORSDOF 3
ENDMDL