MODEL 3
REMARK VINA RESULT: -7.102413892      2.975      5.397
REMARK  3 active torsions:
REMARK  status: ('A' for Active; 'I' for Inactive)
REMARK    1  A    between atoms: C4_4  and  C5_5
REMARK    2  A    between atoms: C7_8  and  O2_9
REMARK    3  A    between atoms: C14_20  and  O5_21
ROOT
HETATM    1  C1  UNL     1      -3.365   8.334 -17.371  1.00  0.00     0.020 C
HETATM    2  C2  UNL     1      -3.922   7.057 -16.841  1.00  0.00     0.071 C
HETATM    3  C3  UNL     1      -5.416   6.976 -17.023  1.00  0.00    -0.006 C
HETATM    4  C4  UNL     1      -6.060   7.097 -15.891  1.00  0.00    -0.008 C
HETATM    5  C9  UNL     1      -5.072   7.276 -14.773  1.00  0.00     0.145 C
HETATM    6  C10 UNL     1      -5.143   8.675 -14.270  1.00  0.00     0.057 C
HETATM    7  O3  UNL     1      -5.289   6.373 -13.751  1.00  0.00    -0.335 OA
HETATM    8  C11 UNL     1      -4.360   5.355 -13.880  1.00  0.00     0.162 C
HETATM    9  C12 UNL     1      -5.100   4.045 -13.704  1.00  0.00     0.078 C
HETATM   10  C13 UNL     1      -3.269   5.430 -12.841  1.00  0.00     0.078 C
HETATM   11  O4  UNL     1      -3.779   5.478 -15.119  1.00  0.00    -0.316 OA
HETATM   12  C14 UNL     1      -3.773   6.869 -15.375  1.00  0.00     0.207 C
ENDROOT
BRANCH   4  13
HETATM   13  C5  UNL     1      -7.502   7.065 -15.705  1.00  0.00     0.018 A
HETATM   14  C6  UNL     1      -8.245   5.920 -15.343  1.00  0.00     0.158 A
HETATM   15  O1  UNL     1      -9.514   6.226 -15.258  1.00  0.00    -0.298 OA
HETATM   16  C7  UNL     1      -9.719   7.478 -15.527  1.00  0.00     0.201 A
HETATM   17  C8  UNL     1      -8.449   8.024 -15.813  1.00  0.00     0.082 A
HETATM   18 BR1  UNL     1      -8.167   9.847 -16.277  1.00  0.00    -0.045 Br
BRANCH  16  19
HETATM   19  O2  UNL     1     -10.913   8.201 -15.549  1.00  0.00    -0.340 OA
ATOM     20  H2  UNL     1     -11.162   8.946 -16.085  1.00  0.00     0.220 HD
ENDBRANCH  16  19
ENDBRANCH   4  13
BRANCH  12  21
HETATM   21  O5  UNL     1      -2.672   7.491 -14.823  1.00  0.00    -0.362 OA
ATOM     22  H5  UNL     1      -2.716   8.439 -14.811  1.00  0.00     0.213 HD
ENDBRANCH  12  21
TORSDOF 3
ENDMDL