MODEL 3
REMARK VINA RESULT: -7.981482868      2.366      3.069
REMARK  2 active torsions:
REMARK  status: ('A' for Active; 'I' for Inactive)
REMARK    1  A    between atoms: O1_2  and  C2_3
REMARK       I    between atoms: C2_3  and  N1_5
REMARK    2  A    between atoms: C7_11  and  N2_12
ROOT
HETATM    1  C2  UNL     1      -7.507   8.400 -17.228  1.00  0.00     0.372 C
HETATM    2  O2  UNL     1      -7.903   9.328 -17.970  1.00  0.00    -0.238 OA
HETATM    3  N1  UNL     1      -6.153   7.959 -17.156  1.00  0.00    -0.244 N
HETATM    4  C3  UNL     1      -5.677   6.992 -16.396  1.00  0.00     0.093 A
HETATM    5 BR1  UNL     1      -6.733   5.946 -15.196  1.00  0.00    -0.030 Br
HETATM    6  C4  UNL     1      -4.301   6.883 -16.630  1.00  0.00     0.053 A
HETATM    7  C5  UNL     1      -3.929   7.839 -17.584  1.00  0.00     0.016 A
HETATM    8  C6  UNL     1      -2.828   8.288 -18.255  1.00  0.00     0.038 A
HETATM    9  C7  UNL     1      -1.490   7.852 -18.184  1.00  0.00     0.111 A
HETATM   10  N3  UNL     1      -0.529   8.425 -18.934  1.00  0.00    -0.346 N
ATOM     11  H3  UNL     1       0.419   8.063 -18.837  1.00  0.00     0.167 HD
HETATM   12  C8  UNL     1      -0.714   9.413 -19.781  1.00  0.00     0.008 A
HETATM   13  C9  UNL     1       0.336  10.047 -20.607  1.00  0.00     0.068 C
HETATM   14  C10 UNL     1      -2.004   9.886 -19.897  1.00  0.00     0.044 A
HETATM   15  C11 UNL     1      -3.016   9.313 -19.137  1.00  0.00     0.023 A
HETATM   16  S1  UNL     1      -4.689   9.628 -19.017  1.00  0.00    -0.070 SA
HETATM   17  C12 UNL     1      -5.107   8.460 -17.860  1.00  0.00     0.098 A
ENDROOT
BRANCH   1  18
HETATM   18  O1  UNL     1      -8.437   7.765 -16.430  1.00  0.00    -0.308 OA
HETATM   19  C1  UNL     1      -9.512   8.436 -15.823  1.00  0.00     0.215 C
ENDBRANCH   1  18
BRANCH   9  20
HETATM   20  N2  UNL     1      -1.090   6.914 -17.432  1.00  0.00    -0.385 N
ATOM     21  H22 UNL     1      -1.830   6.428 -16.924  1.00  0.00     0.157 HD
ATOM     22  H21 UNL     1      -0.112   6.647 -17.327  1.00  0.00     0.157 HD
ENDBRANCH   9  20
TORSDOF 2
ENDMDL