MODEL 2
REMARK VINA RESULT: -8.835845625      2.964      6.066
REMARK  2 active torsions:
REMARK  status: ('A' for Active; 'I' for Inactive)
REMARK    1  A    between atoms: C12_15  and  O3_17
REMARK    2  A    between atoms: N1_23  and  O4_25
ROOT
HETATM    1  C1  UNL     1      -1.922   3.414 -14.572  1.00  0.00     0.065 C
HETATM    2  C2  UNL     1      -3.338   3.761 -14.428  1.00  0.00     0.043 C
HETATM    3 CL1  UNL     1      -4.303   2.768 -13.312  1.00  0.00    -0.086 Cl
HETATM    4  C3  UNL     1      -3.941   4.722 -15.049  1.00  0.00     0.115 C
HETATM    5  O1  UNL     1      -5.321   5.012 -14.865  1.00  0.00    -0.341 OA
HETATM    6  C4  UNL     1      -5.787   6.346 -14.763  1.00  0.00     0.138 C
HETATM    7  C5  UNL     1      -5.376   6.851 -13.377  1.00  0.00     0.041 C
HETATM    8  C6  UNL     1      -5.315   7.254 -15.858  1.00  0.00     0.018 C
HETATM    9  C7  UNL     1      -4.958   8.573 -15.218  1.00  0.00     0.023 C
HETATM   10  C8  UNL     1      -4.186   6.681 -16.629  1.00  0.00    -0.019 C
HETATM   11  C9  UNL     1      -3.974   7.104 -17.850  1.00  0.00    -0.014 C
HETATM   12  C10 UNL     1      -4.767   8.130 -18.564  1.00  0.00     0.060 C
HETATM   13  C11 UNL     1      -6.127   8.342 -17.974  1.00  0.00     0.134 C
HETATM   14  O2  UNL     1      -6.345   9.644 -17.528  1.00  0.00    -0.350 OA
HETATM   15  C12 UNL     1      -7.717   9.874 -17.594  1.00  0.00     0.158 C
HETATM   16  C13 UNL     1      -8.136  11.102 -16.823  1.00  0.00     0.078 C
HETATM   17  C14 UNL     1      -8.508   8.665 -17.187  1.00  0.00     0.068 C
HETATM   18  C15 UNL     1      -7.754   7.760 -16.226  1.00  0.00     0.013 C
HETATM   19  C16 UNL     1      -6.446   7.411 -16.853  1.00  0.00     0.030 C
HETATM   20  C17 UNL     1      -3.316   5.648 -16.023  1.00  0.00     0.095 C
HETATM   21  N1  UNL     1      -2.098   5.523 -16.280  1.00  0.00    -0.266 N
ATOM     22  H1  UNL     1      -1.632   4.767 -15.777  1.00  0.00     0.194 HD
ENDROOT
BRANCH  21  23
HETATM   23  O4  UNL     1      -1.304   6.217 -17.104  1.00  0.00    -0.289 OA
ATOM     24  H4  UNL     1      -0.383   6.441 -17.035  1.00  0.00     0.244 HD
ENDBRANCH  21  23
BRANCH  15  25
HETATM   25  O3  UNL     1      -7.998  10.101 -18.963  1.00  0.00    -0.366 OA
ATOM     26  H3  UNL     1      -8.928   9.936 -19.063  1.00  0.00     0.213 HD
ENDBRANCH  15  25
TORSDOF 2
ENDMDL