MODEL 2
REMARK VINA RESULT: -8.955653933      3.231      6.528
REMARK  1 active torsions:
REMARK  status: ('A' for Active; 'I' for Inactive)
REMARK    1  A    between atoms: C6_7  and  N2_8
ROOT
HETATM    1  C1  UNL     1      -4.611  11.214 -20.586  1.00  0.00     0.156 C
HETATM    2  N1  UNL     1      -4.244  10.227 -19.573  1.00  0.00    -0.349 N
HETATM    3  C2  UNL     1      -5.107   9.584 -18.770  1.00  0.00     0.026 A
HETATM    4  C3  UNL     1      -4.410   8.723 -17.941  1.00  0.00     0.028 A
HETATM    5  C4  UNL     1      -3.056   8.880 -18.267  1.00  0.00     0.080 A
HETATM    6  C5  UNL     1      -2.999   9.829 -19.305  1.00  0.00     0.106 A
HETATM    7  C6  UNL     1      -1.793  10.201 -19.846  1.00  0.00     0.130 A
HETATM    8  N3  UNL     1      -0.659   9.629 -19.342  1.00  0.00    -0.318 N
ATOM      9  H3  UNL     1       0.253   9.881 -19.724  1.00  0.00     0.170 HD
HETATM   10  C7  UNL     1      -0.746   8.748 -18.357  1.00  0.00     0.179 A
HETATM   11  S1  UNL     1       0.611   8.028 -17.741  1.00  0.00    -0.040 SA
HETATM   12  N4  UNL     1      -1.936   8.359 -17.796  1.00  0.00    -0.325 N
HETATM   13  C8  UNL     1      -1.850   7.578 -16.602  1.00  0.00     0.159 C
HETATM   14  C9  UNL     1      -5.163   7.887 -16.957  1.00  0.00    -0.004 A
HETATM   15  C10 UNL     1      -4.829   6.838 -16.213  1.00  0.00     0.063 A
HETATM   16  C11 UNL     1      -5.789   6.107 -15.552  1.00  0.00     0.158 A
HETATM   17  F1  UNL     1      -5.628   4.997 -14.741  1.00  0.00    -0.198 F
HETATM   18  S2  UNL     1      -7.221   6.879 -15.959  1.00  0.00    -0.063 SA
HETATM   19  C12 UNL     1      -6.529   8.115 -16.964  1.00  0.00     0.005 A
HETATM   20  C13 UNL     1      -7.262   9.227 -17.636  1.00  0.00    -0.008 C
HETATM   21  C14 UNL     1      -7.656  10.288 -16.606  1.00  0.00     0.021 C
HETATM   22  C15 UNL     1      -8.591   8.640 -18.143  1.00  0.00     0.021 C
HETATM   23  C16 UNL     1      -6.575   9.758 -18.798  1.00  0.00     0.072 C
ENDROOT
BRANCH   7  24
HETATM   24  N2  UNL     1      -1.668  11.027 -20.774  1.00  0.00    -0.383 N
ATOM     25  H22 UNL     1      -2.278  10.930 -21.585  1.00  0.00     0.157 HD
ATOM     26  H21 UNL     1      -0.996  11.795 -20.768  1.00  0.00     0.157 HD
ENDBRANCH   7  24
TORSDOF 1
ENDMDL