MODEL 2
REMARK VINA RESULT: -7.054843251      2.056      4.861
REMARK  2 active torsions:
REMARK  status: ('A' for Active; 'I' for Inactive)
REMARK    1  A    between atoms: C6_6  and  O1_8
REMARK    2  A    between atoms: C14_17  and  O2_18
ROOT
HETATM    1  C1  UNL     1      -4.091   6.052 -12.995  1.00  0.00     0.015 C
HETATM    2  C2  UNL     1      -4.790   5.448 -14.145  1.00  0.00    -0.048 C
HETATM    3  C3  UNL     1      -4.900   3.949 -13.770  1.00  0.00     0.015 C
HETATM    4  C4  UNL     1      -3.926   5.393 -15.415  1.00  0.00     0.012 C
HETATM    5  C5  UNL     1      -3.293   6.714 -15.742  1.00  0.00     0.040 C
HETATM    6  C6  UNL     1      -3.659   7.196 -17.094  1.00  0.00     0.071 C
HETATM    7  C7  UNL     1      -2.377   7.154 -17.954  1.00  0.00     0.047 C
HETATM    8  C8  UNL     1      -4.191   8.558 -17.226  1.00  0.00     0.116 C
HETATM    9 CL1  UNL     1      -4.699   8.738 -18.935  1.00  0.00    -0.122 Cl
HETATM   10  C9  UNL     1      -5.250   9.010 -16.278  1.00  0.00     0.034 C
HETATM   11  C10 UNL     1      -6.588   8.461 -16.440  1.00  0.00     0.062 C
HETATM   12  C11 UNL     1      -7.660   9.368 -16.921  1.00  0.00     0.101 C
HETATM   13  C12 UNL     1      -7.390  10.483 -17.794  1.00  0.00     0.050 C
HETATM   14  C13 UNL     1      -8.700   8.475 -17.620  1.00  0.00     0.073 C
HETATM   15  C14 UNL     1      -9.087   7.292 -16.826  1.00  0.00     0.124 C
HETATM   16  C15 UNL     1      -8.494   7.151 -15.487  1.00  0.00     0.073 C
HETATM   17  C16 UNL     1      -7.293   7.989 -15.197  1.00  0.00     0.105 C
HETATM   18  C17 UNL     1      -6.492   7.335 -14.142  1.00  0.00     0.042 C
HETATM   19  C18 UNL     1      -6.150   5.911 -14.452  1.00  0.00     0.012 C
HETATM   20  O3  UNL     1      -7.779   9.236 -14.735  1.00  0.00    -0.228 OA
HETATM   21  O4  UNL     1      -8.317   9.826 -15.756  1.00  0.00    -0.229 OA
ENDROOT
BRANCH   6  22
HETATM   22  O1  UNL     1      -4.514   6.304 -17.787  1.00  0.00    -0.389 OA
ATOM     23  H1  UNL     1      -4.758   5.546 -17.270  1.00  0.00     0.210 HD
ENDBRANCH   6  22
BRANCH  15  24
HETATM   24  O2  UNL     1      -8.780   6.142 -17.593  1.00  0.00    -0.395 OA
ATOM     25  H2  UNL     1      -8.978   5.380 -17.061  1.00  0.00     0.210 HD
ENDBRANCH  15  24
TORSDOF 2
ENDMDL