MODEL 3
REMARK VINA RESULT: -7.397683987      2.596      3.132
REMARK  1 active torsions:
REMARK  status: ('A' for Active; 'I' for Inactive)
REMARK    1  A    between atoms: O1_2  and  C2_3
REMARK       I    between atoms: C2_3  and  N1_5
ROOT
HETATM    1  C2  UNL     1      -3.948  10.780 -19.565  1.00  0.00     0.364 C
HETATM    2  O2  UNL     1      -4.014  11.559 -20.546  1.00  0.00    -0.238 OA
HETATM    3  N1  UNL     1      -5.104  10.343 -18.909  1.00  0.00    -0.298 N
ATOM      4  H1  UNL     1      -5.869  11.011 -18.823  1.00  0.00     0.171 HD
HETATM    5  C3  UNL     1      -5.287   9.181 -18.409  1.00  0.00     0.079 C
HETATM    6  S1  UNL     1      -4.169   7.789 -18.382  1.00  0.00    -0.071 SA
HETATM    7  C4  UNL     1      -4.928   6.995 -16.917  1.00  0.00     0.050 A
HETATM    8  C5  UNL     1      -6.094   7.621 -16.773  1.00  0.00     0.028 A
HETATM    9  S2  UNL     1      -6.764   6.859 -15.406  1.00  0.00    -0.084 SA
HETATM   10  C6  UNL     1      -5.501   5.734 -15.050  1.00  0.00     0.101 A
HETATM   11  C7  UNL     1      -5.320   4.756 -14.065  1.00  0.00     0.267 A
HETATM   12  O3  UNL     1      -6.249   4.638 -13.243  1.00  0.00    -0.267 OA
HETATM   13  N2  UNL     1      -4.200   4.020 -14.049  1.00  0.00    -0.299 N
ATOM     14  H2  UNL     1      -4.034   3.300 -13.346  1.00  0.00     0.171 HD
HETATM   15  C8  UNL     1      -3.314   4.291 -15.014  1.00  0.00     0.179 A
HETATM   16  S3  UNL     1      -1.936   3.377 -14.983  1.00  0.00    -0.040 SA
HETATM   17  N3  UNL     1      -3.465   5.211 -15.955  1.00  0.00    -0.331 N
ATOM     18  H3  UNL     1      -2.723   5.335 -16.644  1.00  0.00     0.168 HD
HETATM   19  C9  UNL     1      -4.591   6.008 -16.037  1.00  0.00     0.075 A
HETATM   20  C10 UNL     1      -6.461   8.668 -17.718  1.00  0.00     0.180 C
HETATM   21 CL1  UNL     1      -7.331   9.969 -16.874  1.00  0.00    -0.112 Cl
ENDROOT
BRANCH   1  22
HETATM   22  O1  UNL     1      -2.695  10.362 -19.146  1.00  0.00    -0.309 OA
HETATM   23  C1  UNL     1      -1.678  10.167 -20.111  1.00  0.00     0.215 C
ENDBRANCH   1  22
TORSDOF 1
ENDMDL