MODEL 4
REMARK VINA RESULT: -8.475734755      1.998      3.497
REMARK  1 active torsions:
REMARK  status: ('A' for Active; 'I' for Inactive)
REMARK    1  A    between atoms: C3_3  and  O1_4
ROOT
HETATM    1  C1  UNL     1      -4.723  11.252 -19.504  1.00  0.00     0.052 C
HETATM    2  C2  UNL     1      -3.955  10.060 -19.096  1.00  0.00    -0.014 A
HETATM    3  C3  UNL     1      -2.648   9.862 -19.536  1.00  0.00     0.089 A
HETATM    4  C4  UNL     1      -1.933   8.741 -19.110  1.00  0.00     0.046 A
HETATM    5 BR1  UNL     1      -0.154   8.522 -19.740  1.00  0.00    -0.048 Br
HETATM    6  C5  UNL     1      -2.543   7.850 -18.259  1.00  0.00     0.052 A
HETATM    7  C6  UNL     1      -3.835   8.054 -17.832  1.00  0.00     0.047 A
HETATM    8  C7  UNL     1      -4.562   9.152 -18.238  1.00  0.00     0.009 A
HETATM    9  C8  UNL     1      -5.824   9.080 -17.642  1.00  0.00     0.002 A
HETATM   10  C9  UNL     1      -5.822   7.933 -16.884  1.00  0.00     0.030 A
HETATM   11  N1  UNL     1      -4.606   7.333 -17.019  1.00  0.00    -0.353 N
HETATM   12  C10 UNL     1      -4.213   6.103 -16.380  1.00  0.00     0.156 C
HETATM   13  C11 UNL     1      -7.113   7.772 -16.191  1.00  0.00     0.019 C
HETATM   14  C12 UNL     1      -7.017   8.310 -14.762  1.00  0.00     0.024 C
HETATM   15  C13 UNL     1      -7.529   6.329 -16.095  1.00  0.00     0.024 C
HETATM   16  C14 UNL     1      -8.049   8.624 -16.958  1.00  0.00     0.140 C
HETATM   17  N2  UNL     1      -8.540   7.975 -18.168  1.00  0.00    -0.317 N
ATOM     18  H2  UNL     1      -8.955   7.044 -18.204  1.00  0.00     0.181 HD
HETATM   19  N3  UNL     1      -8.376   8.731 -19.162  1.00  0.00    -0.250 N
ATOM     20  H3  UNL     1      -8.643   8.493 -20.117  1.00  0.00     0.203 HD
HETATM   21  N4  UNL     1      -7.782   9.937 -18.784  1.00  0.00    -0.114 NA
HETATM   22  C15 UNL     1      -7.146   9.725 -17.511  1.00  0.00     0.161 C
ENDROOT
BRANCH   3  23
HETATM   23  O1  UNL     1      -2.028  10.736 -20.381  1.00  0.00    -0.359 OA
ATOM     24  H1  UNL     1      -2.092  10.655 -21.326  1.00  0.00     0.217 HD
ENDBRANCH   3  23
TORSDOF 1
ENDMDL