MODEL 5
REMARK VINA RESULT: -5.050122617      1.829      2.888
REMARK  3 active torsions:
REMARK  status: ('A' for Active; 'I' for Inactive)
REMARK       I    between atoms: C1_4  and  N3_6
REMARK    1  A    between atoms: N3_6  and  C2_8
REMARK    2  A    between atoms: C2_8  and  C3_9
REMARK    3  A    between atoms: C3_9  and  N5_13
ROOT
HETATM    1  C3  UNL     1      27.776  41.280  72.237  1.00  0.00     0.091 C
HETATM    2  N4  UNL     1      28.910  41.324  72.842  1.00  0.00    -0.388 N
ATOM      3  H41 UNL     1      29.749  41.326  72.261  1.00  0.00     0.157 HD
ATOM      4  H42 UNL     1      28.984  41.356  73.860  1.00  0.00     0.157 HD
ENDROOT
BRANCH   1   5
HETATM    5  C2  UNL     1      26.552  41.277  73.086  1.00  0.00     0.198 C
BRANCH   5   6
HETATM    6  N3  UNL     1      26.504  40.123  73.950  1.00  0.00    -0.358 N
HETATM    7  C1  UNL     1      25.669  39.014  73.743  1.00  0.00     0.182 C
HETATM    8  N1  UNL     1      25.286  38.312  74.778  1.00  0.00    -0.374 N
HETATM    9  N2  UNL     1      25.213  38.609  72.452  1.00  0.00    -0.064 NA
ATOM     10  H12 UNL     1      24.680  37.506  74.626  1.00  0.00     0.158 HD
ATOM     11  H11 UNL     1      25.613  38.601  75.700  1.00  0.00     0.158 HD
ATOM     12  H3  UNL     1      27.117  40.112  74.765  1.00  0.00     0.162 HD
ENDBRANCH   5   6
ENDBRANCH   1   5
BRANCH   1  13
HETATM   13  N5  UNL     1      27.674  41.235  70.821  1.00  0.00    -0.360 N
HETATM   14  C4  UNL     1      27.527  39.997  70.066  1.00  0.00     0.135 C
HETATM   15  C5  UNL     1      26.149  40.144  69.403  1.00  0.00     0.095 C
HETATM   16  S1  UNL     1      26.385  41.839  68.723  1.00  0.00    -0.148 SA
HETATM   17  C6  UNL     1      27.698  42.361  69.902  1.00  0.00     0.198 C
ENDBRANCH   1  13
TORSDOF 3
ENDMDL