MODEL 2
REMARK VINA RESULT: -5.006325359      1.445      1.537
REMARK  3 active torsions:
REMARK  status: ('A' for Active; 'I' for Inactive)
REMARK    1  A    between atoms: C2_2  and  N1_3
REMARK    2  A    between atoms: C5_6  and  N2_7
REMARK       I    between atoms: N2_7  and  C6_9
REMARK    3  A    between atoms: C7_14  and  N5_15
ROOT
HETATM    1  N1  UNL     1      26.192  42.426  68.956  1.00  0.00    -0.411 N
HETATM    2  C3  UNL     1      27.535  42.315  69.420  1.00  0.00     0.119 C
HETATM    3  C4  UNL     1      27.544  41.246  70.524  1.00  0.00     0.046 C
HETATM    4  C5  UNL     1      26.878  41.951  71.718  1.00  0.00     0.117 C
HETATM    5  C7  UNL     1      25.506  42.391  71.332  1.00  0.00     0.223 C
HETATM    6  C8  UNL     1      25.186  42.037  69.871  1.00  0.00     0.151 C
ENDROOT
BRANCH   4   7
HETATM    7  N2  UNL     1      26.969  41.105  72.844  1.00  0.00    -0.358 N
HETATM    8  C6  UNL     1      28.079  40.346  73.262  1.00  0.00     0.182 C
HETATM    9  N3  UNL     1      27.950  39.078  73.404  1.00  0.00    -0.374 N
HETATM   10  N4  UNL     1      29.353  40.895  73.545  1.00  0.00    -0.064 NA
ATOM     11  H32 UNL     1      27.032  38.682  73.200  1.00  0.00     0.158 HD
ATOM     12  H31 UNL     1      28.754  38.527  73.707  1.00  0.00     0.158 HD
ATOM     13  H2  UNL     1      26.133  41.035  73.424  1.00  0.00     0.162 HD
ENDBRANCH   4   7
BRANCH   5  14
HETATM   14  N5  UNL     1      24.451  41.843  72.127  1.00  0.00    -0.071 N
ATOM     15  H53 UNL     1      23.559  41.930  71.638  1.00  0.00     0.274 HD
ATOM     16  H52 UNL     1      24.532  40.827  72.168  1.00  0.00     0.274 HD
ATOM     17  H51 UNL     1      24.376  42.229  73.068  1.00  0.00     0.274 HD
ENDBRANCH   5  14
BRANCH   1  18
HETATM   18  C2  UNL     1      25.942  43.639  68.237  1.00  0.00     0.112 C
HETATM   19  C1  UNL     1      27.021  44.650  68.316  1.00  0.00     0.026 C
ENDBRANCH   1  18
TORSDOF 3
ENDMDL