MODEL 3
REMARK VINA RESULT: -5.611978529      1.620      1.683
REMARK  3 active torsions:
REMARK  status: ('A' for Active; 'I' for Inactive)
REMARK    1  A    between atoms: C3_3  and  N1_4
REMARK    2  A    between atoms: C5_6  and  N2_7
REMARK    3  A    between atoms: C7_12  and  C8_13
ROOT
HETATM    1  C1  UNL     1      29.610  44.073  68.644  1.00  0.00     0.013 C
HETATM    2  C2  UNL     1      29.500  42.953  69.070  1.00  0.00    -0.087 C
HETATM    3  C3  UNL     1      29.345  41.619  69.595  1.00  0.00     0.365 C
ENDROOT
BRANCH   3   4
HETATM    4  N1  UNL     1      28.616  41.638  70.847  1.00  0.00     0.102 N
HETATM    5  C4  UNL     1      29.018  40.567  71.729  1.00  0.00     0.306 C
HETATM    6  C5  UNL     1      27.850  39.913  72.393  1.00  0.00     0.212 C
HETATM    7  C6  UNL     1      26.802  40.858  72.885  1.00  0.00     0.048 C
HETATM    8  C7  UNL     1      26.604  42.078  72.018  1.00  0.00     0.080 C
HETATM    9  C9  UNL     1      27.191  41.701  70.649  1.00  0.00     0.285 C
BRANCH   6  10
HETATM   10  N2  UNL     1      28.274  39.126  73.536  1.00  0.00    -0.073 N
ATOM     11  H23 UNL     1      27.507  38.570  73.914  1.00  0.00     0.274 HD
ATOM     12  H22 UNL     1      28.895  38.366  73.259  1.00  0.00     0.274 HD
ATOM     13  H21 UNL     1      28.698  39.719  74.250  1.00  0.00     0.274 HD
ENDBRANCH   6  10
BRANCH   8  14
HETATM   14  C8  UNL     1      25.199  42.433  71.836  1.00  0.00     0.092 C
HETATM   15  N3  UNL     1      24.258  41.649  72.227  1.00  0.00    -0.391 N
ATOM     16  H32 UNL     1      24.490  40.761  72.672  1.00  0.00     0.157 HD
ATOM     17  H31 UNL     1      23.277  41.898  72.100  1.00  0.00     0.157 HD
HETATM   18  N4  UNL     1      24.878  43.665  71.219  1.00  0.00    -0.088 NA
ENDBRANCH   8  14
ENDBRANCH   3   4
TORSDOF 3
ENDMDL