MODEL 1
REMARK VINA RESULT: -5.326531308      0.000      0.000
REMARK  3 active torsions:
REMARK  status: ('A' for Active; 'I' for Inactive)
REMARK    1  A    between atoms: C2_2  and  C3_3
REMARK    2  A    between atoms: C3_3  and  N1_5
REMARK    3  A    between atoms: C3_3  and  N2_9
ROOT
HETATM    1  N2  UNL     1      27.800  41.128  70.856  1.00  0.00    -0.355 N
HETATM    2  C5  UNL     1      26.400  41.175  70.733  1.00  0.00     0.088 C
HETATM    3  C6  UNL     1      25.772  39.853  71.114  1.00  0.00     0.278 C
HETATM    4  N3  UNL     1      25.063  39.927  72.373  1.00  0.00    -0.047 N
ATOM      5  H31 UNL     1      24.065  39.773  72.231  1.00  0.00     0.279 HD
ATOM      6  H32 UNL     1      25.043  40.887  72.717  1.00  0.00     0.279 HD
HETATM    7  C7  UNL     1      25.569  39.042  73.381  1.00  0.00     0.463 C
HETATM    8  N4  UNL     1      26.993  39.049  73.441  1.00  0.00    -0.050 N
ATOM      9  H41 UNL     1      27.379  38.339  72.819  1.00  0.00     0.279 HD
ATOM     10  H42 UNL     1      27.314  38.687  74.339  1.00  0.00     0.279 HD
HETATM   11  C8  UNL     1      27.595  40.335  73.173  1.00  0.00     0.254 C
HETATM   12  C9  UNL     1      28.369  40.380  71.908  1.00  0.00     0.152 C
ENDROOT
BRANCH   1  13
HETATM   13  C3  UNL     1      28.595  41.206  69.694  1.00  0.00     0.211 C
HETATM   14  C4  UNL     1      28.887  42.684  69.405  1.00  0.00     0.075 C
BRANCH  13  15
HETATM   15  C2  UNL     1      29.915  40.543  69.792  1.00  0.00     0.023 C
HETATM   16  C1  UNL     1      30.663  40.219  68.747  1.00  0.00     0.011 C
ENDBRANCH  13  15
BRANCH  13  17
HETATM   17  N1  UNL     1      27.940  40.702  68.501  1.00  0.00    -0.049 N
ATOM     18  H13 UNL     1      28.567  40.643  67.699  1.00  0.00     0.277 HD
ATOM     19  H12 UNL     1      27.710  39.710  68.563  1.00  0.00     0.277 HD
ATOM     20  H11 UNL     1      27.125  41.289  68.327  1.00  0.00     0.277 HD
ENDBRANCH  13  17
ENDBRANCH   1  13
TORSDOF 3
ENDMDL