MODEL 2
REMARK VINA RESULT: -5.763090000      1.265      1.292
REMARK  3 active torsions:
REMARK  status: ('A' for Active; 'I' for Inactive)
REMARK       I    between atoms: C2_5  and  N4_7
REMARK    1  A    between atoms: N4_7  and  C3_9
REMARK    2  A    between atoms: C7_13  and  C8_14
REMARK    3  A    between atoms: C8_14  and  N5_15
ROOT
HETATM    1  N1  UNL     1      24.970  38.720  72.404  1.00  0.00    -0.172 NA
HETATM    2  C1  UNL     1      26.033  38.933  72.854  1.00  0.00     0.184 C
HETATM    3  N2  UNL     1      27.309  39.172  73.383  1.00  0.00    -0.268 N
ATOM      4  H2  UNL     1      27.809  38.438  73.885  1.00  0.00     0.180 HD
HETATM    5  C2  UNL     1      27.835  40.327  73.224  1.00  0.00     0.197 C
HETATM    6  N3  UNL     1      29.140  40.533  73.777  1.00  0.00    -0.063 NA
HETATM    7  N4  UNL     1      27.166  41.367  72.531  1.00  0.00    -0.359 N
ATOM      8  H4  UNL     1      26.657  42.093  73.036  1.00  0.00     0.162 HD
ENDROOT
BRANCH   7   9
HETATM    9  C3  UNL     1      27.227  41.367  71.099  1.00  0.00     0.089 C
HETATM   10  C4  UNL     1      28.655  41.747  70.682  1.00  0.00     0.026 C
HETATM   11  C5  UNL     1      28.525  42.591  69.433  1.00  0.00     0.002 C
HETATM   12  C6  UNL     1      27.073  42.429  69.034  1.00  0.00     0.008 C
HETATM   13  C7  UNL     1      26.429  42.420  70.412  1.00  0.00     0.034 C
BRANCH  13  14
HETATM   14  C8  UNL     1      24.950  42.146  70.325  1.00  0.00     0.236 C
BRANCH  14  15
HETATM   15  N5  UNL     1      24.788  40.777  69.888  1.00  0.00    -0.079 N
ATOM     16  H53 UNL     1      25.543  40.168  70.201  1.00  0.00     0.274 HD
ATOM     17  H52 UNL     1      24.024  40.296  70.362  1.00  0.00     0.274 HD
ATOM     18  H51 UNL     1      24.681  40.791  68.874  1.00  0.00     0.274 HD
ENDBRANCH  14  15
ENDBRANCH  13  14
ENDBRANCH   7   9
TORSDOF 3
ENDMDL