MODEL 5
REMARK VINA RESULT: -4.762105882      1.939      3.130
REMARK  3 active torsions:
REMARK  status: ('A' for Active; 'I' for Inactive)
REMARK       I    between atoms: N1_2  and  C2_4
REMARK       I    between atoms: C2_4  and  N3_8
REMARK    1  A    between atoms: N3_8  and  C4_10
REMARK    2  A    between atoms: C6_12  and  N4_13
REMARK    3  A    between atoms: C7_17  and  N5_18
ROOT
HETATM    1  C4  UNL     1      26.969  40.576  71.187  1.00  0.00     0.105 C
HETATM    2  C5  UNL     1      28.130  39.626  71.475  1.00  0.00     0.060 C
HETATM    3  C6  UNL     1      27.792  39.257  72.926  1.00  0.00     0.215 C
HETATM    4  C7  UNL     1      26.345  38.841  72.770  1.00  0.00     0.215 C
HETATM    5  C8  UNL     1      25.810  39.947  71.874  1.00  0.00     0.060 C
ENDROOT
BRANCH   1   6
HETATM    6  N3  UNL     1      26.811  40.809  69.788  1.00  0.00    -0.218 N
HETATM    7  C2  UNL     1      27.809  41.524  69.098  1.00  0.00     0.669 C
HETATM    8  N1  UNL     1      28.318  41.086  67.847  1.00  0.00    -0.231 N
HETATM    9  N2  UNL     1      28.259  42.606  69.636  1.00  0.00    -0.235 N
HETATM   10  C1  UNL     1      29.336  40.047  67.878  1.00  0.00     0.165 C
ATOM     11  H1  UNL     1      27.986  41.482  66.967  1.00  0.00     0.177 HD
ATOM     12  H22 UNL     1      28.982  43.124  69.136  1.00  0.00     0.174 HD
ATOM     13  H21 UNL     1      27.893  42.920  70.534  1.00  0.00     0.174 HD
HETATM   14  C3  UNL     1      25.669  40.336  69.064  1.00  0.00     0.169 C
ENDBRANCH   1   6
BRANCH   3  15
HETATM   15  N4  UNL     1      27.860  40.466  73.688  1.00  0.00    -0.073 N
ATOM     16  H43 UNL     1      28.550  40.429  74.438  1.00  0.00     0.274 HD
ATOM     17  H42 UNL     1      28.273  41.243  73.172  1.00  0.00     0.274 HD
ATOM     18  H41 UNL     1      26.916  40.660  74.020  1.00  0.00     0.274 HD
ENDBRANCH   3  15
BRANCH   4  19
HETATM   19  N5  UNL     1      25.640  38.853  74.034  1.00  0.00    -0.073 N
ATOM     20  H53 UNL     1      26.077  38.226  74.709  1.00  0.00     0.274 HD
ATOM     21  H52 UNL     1      25.775  39.736  74.526  1.00  0.00     0.274 HD
ATOM     22  H51 UNL     1      24.648  38.641  73.920  1.00  0.00     0.274 HD
ENDBRANCH   4  19
TORSDOF 3
ENDMDL