MODEL 3
REMARK VINA RESULT: -4.900900349      2.845      3.523
REMARK  4 active torsions:
REMARK  status: ('A' for Active; 'I' for Inactive)
REMARK    1  A    between atoms: N1_1  and  N2_4
REMARK    2  A    between atoms: C1_6  and  N3_7
REMARK    3  A    between atoms: C4_10  and  N4_11
REMARK    4  A    between atoms: N4_11  and  C5_13
ROOT
HETATM    1  N3  UNL     1      26.189  39.581  71.798  1.00  0.00    -0.374 N
HETATM    2  C2  UNL     1      25.823  39.996  70.471  1.00  0.00     0.125 C
HETATM    3  C3  UNL     1      27.165  40.070  69.769  1.00  0.00     0.046 C
HETATM    4  C4  UNL     1      28.023  40.695  70.880  1.00  0.00     0.103 C
HETATM    5  C6  UNL     1      27.604  39.832  72.054  1.00  0.00     0.148 C
ENDROOT
BRANCH   1   6
HETATM    6  C1  UNL     1      25.349  38.992  72.801  1.00  0.00     0.194 C
HETATM    7  N2  UNL     1      25.934  38.680  73.911  1.00  0.00    -0.303 N
ATOM      8  H2  UNL     1      26.932  38.861  74.021  1.00  0.00     0.187 HD
BRANCH   7   9
HETATM    9  N1  UNL     1      25.209  38.094  74.972  1.00  0.00    -0.344 N
ATOM     10  H12 UNL     1      25.107  38.619  75.841  1.00  0.00     0.176 HD
ATOM     11  H11 UNL     1      24.797  37.166  74.875  1.00  0.00     0.176 HD
ENDBRANCH   7   9
ENDBRANCH   1   6
BRANCH   4  12
HETATM   12  N4  UNL     1      29.419  40.592  70.575  1.00  0.00    -0.363 N
ATOM     13  H4  UNL     1      30.074  40.274  71.289  1.00  0.00     0.162 HD
BRANCH  12  14
HETATM   14  C5  UNL     1      29.891  40.934  69.281  1.00  0.00     0.181 C
HETATM   15  N5  UNL     1      29.730  42.262  68.748  1.00  0.00    -0.070 NA
HETATM   16  S1  UNL     1      30.644  39.863  68.308  1.00  0.00    -0.044 SA
ENDBRANCH  12  14
ENDBRANCH   4  12
TORSDOF 4
ENDMDL