MODEL 2
REMARK VINA RESULT: -5.483377397      0.719      1.321
REMARK  3 active torsions:
REMARK  status: ('A' for Active; 'I' for Inactive)
REMARK       I    between atoms: C1_4  and  N3_6
REMARK    1  A    between atoms: N3_6  and  S1_8
REMARK    2  A    between atoms: S1_8  and  N4_9
REMARK    3  A    between atoms: S1_8  and  N5_13
ROOT
HETATM    1  S1  UNL     1      26.116  39.841  72.693  1.00  0.00     0.178 S
HETATM    2  O1  UNL     1      25.428  38.542  72.975  1.00  0.00    -0.211 OA
ENDROOT
BRANCH   1   3
HETATM    3  N3  UNL     1      25.081  40.969  71.895  1.00  0.00    -0.263 N
HETATM    4  C1  UNL     1      25.466  42.332  71.887  1.00  0.00     0.195 C
HETATM    5  N1  UNL     1      25.936  42.949  70.863  1.00  0.00    -0.373 N
HETATM    6  N2  UNL     1      25.323  43.069  73.091  1.00  0.00    -0.063 NA
ATOM      7  H12 UNL     1      26.213  43.931  70.857  1.00  0.00     0.158 HD
ATOM      8  H11 UNL     1      26.038  42.419  69.998  1.00  0.00     0.158 HD
ATOM      9  H3  UNL     1      24.219  40.664  71.444  1.00  0.00     0.181 HD
ENDBRANCH   1   3
BRANCH   1  10
HETATM   10  N4  UNL     1      26.505  40.463  74.080  1.00  0.00    -0.332 N
ATOM     11  H42 UNL     1      26.095  41.303  74.490  1.00  0.00     0.168 HD
ATOM     12  H41 UNL     1      27.234  39.874  74.483  1.00  0.00     0.168 HD
ENDBRANCH   1  10
BRANCH   1  13
HETATM   13  N5  UNL     1      27.529  39.545  71.731  1.00  0.00    -0.211 NA
HETATM   14  C2  UNL     1      28.533  40.568  71.933  1.00  0.00     0.107 C
HETATM   15  C3  UNL     1      29.299  40.672  70.615  1.00  0.00     0.017 C
HETATM   16  C4  UNL     1      28.467  39.889  69.621  1.00  0.00     0.017 C
HETATM   17  C5  UNL     1      27.146  39.781  70.336  1.00  0.00     0.107 C
ENDBRANCH   1  13
TORSDOF 3
ENDMDL