MODEL 3
REMARK VINA RESULT: -6.034701414      2.528      5.539
REMARK  3 active torsions:
REMARK  status: ('A' for Active; 'I' for Inactive)
REMARK    1  A    between atoms: C1_2  and  O2_4
REMARK    2  A    between atoms: O2_4  and  C2_5
REMARK       I    between atoms: C2_5  and  N2_7
REMARK    3  A    between atoms: N2_7  and  N3_9
ROOT
HETATM    1  N3  UNL     1      22.396   8.656  38.784  1.00  0.00    -0.189 N
HETATM    2  C3  UNL     1      22.076   8.583  37.454  1.00  0.00     0.270 A
HETATM    3  O4  UNL     1      22.929   8.112  36.643  1.00  0.00    -0.266 OA
HETATM    4  C4  UNL     1      20.874   8.999  36.960  1.00  0.00     0.093 A
HETATM    5  C5  UNL     1      19.948   9.508  37.814  1.00  0.00     0.096 A
HETATM    6  N4  UNL     1      20.279   9.570  39.112  1.00  0.00    -0.341 N
ATOM      7  H4  UNL     1      19.597   9.949  39.768  1.00  0.00     0.167 HD
HETATM    8  C6  UNL     1      21.480   9.154  39.596  1.00  0.00     0.200 A
HETATM    9  S1  UNL     1      21.700   9.306  41.185  1.00  0.00    -0.038 SA
ENDROOT
BRANCH   1  10
HETATM   10  N2  UNL     1      23.629   8.205  39.132  1.00  0.00    -0.233 N
HETATM   11  C2  UNL     1      24.146   7.103  39.817  1.00  0.00     0.388 C
HETATM   12  O3  UNL     1      23.589   6.145  40.345  1.00  0.00    -0.236 OA
ATOM     13  H2  UNL     1      24.366   8.832  38.811  1.00  0.00     0.193 HD
BRANCH  11  14
HETATM   14  O2  UNL     1      25.575   7.035  39.952  1.00  0.00    -0.210 OA
BRANCH  14  15
HETATM   15  C1  UNL     1      26.310   8.145  40.363  1.00  0.00     0.381 C
HETATM   16  N1  UNL     1      27.735   8.125  40.371  1.00  0.00    -0.032 NA
HETATM   17  O1  UNL     1      25.699   9.183  40.733  1.00  0.00    -0.242 OA
ENDBRANCH  14  15
ENDBRANCH  11  14
ENDBRANCH   1  10
TORSDOF 3
ENDMDL