MODEL 5
REMARK VINA RESULT: -5.815793587      1.807      3.414
REMARK  2 active torsions:
REMARK  status: ('A' for Active; 'I' for Inactive)
REMARK    1  A    between atoms: N1_1  and  C1_4
REMARK    2  A    between atoms: C5_10  and  N3_11
ROOT
HETATM    1  C1  UNL     1      23.531   9.514  40.244  1.00  0.00     0.686 A
HETATM    2  N2  UNL     1      22.559   9.837  41.110  1.00  0.00    -0.202 N
ATOM      3  H2  UNL     1      22.818  10.174  42.037  1.00  0.00     0.183 HD
HETATM    4  C2  UNL     1      21.254   9.730  40.799  1.00  0.00     0.108 A
HETATM    5  C3  UNL     1      20.934   9.271  39.539  1.00  0.00     0.051 A
HETATM    6  C4  UNL     1      21.935   8.935  38.638  1.00  0.00     0.102 A
HETATM    7  C5  UNL     1      21.635   8.466  37.356  1.00  0.00     0.198 A
HETATM    8  C6  UNL     1      22.636   8.136  36.472  1.00  0.00     0.284 A
HETATM    9  O3  UNL     1      22.324   7.720  35.332  1.00  0.00    -0.265 OA
HETATM   10  N4  UNL     1      23.914   8.273  36.866  1.00  0.00    -0.272 N
ATOM     11  H4  UNL     1      24.677   8.035  36.232  1.00  0.00     0.173 HD
HETATM   12  C7  UNL     1      24.180   8.727  38.105  1.00  0.00     0.348 A
HETATM   13  O4  UNL     1      25.387   8.842  38.440  1.00  0.00    -0.245 OA
HETATM   14  N5  UNL     1      23.227   9.058  38.994  1.00  0.00    -0.094 N
ENDROOT
BRANCH   1  15
HETATM   15  N1  UNL     1      24.781   9.620  40.552  1.00  0.00    -0.234 N
ATOM     16  H12 UNL     1      25.462   9.511  39.799  1.00  0.00     0.174 HD
ATOM     17  H11 UNL     1      25.088   9.805  41.507  1.00  0.00     0.174 HD
ENDBRANCH   1  15
BRANCH   7  18
HETATM   18  N3  UNL     1      20.263   8.344  37.004  1.00  0.00    -0.107 N
HETATM   19  O1  UNL     1      19.592   7.308  37.224  1.00  0.00    -0.531 OA
HETATM   20  O2  UNL     1      19.561   9.376  36.387  1.00  0.00    -0.531 OA
ENDBRANCH   7  18
TORSDOF 2
ENDMDL