MODEL 5
REMARK VINA RESULT: -6.505277694      1.965      5.407
REMARK  1 active torsions:
REMARK  status: ('A' for Active; 'I' for Inactive)
REMARK    1  A    between atoms: C4_7  and  N3_8
ROOT
HETATM    1  N1  UNL     1      18.779  10.251  39.316  1.00  0.00    -0.100 NA
HETATM    2  C1  UNL     1      19.972   9.958  38.602  1.00  0.00     0.075 A
HETATM    3  C2  UNL     1      20.147  10.344  37.289  1.00  0.00     0.045 A
HETATM    4  C3  UNL     1      21.340  10.011  36.690  1.00  0.00     0.091 A
HETATM    5  N2  UNL     1      22.329   9.346  37.293  1.00  0.00    -0.350 N
ATOM      6  H2  UNL     1      23.192   9.129  36.794  1.00  0.00     0.166 HD
HETATM    7  C4  UNL     1      22.160   8.968  38.580  1.00  0.00     0.142 A
HETATM    8  C9  UNL     1      20.996   9.269  39.231  1.00  0.00     0.115 A
HETATM    9  N5  UNL     1      20.811   8.869  40.598  1.00  0.00    -0.096 NA
ENDROOT
BRANCH   7  10
HETATM   10  N3  UNL     1      23.187   8.251  39.283  1.00  0.00    -0.258 N
HETATM   11  C5  UNL     1      22.986   7.010  39.770  1.00  0.00     0.109 A
HETATM   12  C6  UNL     1      23.981   6.321  40.447  1.00  0.00     0.092 A
HETATM   13  C7  UNL     1      25.188   6.981  40.594  1.00  0.00     0.250 A
HETATM   14  O1  UNL     1      26.128   6.426  41.190  1.00  0.00    -0.268 OA
HETATM   15  N4  UNL     1      25.371   8.221  40.101  1.00  0.00    -0.275 N
HETATM   16  C8  UNL     1      24.372   8.866  39.441  1.00  0.00     0.335 A
ATOM     17  H4  UNL     1      26.272   8.683  40.225  1.00  0.00     0.173 HD
HETATM   18  O2  UNL     1      24.586  10.017  38.999  1.00  0.00    -0.246 OA
ENDBRANCH   7  10
TORSDOF 1
ENDMDL