MODEL 3
REMARK VINA RESULT: -6.797594661      0.916      1.784
REMARK  2 active torsions:
REMARK  status: ('A' for Active; 'I' for Inactive)
REMARK    1  A    between atoms: C3_4  and  C4_5
REMARK    2  A    between atoms: N2_7  and  N3_8
ROOT
HETATM    1  C4  UNL     1      22.665   8.338  39.399  1.00  0.00     0.060 A
HETATM    2  C5  UNL     1      22.076   7.888  38.226  1.00  0.00     0.138 A
HETATM    3  N2  UNL     1      20.950   8.426  37.723  1.00  0.00    -0.222 N
HETATM    4  C6  UNL     1      20.386   9.442  38.402  1.00  0.00     0.347 A
HETATM    5  O1  UNL     1      19.330   9.945  37.929  1.00  0.00    -0.245 OA
HETATM    6  N4  UNL     1      20.909   9.922  39.544  1.00  0.00    -0.273 N
ATOM      7  H4  UNL     1      20.452  10.694  40.030  1.00  0.00     0.173 HD
HETATM    8  C7  UNL     1      22.040   9.382  40.049  1.00  0.00     0.261 A
HETATM    9  O2  UNL     1      22.551   9.811  41.115  1.00  0.00    -0.267 OA
ENDROOT
BRANCH   1  10
HETATM   10  C3  UNL     1      23.895   7.725  39.914  1.00  0.00    -0.015 A
HETATM   11  C2  UNL     1      23.862   6.544  40.628  1.00  0.00     0.057 A
HETATM   12  C1  UNL     1      24.978   5.928  41.131  1.00  0.00     0.116 A
HETATM   13  N1  UNL     1      24.942   4.715  41.864  1.00  0.00    -0.083 NA
HETATM   14  N5  UNL     1      26.175   6.521  40.909  1.00  0.00    -0.355 N
HETATM   15  C9  UNL     1      26.275   7.673  40.221  1.00  0.00     0.090 A
ATOM     16  H5  UNL     1      27.022   6.083  41.273  1.00  0.00     0.166 HD
HETATM   17  C8  UNL     1      25.134   8.294  39.711  1.00  0.00     0.029 A
ENDBRANCH   1  10
BRANCH   3  18
HETATM   18  N3  UNL     1      20.395   7.940  36.541  1.00  0.00    -0.335 N
ATOM     19  H32 UNL     1      20.336   6.939  36.349  1.00  0.00     0.177 HD
ATOM     20  H31 UNL     1      20.033   8.579  35.833  1.00  0.00     0.177 HD
ENDBRANCH   3  18
TORSDOF 2
ENDMDL