MODEL 3
REMARK VINA RESULT: -6.413471600      1.991      4.013
REMARK  2 active torsions:
REMARK  status: ('A' for Active; 'I' for Inactive)
REMARK    1  A    between atoms: C4_5  and  N2_6
REMARK    2  A    between atoms: C7_14  and  N4_15
ROOT
HETATM    1  N1  UNL     1      26.830   8.272  40.613  1.00  0.00    -0.190 NA
HETATM    2  C1  UNL     1      25.759   8.490  40.234  1.00  0.00     0.119 C
HETATM    3  C2  UNL     1      24.423   8.754  39.742  1.00  0.00     0.141 A
HETATM    4  C3  UNL     1      23.290   9.044  40.480  1.00  0.00     0.083 A
HETATM    5  C4  UNL     1      22.199   9.236  39.659  1.00  0.00     0.151 A
HETATM    6  C5  UNL     1      22.694   9.055  38.385  1.00  0.00     0.164 A
HETATM    7  N3  UNL     1      22.074   9.121  37.181  1.00  0.00    -0.303 N
ATOM      8  H3  UNL     1      21.077   9.336  37.144  1.00  0.00     0.171 HD
HETATM    9  C6  UNL     1      22.745   8.909  36.032  1.00  0.00     0.292 A
HETATM   10  O3  UNL     1      22.179   8.967  34.889  1.00  0.00    -0.264 OA
HETATM   11  C7  UNL     1      24.098   8.619  36.130  1.00  0.00     0.183 A
HETATM   12  N5  UNL     1      24.685   8.560  37.339  1.00  0.00    -0.272 N
ATOM     13  H5  UNL     1      25.681   8.345  37.398  1.00  0.00     0.189 HD
HETATM   14  N6  UNL     1      24.008   8.772  38.447  1.00  0.00    -0.225 N
ENDROOT
BRANCH   5  15
HETATM   15  N2  UNL     1      20.860   9.549  40.013  1.00  0.00    -0.112 N
HETATM   16  O1  UNL     1      20.124  10.253  39.292  1.00  0.00    -0.532 OA
HETATM   17  O2  UNL     1      20.300   9.088  41.180  1.00  0.00    -0.532 OA
ENDBRANCH   5  15
BRANCH  11  18
HETATM   18  N4  UNL     1      24.769   8.410  35.041  1.00  0.00    -0.380 N
ATOM     19  H42 UNL     1      24.829   7.482  34.623  1.00  0.00     0.158 HD
ATOM     20  H41 UNL     1      25.245   9.198  34.601  1.00  0.00     0.158 HD
ENDBRANCH  11  18
TORSDOF 2
ENDMDL