MODEL 3
REMARK VINA RESULT: -5.921857336      2.282      3.483
REMARK  3 active torsions:
REMARK  status: ('A' for Active; 'I' for Inactive)
REMARK    1  A    between atoms: C3_4  and  N2_5
REMARK    2  A    between atoms: C8_12  and  N4_13
REMARK    3  A    between atoms: N5_16  and  N6_17
ROOT
HETATM    1  N1  UNL     1      21.622   9.990  41.247  1.00  0.00    -0.191 NA
HETATM    2  C1  UNL     1      21.618   9.424  40.221  1.00  0.00     0.109 C
HETATM    3  C2  UNL     1      21.580   8.755  38.951  1.00  0.00     0.159 A
HETATM    4  C3  UNL     1      22.591   7.954  38.508  1.00  0.00     0.145 A
HETATM    5  N3  UNL     1      22.405   7.414  37.278  1.00  0.00    -0.173 N
ATOM      6  H3  UNL     1      23.136   6.807  36.906  1.00  0.00     0.186 HD
HETATM    7  C8  UNL     1      21.316   7.630  36.520  1.00  0.00     0.701 A
HETATM    8  N5  UNL     1      20.309   8.425  36.953  1.00  0.00    -0.053 N
HETATM    9  C9  UNL     1      20.436   8.982  38.155  1.00  0.00     0.306 A
HETATM   10  O1  UNL     1      19.508   9.730  38.585  1.00  0.00    -0.264 OA
ENDROOT
BRANCH   4  11
HETATM   11  N2  UNL     1      23.725   7.701  39.300  1.00  0.00    -0.365 N
HETATM   12  C4  UNL     1      23.727   6.496  40.166  1.00  0.00     0.124 C
HETATM   13  C5  UNL     1      25.067   6.334  40.745  1.00  0.00     0.021 C
HETATM   14  C6  UNL     1      25.651   7.721  40.704  1.00  0.00     0.021 C
HETATM   15  C7  UNL     1      24.960   8.368  39.513  1.00  0.00     0.124 C
ENDBRANCH   4  11
BRANCH   8  16
HETATM   16  N6  UNL     1      19.186   8.629  36.138  1.00  0.00    -0.321 N
ATOM     17  H62 UNL     1      19.165   9.326  35.394  1.00  0.00     0.178 HD
ATOM     18  H61 UNL     1      18.348   8.066  36.282  1.00  0.00     0.178 HD
ENDBRANCH   8  16
BRANCH   7  19
HETATM   19  N4  UNL     1      21.221   7.068  35.346  1.00  0.00    -0.233 N
ATOM     20  H42 UNL     1      21.848   6.298  35.113  1.00  0.00     0.174 HD
ATOM     21  H41 UNL     1      20.526   7.403  34.679  1.00  0.00     0.174 HD
ENDBRANCH   7  19
TORSDOF 3
ENDMDL