MODEL 3
REMARK VINA RESULT: -5.828035982      2.088      3.244
REMARK  3 active torsions:
REMARK  status: ('A' for Active; 'I' for Inactive)
REMARK    1  A    between atoms: C2_3  and  N2_4
REMARK    2  A    between atoms: N2_4  and  N3_6
REMARK    3  A    between atoms: C9_19  and  N6_20
ROOT
HETATM    1  C1  UNL     1      21.930  10.095  35.692  1.00  0.00     0.177 C
HETATM    2  N1  UNL     1      22.295   9.333  36.870  1.00  0.00    -0.171 N
HETATM    3  C2  UNL     1      23.268   8.408  36.800  1.00  0.00     0.701 A
HETATM    4  N4  UNL     1      23.587   7.707  37.937  1.00  0.00    -0.174 N
ATOM      5  H4  UNL     1      24.324   7.004  37.890  1.00  0.00     0.186 HD
HETATM    6  C3  UNL     1      22.977   7.909  39.082  1.00  0.00     0.139 A
HETATM    7  C4  UNL     1      21.967   8.876  39.137  1.00  0.00     0.053 A
HETATM    8  C5  UNL     1      21.336   9.087  40.321  1.00  0.00     0.024 A
HETATM    9  C6  UNL     1      21.684   8.362  41.443  1.00  0.00     0.075 A
HETATM   10  C7  UNL     1      22.685   7.429  41.315  1.00  0.00     0.248 A
HETATM   11  O1  UNL     1      23.017   6.758  42.325  1.00  0.00    -0.268 OA
HETATM   12  N5  UNL     1      23.327   7.196  40.164  1.00  0.00    -0.303 N
HETATM   13  C8  UNL     1      24.381   6.208  40.049  1.00  0.00     0.161 C
HETATM   14  C9  UNL     1      21.624   9.595  38.019  1.00  0.00     0.131 A
ENDROOT
BRANCH   3  15
HETATM   15  N2  UNL     1      23.942   8.107  35.757  1.00  0.00    -0.138 N
ATOM     16  H2  UNL     1      23.415   7.604  35.043  1.00  0.00     0.205 HD
BRANCH  15  17
HETATM   17  N3  UNL     1      25.249   8.345  35.438  1.00  0.00    -0.331 N
ATOM     18  H32 UNL     1      25.905   8.007  36.142  1.00  0.00     0.177 HD
ATOM     19  H31 UNL     1      25.665   8.798  34.625  1.00  0.00     0.177 HD
ENDBRANCH  15  17
ENDBRANCH   3  15
BRANCH  14  20
HETATM   20  N6  UNL     1      20.731  10.463  38.027  1.00  0.00    -0.384 N
ATOM     21  H62 UNL     1      19.813  10.311  37.611  1.00  0.00     0.157 HD
ATOM     22  H61 UNL     1      20.911  11.368  38.462  1.00  0.00     0.157 HD
ENDBRANCH  14  20
TORSDOF 3
ENDMDL