MODEL 4
REMARK VINA RESULT: -5.911591190      3.148      5.027
REMARK  2 active torsions:
REMARK  status: ('A' for Active; 'I' for Inactive)
REMARK    1  A    between atoms: N1_1  and  C1_4
REMARK    2  A    between atoms: C3_9  and  N3_10
ROOT
HETATM    1  C1  UNL     1      23.777   8.588  37.727  1.00  0.00     0.700 A
HETATM    2  N2  UNL     1      23.301   8.062  36.591  1.00  0.00    -0.152 N
ATOM      3  H2  UNL     1      23.965   7.713  35.900  1.00  0.00     0.187 HD
HETATM    4  C2  UNL     1      21.988   7.974  36.321  1.00  0.00     0.295 A
HETATM    5  O1  UNL     1      21.539   7.487  35.268  1.00  0.00    -0.265 OA
HETATM    6  C3  UNL     1      21.088   8.455  37.278  1.00  0.00     0.203 A
HETATM    7  C4  UNL     1      21.598   8.983  38.423  1.00  0.00     0.158 A
HETATM    8  N4  UNL     1      22.939   9.058  38.666  1.00  0.00    -0.085 N
HETATM    9  N5  UNL     1      23.388   9.616  39.854  1.00  0.00    -0.315 N
ATOM     10  H5  UNL     1      24.344   9.970  39.872  1.00  0.00     0.181 HD
HETATM   11  C5  UNL     1      22.615   9.739  41.069  1.00  0.00     0.148 C
HETATM   12  C6  UNL     1      21.168   9.475  40.884  1.00  0.00     0.106 C
HETATM   13  C7  UNL     1      20.719   9.473  39.461  1.00  0.00     0.182 C
HETATM   14  O4  UNL     1      19.593   9.891  39.167  1.00  0.00    -0.291 OA
ENDROOT
BRANCH   1  15
HETATM   15  N1  UNL     1      25.069   8.657  37.954  1.00  0.00    -0.233 N
ATOM     16  H12 UNL     1      25.437   9.497  38.402  1.00  0.00     0.174 HD
ATOM     17  H11 UNL     1      25.691   7.894  37.692  1.00  0.00     0.174 HD
ENDBRANCH   1  15
BRANCH   6  18
HETATM   18  N3  UNL     1      19.719   8.386  36.980  1.00  0.00    -0.107 N
HETATM   19  O2  UNL     1      19.051   7.405  37.324  1.00  0.00    -0.531 OA
HETATM   20  O3  UNL     1      19.101   9.396  36.305  1.00  0.00    -0.531 OA
ENDBRANCH   6  18
TORSDOF 2
ENDMDL