MODEL 3
REMARK VINA RESULT: -6.835192834      3.384      5.580
REMARK  3 active torsions:
REMARK  status: ('A' for Active; 'I' for Inactive)
REMARK    1  A    between atoms: N1_1  and  N2_4
REMARK    2  A    between atoms: N2_4  and  C1_6
REMARK    3  A    between atoms: C5_13  and  N4_14
ROOT
HETATM    1  C1  UNL     1      22.946   9.207  38.461  1.00  0.00     0.699 A
HETATM    2  N3  UNL     1      21.875   8.645  39.049  1.00  0.00    -0.154 N
ATOM      3  H3  UNL     1      20.941   8.983  38.814  1.00  0.00     0.187 HD
HETATM    4  C2  UNL     1      22.006   7.648  39.939  1.00  0.00     0.272 A
HETATM    5  O1  UNL     1      21.005   7.122  40.489  1.00  0.00    -0.267 OA
HETATM    6  C3  UNL     1      23.287   7.216  40.233  1.00  0.00     0.062 A
HETATM    7  C4  UNL     1      23.466   6.179  41.156  1.00  0.00     0.055 A
HETATM    8  C5  UNL     1      24.740   5.747  41.449  1.00  0.00     0.104 A
HETATM    9  C6  UNL     1      25.842   6.332  40.839  1.00  0.00     0.038 A
HETATM   10  C7  UNL     1      25.681   7.343  39.938  1.00  0.00     0.033 A
HETATM   11  C8  UNL     1      24.401   7.776  39.643  1.00  0.00     0.065 A
HETATM   12  N5  UNL     1      24.184   8.777  38.757  1.00  0.00    -0.189 N
ATOM     13  H5  UNL     1      24.984   9.216  38.301  1.00  0.00     0.184 HD
ENDROOT
BRANCH   1  14
HETATM   14  N2  UNL     1      22.817  10.165  37.607  1.00  0.00    -0.138 N
ATOM     15  H2  UNL     1      23.659  10.672  37.337  1.00  0.00     0.205 HD
BRANCH  14  16
HETATM   16  N1  UNL     1      21.628  10.555  37.032  1.00  0.00    -0.331 N
ATOM     17  H12 UNL     1      21.229   9.920  36.340  1.00  0.00     0.177 HD
ATOM     18  H11 UNL     1      21.129  11.418  37.247  1.00  0.00     0.177 HD
ENDBRANCH  14  16
ENDBRANCH   1  14
BRANCH   8  19
HETATM   19  N4  UNL     1      24.909   4.684  42.397  1.00  0.00    -0.116 N
HETATM   20  O2  UNL     1      25.636   3.732  42.144  1.00  0.00    -0.532 OA
HETATM   21  O3  UNL     1      24.256   4.722  43.601  1.00  0.00    -0.532 OA
ENDBRANCH   8  19
TORSDOF 3
ENDMDL