MODEL 2
REMARK VINA RESULT: -6.877289967      1.715      4.791
REMARK  1 active torsions:
REMARK  status: ('A' for Active; 'I' for Inactive)
REMARK    1  A    between atoms: N1_1  and  C1_4
ROOT
HETATM    1  C1  UNL     1      20.885  10.711  37.511  1.00  0.00     0.681 A
HETATM    2  N2  UNL     1      20.246  10.371  38.628  1.00  0.00    -0.141 N
ATOM      3  H2  UNL     1      19.336  10.789  38.828  1.00  0.00     0.189 HD
HETATM    4  C2  UNL     1      20.763   9.499  39.493  1.00  0.00     0.348 A
HETATM    5  O1  UNL     1      20.159   9.170  40.563  1.00  0.00    -0.245 OA
HETATM    6  N3  UNL     1      21.956   8.930  39.263  1.00  0.00    -0.231 N
HETATM    7  C3  UNL     1      22.604   9.267  38.138  1.00  0.00     0.149 A
HETATM    8  C4  UNL     1      23.797   8.582  38.085  1.00  0.00     0.147 A
HETATM    9  N4  UNL     1      23.840   7.834  39.200  1.00  0.00    -0.315 N
HETATM   10  C5  UNL     1      24.757   6.970  39.681  1.00  0.00     0.102 A
HETATM   11  C6  UNL     1      24.621   6.285  40.865  1.00  0.00     0.072 A
HETATM   12  C7  UNL     1      23.461   6.515  41.588  1.00  0.00     0.176 A
HETATM   13  O2  UNL     1      23.309   5.892  42.691  1.00  0.00    -0.288 OA
HETATM   14  C8  UNL     1      22.502   7.393  41.128  1.00  0.00     0.104 A
HETATM   15  C9  UNL     1      22.716   8.037  39.934  1.00  0.00     0.127 A
HETATM   16  N5  UNL     1      22.067  10.151  37.274  1.00  0.00    -0.175 N
ATOM     17  H5  UNL     1      22.577  10.395  36.425  1.00  0.00     0.186 HD
ENDROOT
BRANCH   1  18
HETATM   18  N1  UNL     1      20.355  11.560  36.691  1.00  0.00    -0.234 N
ATOM     19  H12 UNL     1      20.040  12.480  36.998  1.00  0.00     0.174 HD
ATOM     20  H11 UNL     1      20.243  11.319  35.706  1.00  0.00     0.174 HD
ENDBRANCH   1  18
TORSDOF 1
ENDMDL