MODEL 2
REMARK VINA RESULT: -7.488572667      1.192      1.266
REMARK  6 active torsions:
REMARK  status: ('A' for Active; 'I' for Inactive)
REMARK       I    between atoms: N1_2  and  C2_4
REMARK    1  A    between atoms: C2_4  and  C3_6
REMARK       I    between atoms: C3_6  and  N2_8
REMARK    2  A    between atoms: N2_8  and  C4_10
REMARK    3  A    between atoms: C8_14  and  C9_15
REMARK    4  A    between atoms: C10_16  and  C11_17
REMARK    5  A    between atoms: C12_18  and  C13_19
REMARK    6  A    between atoms: C13_19  and  O4_21
ROOT
HETATM    1  C4  UNL     1      10.370   9.553   2.014  1.00  0.00     0.097 A
HETATM    2  C5  UNL     1       9.566   9.679   0.550  1.00  0.00     0.053 A
HETATM    3  C6  UNL     1      10.532  10.462   0.031  1.00  0.00    -0.028 A
HETATM    4  C7  UNL     1      11.318  10.877   0.161  1.00  0.00    -0.021 A
HETATM    5  C8  UNL     1      12.335  11.140   1.011  1.00  0.00     0.041 A
HETATM    6  C15 UNL     1      11.632  10.252   2.230  1.00  0.00    -0.017 A
HETATM    7  C16 UNL     1      11.533  11.284   3.329  1.00  0.00     0.018 C
HETATM    8  C17 UNL     1      12.751   9.327   2.616  1.00  0.00     0.018 C
ENDROOT
BRANCH   1   9
HETATM    9  N2  UNL     1       9.324   9.940   2.928  1.00  0.00    -0.347 N
HETATM   10  C3  UNL     1       8.884   9.069   3.958  1.00  0.00     0.310 C
HETATM   11  O2  UNL     1       9.434   7.943   4.052  1.00  0.00    -0.262 OA
ATOM     12  H2  UNL     1       8.891  10.859   2.831  1.00  0.00     0.163 HD
BRANCH  10  13
HETATM   13  C2  UNL     1       7.837   9.414   4.898  1.00  0.00     0.312 C
HETATM   14  N1  UNL     1       6.460   9.359   4.571  1.00  0.00    -0.339 N
HETATM   15  C1  UNL     1       5.928  10.012   3.603  1.00  0.00     0.121 C
ATOM     16  H1  UNL     1       5.855   8.764   5.138  1.00  0.00     0.167 HD
HETATM   17  O1  UNL     1       8.129   9.787   6.081  1.00  0.00    -0.262 OA
ENDBRANCH  10  13
ENDBRANCH   1   9
BRANCH   5  18
HETATM   18  C9  UNL     1      13.614  10.540   0.689  1.00  0.00    -0.009 C
HETATM   19  C10 UNL     1      14.283  10.831  -0.439  1.00  0.00     0.061 C
BRANCH  19  20
HETATM   20  C11 UNL     1      15.535  10.178  -0.651  1.00  0.00    -0.068 C
HETATM   21  C12 UNL     1      16.598   9.635  -0.828  1.00  0.00     0.007 C
BRANCH  21  22
HETATM   22  C13 UNL     1      17.889   9.002  -1.035  1.00  0.00     0.339 C
HETATM   23  O3  UNL     1      18.322   8.244  -0.138  1.00  0.00    -0.249 OA
BRANCH  22  24
HETATM   24  O4  UNL     1      18.647   9.194  -2.158  1.00  0.00    -0.316 OA
HETATM   25  C14 UNL     1      18.106   9.405  -3.452  1.00  0.00     0.214 C
ENDBRANCH  22  24
ENDBRANCH  21  22
ENDBRANCH  19  20
ENDBRANCH   5  18
TORSDOF 6
ENDMDL