MODEL 2
REMARK VINA RESULT: -7.374817367      3.900      6.119
REMARK  2 active torsions:
REMARK  status: ('A' for Active; 'I' for Inactive)
REMARK       I    between atoms: N1_12  and  C9_13
REMARK    1  A    between atoms: C9_13  and  C10_15
REMARK    2  A    between atoms: C10_15  and  N2_16
REMARK       I    between atoms: N2_16  and  C11_18
ROOT
HETATM    1  C1  UNL     1      15.112   6.822   0.111  1.00  0.00     0.012 C
HETATM    2  C2  UNL     1      15.836   7.481   1.220  1.00  0.00     0.016 C
HETATM    3  C3  UNL     1      16.298   8.861   0.986  1.00  0.00    -0.022 C
HETATM    4  C4  UNL     1      17.473   8.822   0.009  1.00  0.00     0.017 C
HETATM    5  C5  UNL     1      16.844   9.234   2.366  1.00  0.00     0.013 C
HETATM    6  C6  UNL     1      15.990   8.448   3.354  1.00  0.00     0.028 C
HETATM    7  C7  UNL     1      15.055   7.599   2.501  1.00  0.00     0.084 C
HETATM    8  C8  UNL     1      14.790   6.288   3.164  1.00  0.00     0.034 C
HETATM    9  S1  UNL     1      13.593   8.545   2.221  1.00  0.00     0.243 S
HETATM   10  O1  UNL     1      13.218   9.273   3.499  1.00  0.00    -0.205 OA
HETATM   11  O2  UNL     1      12.472   7.658   1.771  1.00  0.00    -0.205 OA
HETATM   12  N1  UNL     1      13.984   9.757   1.064  1.00  0.00    -0.243 N
HETATM   13  C9  UNL     1      12.997  10.648   0.591  1.00  0.00     0.251 C
HETATM   14  O3  UNL     1      13.238  11.552  -0.255  1.00  0.00    -0.271 OA
HETATM   15  C12 UNL     1      15.312   9.864   0.582  1.00  0.00     0.154 C
ENDROOT
BRANCH  13  16
HETATM   16  C10 UNL     1      11.607  10.537   1.098  1.00  0.00     0.227 C
BRANCH  16  17
HETATM   17  N2  UNL     1      10.651  10.575  -0.011  1.00  0.00    -0.337 N
HETATM   18  C11 UNL     1       9.456   9.813   0.022  1.00  0.00     0.329 C
HETATM   19  N3  UNL     1       8.572   9.896  -1.087  1.00  0.00    -0.040 NA
HETATM   20  O4  UNL     1       9.164   9.068   1.008  1.00  0.00    -0.251 OA
ATOM     21  H2  UNL     1      10.849  11.161  -0.822  1.00  0.00     0.164 HD
ENDBRANCH  16  17
ENDBRANCH  13  16
TORSDOF 2
ENDMDL