MODEL 1
REMARK VINA RESULT: -7.741972195      0.000      0.000
REMARK  6 active torsions:
REMARK  status: ('A' for Active; 'I' for Inactive)
REMARK    1  A    between atoms: C3_3  and  C4_4
REMARK    2  A    between atoms: C5_5  and  C6_6
REMARK    3  A    between atoms: C6_6  and  N1_8
REMARK    4  A    between atoms: C6_6  and  C8_12
REMARK       I    between atoms: N3_17  and  C12_19
REMARK    5  A    between atoms: C12_19  and  C13_21
REMARK    6  A    between atoms: C13_21  and  N4_22
REMARK       I    between atoms: N4_22  and  C14_24
ROOT
HETATM    1  C1  UNL     1       3.400  10.117   5.537  1.00  0.00     0.113 C
HETATM    2  C2  UNL     1       4.820   9.937   5.209  1.00  0.00    -0.097 C
HETATM    3  C3  UNL     1       5.983   9.784   4.918  1.00  0.00    -0.015 C
ENDROOT
BRANCH   3   4
HETATM    4  C4  UNL     1       7.342   9.585   4.567  1.00  0.00    -0.013 C
HETATM    5  C5  UNL     1       8.497   9.426   4.249  1.00  0.00    -0.051 C
BRANCH   5   6
HETATM    6  C6  UNL     1       9.918   9.233   3.832  1.00  0.00     0.205 C
HETATM    7  C7  UNL     1      10.262   7.761   3.839  1.00  0.00     0.063 C
BRANCH   6   8
HETATM    8  N1  UNL     1      10.711   9.897   4.828  1.00  0.00    -0.058 N
ATOM      9  H13 UNL     1      10.909   9.318   5.645  1.00  0.00     0.276 HD
ATOM     10  H12 UNL     1      11.681  10.046   4.546  1.00  0.00     0.276 HD
ATOM     11  H11 UNL     1      10.214  10.758   5.050  1.00  0.00     0.276 HD
ENDBRANCH   6   8
BRANCH   6  12
HETATM   12  C8  UNL     1      10.049   9.893   2.520  1.00  0.00     0.168 C
HETATM   13  C9  UNL     1       9.077   9.463   1.483  1.00  0.00     0.170 C
HETATM   14  N2  UNL     1       9.642   9.921   0.243  1.00  0.00    -0.220 N
HETATM   15  C10 UNL     1       8.989  10.043  -1.051  1.00  0.00     0.168 C
HETATM   16  C11 UNL     1      11.030  10.251   0.522  1.00  0.00     0.680 C
HETATM   17  N3  UNL     1      11.776  10.862  -0.310  1.00  0.00    -0.158 N
HETATM   18  N5  UNL     1      11.315   9.755   1.842  1.00  0.00    -0.212 N
HETATM   19  C12 UNL     1      13.110  11.198  -0.081  1.00  0.00     0.253 C
ATOM     20  H3  UNL     1      11.368  11.124  -1.207  1.00  0.00     0.187 HD
HETATM   21  O1  UNL     1      14.010  10.356  -0.392  1.00  0.00    -0.271 OA
HETATM   22  C16 UNL     1      12.593   9.260   2.283  1.00  0.00     0.169 C
BRANCH  19  23
HETATM   23  C13 UNL     1      13.477  12.522   0.515  1.00  0.00     0.226 C
BRANCH  23  24
HETATM   24  N4  UNL     1      13.109  13.547  -0.411  1.00  0.00    -0.353 N
HETATM   25  C14 UNL     1      14.022  14.002  -1.397  1.00  0.00     0.213 C
HETATM   26  C15 UNL     1      13.660  15.069  -2.372  1.00  0.00     0.117 C
HETATM   27  O2  UNL     1      15.158  13.488  -1.440  1.00  0.00    -0.274 OA
ATOM     28  H4  UNL     1      12.176  13.957  -0.362  1.00  0.00     0.162 HD
ENDBRANCH  23  24
ENDBRANCH  19  23
ENDBRANCH   6  12
ENDBRANCH   5   6
ENDBRANCH   3   4
TORSDOF 6
ENDMDL