MODEL 3
REMARK VINA RESULT: -6.027253597      2.554      5.829
REMARK  3 active torsions:
REMARK  status: ('A' for Active; 'I' for Inactive)
REMARK    1  A    between atoms: C2_2  and  C3_8
REMARK    2  A    between atoms: N1_3  and  N2_5
REMARK    3  A    between atoms: C9_16  and  C10_17
ROOT
HETATM    1  C3  UNL     1      11.595   8.977   2.899  1.00  0.00     0.082 C
HETATM    2  C4  UNL     1      10.619  10.096   2.569  1.00  0.00     0.130 C
HETATM    3  C5  UNL     1      10.166  10.132   1.189  1.00  0.00     0.232 C
HETATM    4  O1  UNL     1      10.966  10.049   0.193  1.00  0.00    -0.272 OA
HETATM    5  N3  UNL     1       8.797  10.263   0.849  1.00  0.00    -0.325 N
HETATM    6  C6  UNL     1       8.384  10.491  -0.517  1.00  0.00     0.159 C
HETATM    7  C7  UNL     1       7.804  10.166   1.891  1.00  0.00     0.026 C
HETATM    8  C8  UNL     1       6.393  10.311   1.464  1.00  0.00     0.069 C
HETATM    9  C9  UNL     1       8.165   9.963   3.114  1.00  0.00     0.075 C
HETATM   10  C11 UNL     1       9.576   9.825   3.581  1.00  0.00     0.107 C
HETATM   11  C12 UNL     1       9.765  10.792   4.745  1.00  0.00     0.053 C
HETATM   12  O4  UNL     1       9.762   8.554   4.111  1.00  0.00    -0.363 OA
HETATM   13  C13 UNL     1      10.675   7.897   3.269  1.00  0.00     0.065 C
HETATM   14  C14 UNL     1      11.418   6.901   4.158  1.00  0.00     0.046 C
HETATM   15  C15 UNL     1       9.919   7.156   2.257  1.00  0.00     0.046 C
ENDROOT
BRANCH   1  16
HETATM   16  C2  UNL     1      12.692   8.788   2.009  1.00  0.00     0.007 C
HETATM   17  C1  UNL     1      13.629   9.937   1.811  1.00  0.00     0.065 C
HETATM   18  N1  UNL     1      12.939   7.717   1.379  1.00  0.00    -0.315 N
ATOM     19  H1  UNL     1      12.317   6.917   1.497  1.00  0.00     0.185 HD
BRANCH  18  20
HETATM   20  N2  UNL     1      14.054   7.600   0.518  1.00  0.00    -0.345 N
ATOM     21  H22 UNL     1      14.488   8.457   0.174  1.00  0.00     0.176 HD
ATOM     22  H21 UNL     1      14.424   6.692   0.239  1.00  0.00     0.176 HD
ENDBRANCH  18  20
ENDBRANCH   1  16
BRANCH   9  23
HETATM   23  C10 UNL     1       7.171   9.860   4.184  1.00  0.00     0.210 C
HETATM   24  O2  UNL     1       6.881   8.721   4.713  1.00  0.00    -0.644 OA
HETATM   25  O3  UNL     1       6.482  10.935   4.702  1.00  0.00    -0.644 OA
ENDBRANCH   9  23
TORSDOF 3
ENDMDL