MODEL 4
REMARK VINA RESULT: -5.241226115      5.589      7.470
REMARK  2 active torsions:
REMARK  status: ('A' for Active; 'I' for Inactive)
REMARK    1  A    between atoms: C3_3  and  C4_4
REMARK       I    between atoms: N1_9  and  C9_10
REMARK    2  A    between atoms: N5_22  and  C14_23
ROOT
HETATM    1  C1  UNL     1       5.258  10.219   3.706  1.00  0.00     0.017 C
HETATM    2  C2  UNL     1       6.084   9.814   2.931  1.00  0.00    -0.089 C
HETATM    3  C3  UNL     1       7.068   9.295   2.006  1.00  0.00     0.072 C
ENDROOT
BRANCH   3   4
HETATM    4  C4  UNL     1       8.251  10.110   1.810  1.00  0.00    -0.004 C
HETATM    5  C5  UNL     1       8.538  10.606   0.435  1.00  0.00    -0.003 C
HETATM    6  C6  UNL     1       7.476  11.610   0.014  1.00  0.00     0.021 C
HETATM    7  C7  UNL     1       8.786   9.630  -0.640  1.00  0.00     0.021 C
HETATM    8  C8  UNL     1       9.836  11.329   0.706  1.00  0.00     0.142 C
HETATM    9  N1  UNL     1      10.535  10.400   1.579  1.00  0.00    -0.316 N
HETATM   10  C9  UNL     1      11.949  10.319   1.483  1.00  0.00     0.186 C
HETATM   11  C10 UNL     1       9.563   9.755   2.409  1.00  0.00     0.224 C
HETATM   12  N2  UNL     1      12.492   9.930   0.390  1.00  0.00    -0.374 N
HETATM   13  N3  UNL     1      12.817  10.670   2.546  1.00  0.00    -0.064 NA
ATOM     14  H22 UNL     1      11.866   9.677  -0.375  1.00  0.00     0.158 HD
ATOM     15  H21 UNL     1      13.507   9.871   0.321  1.00  0.00     0.158 HD
HETATM   16  C11 UNL     1       9.730  10.427   3.765  1.00  0.00     0.282 C
HETATM   17  N5  UNL     1       9.780   8.410   2.789  1.00  0.00    -0.295 N
HETATM   18  O1  UNL     1      10.307  11.493   4.037  1.00  0.00    -0.268 OA
HETATM   19  N4  UNL     1       9.074   9.566   4.678  1.00  0.00    -0.270 N
HETATM   20  C12 UNL     1       8.486   9.879   5.969  1.00  0.00     0.164 C
HETATM   21  C13 UNL     1       9.098   8.281   4.073  1.00  0.00     0.329 C
HETATM   22  O2  UNL     1       8.612   7.239   4.578  1.00  0.00    -0.246 OA
BRANCH  17  23
HETATM   23  C14 UNL     1      10.443   7.250   2.241  1.00  0.00     0.126 C
HETATM   24  C15 UNL     1      11.822   7.005   2.772  1.00  0.00     0.027 C
ENDBRANCH  17  23
ENDBRANCH   3   4
TORSDOF 2
ENDMDL