MODEL 3
REMARK VINA RESULT: -8.881414068      2.109      7.450
REMARK  5 active torsions:
REMARK  status: ('A' for Active; 'I' for Inactive)
REMARK    1  A    between atoms: C5_5  and  C6_6
REMARK    2  A    between atoms: C6_6  and  C7_7
REMARK    3  A    between atoms: C15_16  and  O1_18
REMARK    4  A    between atoms: C17_21  and  O2_22
REMARK    5  A    between atoms: C19_24  and  O3_25
ROOT
HETATM    1  C1  UNL     1       4.360  10.068   5.274  1.00  0.00     0.018 C
HETATM    2  C2  UNL     1       5.158  10.100   4.369  1.00  0.00    -0.075 C
HETATM    3  C3  UNL     1       6.126  10.141   3.285  1.00  0.00     0.053 A
HETATM    4  C4  UNL     1       7.473   9.958   3.514  1.00  0.00     0.035 A
HETATM    5  C5  UNL     1       8.412   9.990   2.506  1.00  0.00    -0.030 A
HETATM    6  C16 UNL     1       7.979  10.217   1.203  1.00  0.00     0.051 A
HETATM    7  C17 UNL     1       6.645  10.399   0.972  1.00  0.00     0.103 A
HETATM    8  C19 UNL     1       5.714  10.365   1.985  1.00  0.00     0.117 A
ENDROOT
BRANCH   8   9
HETATM    9  O3  UNL     1       4.365  10.554   1.703  1.00  0.00    -0.357 OA
ATOM     10  H3  UNL     1       4.096  11.226   1.088  1.00  0.00     0.218 HD
ENDBRANCH   8   9
BRANCH   5  11
HETATM   11  C6  UNL     1       9.802   9.896   2.750  1.00  0.00     0.041 C
BRANCH  11  12
HETATM   12  C7  UNL     1      11.004   9.763   2.393  1.00  0.00     0.044 A
HETATM   13  C8  UNL     1      11.508  10.903   1.659  1.00  0.00     0.037 A
HETATM   14  C9  UNL     1      12.732  10.906   1.078  1.00  0.00    -0.048 A
HETATM   15  C10 UNL     1      13.227  12.095   0.329  1.00  0.00     0.049 C
HETATM   16  C11 UNL     1      13.526   9.805   1.178  1.00  0.00    -0.013 A
HETATM   17  C12 UNL     1      14.697   9.854   0.606  1.00  0.00     0.026 C
HETATM   18  C13 UNL     1      13.083   8.680   1.879  1.00  0.00     0.043 A
HETATM   19  C14 UNL     1      13.888   7.654   1.871  1.00  0.00     0.044 C
HETATM   20  N1  UNL     1      11.817   8.697   2.480  1.00  0.00    -0.281 N
HETATM   21  C15 UNL     1      11.567   7.742   3.265  1.00  0.00     0.236 C
HETATM   22  N2  UNL     1      10.572   7.436   4.194  1.00  0.00    -0.056 NA
BRANCH  21  23
HETATM   23  O1  UNL     1      12.504   6.647   3.257  1.00  0.00    -0.334 OA
ATOM     24  H1  UNL     1      12.261   5.882   3.766  1.00  0.00     0.220 HD
ENDBRANCH  21  23
ENDBRANCH  11  12
ENDBRANCH   5  11
BRANCH   7  25
HETATM   25  O2  UNL     1       6.225  10.628  -0.352  1.00  0.00    -0.353 OA
HETATM   26  C18 UNL     1       7.155  10.997  -1.349  1.00  0.00     0.210 C
ENDBRANCH   7  25
TORSDOF 5
ENDMDL