MODEL 3
REMARK VINA RESULT: -6.309731044      2.989      4.944
REMARK  3 active torsions:
REMARK  status: ('A' for Active; 'I' for Inactive)
REMARK    1  A    between atoms: N1_2  and  C2_4
REMARK       I    between atoms: N2_6  and  C4_8
REMARK       I    between atoms: C4_8  and  N3_10
REMARK    2  A    between atoms: C8_17  and  C9_18
REMARK    3  A    between atoms: C12_21  and  S1_22
ROOT
HETATM    1  C2  UNL     1      11.039   9.536   1.425  1.00  0.00     0.076 C
HETATM    2  C3  UNL     1      10.326  10.011   0.207  1.00  0.00     0.089 C
HETATM    3  N2  UNL     1      12.308   9.559   1.422  1.00  0.00    -0.299 N
ATOM      4  H2  UNL     1      12.762   9.906   0.577  1.00  0.00     0.171 HD
HETATM    5  C4  UNL     1      13.150   9.152   2.477  1.00  0.00     0.325 C
HETATM    6  O1  UNL     1      12.913   9.628   3.597  1.00  0.00    -0.247 OA
HETATM    7  N3  UNL     1      14.203   8.249   2.271  1.00  0.00    -0.308 N
HETATM    8  C5  UNL     1      14.711   7.567   1.130  1.00  0.00     0.129 A
HETATM    9  C6  UNL     1      15.708   6.781   1.966  1.00  0.00     0.143 A
HETATM   10  N4  UNL     1      16.970   7.245   1.463  1.00  0.00    -0.351 N
ATOM     11  H4  UNL     1      17.835   7.313   1.999  1.00  0.00     0.163 HD
HETATM   12  C7  UNL     1      16.814   7.592   0.104  1.00  0.00     0.224 C
HETATM   13  O2  UNL     1      17.640   7.478  -0.853  1.00  0.00    -0.273 OA
HETATM   14  C8  UNL     1      15.403   8.150   0.005  1.00  0.00     0.106 C
HETATM   15  C12 UNL     1      15.144   7.574   3.122  1.00  0.00     0.207 A
ENDROOT
BRANCH  15  16
HETATM   16  S1  UNL     1      16.282   8.438   4.087  1.00  0.00     0.036 S
HETATM   17  C13 UNL     1      17.363   7.439   5.044  1.00  0.00     0.129 C
HETATM   18  O3  UNL     1      17.139   9.603   3.290  1.00  0.00    -0.256 OA
ENDBRANCH  15  16
BRANCH  14  19
HETATM   19  C9  UNL     1      15.463   9.612  -0.242  1.00  0.00    -0.008 C
HETATM   20  C10 UNL     1      15.198   9.875  -1.766  1.00  0.00     0.010 C
HETATM   21  C11 UNL     1      16.794  10.266   0.007  1.00  0.00     0.010 C
ENDBRANCH  14  19
BRANCH   1  22
HETATM   22  N1  UNL     1      10.239   9.087   2.509  1.00  0.00    -0.384 N
HETATM   23  C1  UNL     1       9.363   9.944   3.266  1.00  0.00     0.147 C
ATOM     24  H1  UNL     1      10.287   8.102   2.767  1.00  0.00     0.160 HD
ENDBRANCH   1  22
TORSDOF 3
ENDMDL