MODEL 1
REMARK VINA RESULT: -7.276762641      0.000      0.000
REMARK  6 active torsions:
REMARK  status: ('A' for Active; 'I' for Inactive)
REMARK       I    between atoms: N1_2  and  C3_4
REMARK       I    between atoms: C3_4  and  N2_6
REMARK    1  A    between atoms: N2_6  and  C4_8
REMARK    2  A    between atoms: C8_13  and  C9_14
REMARK    3  A    between atoms: C9_14  and  N3_15
REMARK    4  A    between atoms: C9_14  and  C11_20
REMARK    5  A    between atoms: N3_15  and  C10_16
REMARK    6  A    between atoms: C10_16  and  N4_17
ROOT
HETATM    1  C4  UNL     1      12.209   8.276   3.071  1.00  0.00     0.086 C
HETATM    2  C5  UNL     1      11.364   7.593   2.047  1.00  0.00     0.028 C
HETATM    3  C6  UNL     1       9.931   7.455   2.395  1.00  0.00     0.034 C
HETATM    4  C7  UNL     1       9.558   7.917   3.766  1.00  0.00     0.126 C
HETATM    5  O2  UNL     1       8.183   8.031   3.820  1.00  0.00    -0.373 OA
HETATM    6  C8  UNL     1       7.853   9.305   4.185  1.00  0.00     0.192 C
HETATM    7  C12 UNL     1       9.056  10.195   3.851  1.00  0.00     0.046 C
HETATM    8  C13 UNL     1      10.166   9.207   4.180  1.00  0.00     0.019 C
HETATM    9  C14 UNL     1      11.456   9.541   3.495  1.00  0.00     0.032 C
ENDROOT
BRANCH   6  10
HETATM   10  C9  UNL     1       6.614   9.818   3.554  1.00  0.00     0.190 C
BRANCH  10  11
HETATM   11  N3  UNL     1       5.643  10.152   4.271  1.00  0.00    -0.341 NA
BRANCH  11  12
HETATM   12  C10 UNL     1       4.618  10.102   4.984  1.00  0.00     0.132 C
BRANCH  12  13
HETATM   13  N4  UNL     1       3.574   9.978   5.700  1.00  0.00    -0.340 N
ATOM     14  H42 UNL     1       4.365   9.660   6.262  1.00  0.00     0.168 HD
ATOM     15  H41 UNL     1       2.706   9.899   6.230  1.00  0.00     0.168 HD
ENDBRANCH  12  13
ENDBRANCH  11  12
ENDBRANCH  10  11
BRANCH  10  16
HETATM   16  C11 UNL     1       6.455   9.960   2.119  1.00  0.00     0.294 C
HETATM   17  N5  UNL     1       7.458  10.395   1.239  1.00  0.00    -0.055 NA
HETATM   18  O3  UNL     1       5.315   9.664   1.639  1.00  0.00    -0.268 OA
ENDBRANCH  10  16
ENDBRANCH   6  10
BRANCH   1  19
HETATM   19  N2  UNL     1      13.423   8.730   2.416  1.00  0.00    -0.338 N
HETATM   20  C3  UNL     1      14.678   8.077   2.674  1.00  0.00     0.317 C
HETATM   21  N1  UNL     1      15.872   8.487   2.059  1.00  0.00    -0.343 N
HETATM   22  O1  UNL     1      14.694   7.111   3.478  1.00  0.00    -0.247 OA
HETATM   23  C1  UNL     1      15.869   9.597   1.134  1.00  0.00     0.154 C
HETATM   24  C2  UNL     1      17.106   7.821   2.336  1.00  0.00     0.154 C
ATOM     25  H2  UNL     1      13.386   9.517   1.768  1.00  0.00     0.164 HD
ENDBRANCH   1  19
TORSDOF 6
ENDMDL