MODEL 4
REMARK VINA RESULT: -7.428953684      1.360      1.856
REMARK  8 active torsions:
REMARK  status: ('A' for Active; 'I' for Inactive)
REMARK    1  A    between atoms: C2_2  and  C3_3
REMARK    2  A    between atoms: C3_3  and  C4_4
REMARK    3  A    between atoms: C4_4  and  O1_5
REMARK    4  A    between atoms: O1_5  and  C5_6
REMARK    5  A    between atoms: C7_10  and  C8_11
REMARK    6  A    between atoms: C13_16  and  C14_17
REMARK    7  A    between atoms: C14_17  and  N2_18
REMARK    8  A    between atoms: N3_21  and  C17_22
ROOT
HETATM    1  C5  UNL     1     -75.559 -67.450  52.475  1.00  0.00     0.153 A
HETATM    2  N1  UNL     1     -74.668 -67.765  53.411  1.00  0.00    -0.346 N
ATOM      3  H1  UNL     1     -73.857 -68.320  53.136  1.00  0.00     0.167 HD
HETATM    4  C6  UNL     1     -74.773 -67.395  54.705  1.00  0.00     0.098 A
HETATM    5  C7  UNL     1     -75.847 -66.647  55.139  1.00  0.00    -0.034 A
HETATM    6  C12 UNL     1     -76.788 -66.313  54.164  1.00  0.00     0.026 A
HETATM    7  C13 UNL     1     -76.675 -66.691  52.854  1.00  0.00     0.026 A
ENDROOT
BRANCH   7   8
HETATM    8  C14 UNL     1     -77.652 -66.440  51.821  1.00  0.00     0.075 C
BRANCH   8   9
HETATM    9  N2  UNL     1     -77.774 -65.146  51.251  1.00  0.00    -0.288 NA
HETATM   10  C15 UNL     1     -79.181 -64.764  51.448  1.00  0.00     0.125 C
HETATM   11  C16 UNL     1     -79.984 -64.653  50.216  1.00  0.00     0.287 C
HETATM   12  N3  UNL     1     -79.389 -63.706  49.253  1.00  0.00     0.097 N
HETATM   13  C21 UNL     1     -77.971 -63.785  49.281  1.00  0.00     0.287 C
HETATM   14  C22 UNL     1     -77.556 -65.137  49.813  1.00  0.00     0.125 C
BRANCH  12  15
HETATM   15  C17 UNL     1     -80.018 -64.041  48.000  1.00  0.00     0.250 C
HETATM   16  C18 UNL     1     -80.712 -62.796  47.421  1.00  0.00     0.065 C
HETATM   17  C19 UNL     1     -80.816 -63.171  45.966  1.00  0.00     0.234 C
HETATM   18  N4  UNL     1     -79.808 -64.130  45.664  1.00  0.00    -0.073 N
HETATM   19  C20 UNL     1     -79.090 -64.404  46.896  1.00  0.00     0.268 C
ATOM     20  H42 UNL     1     -80.178 -64.972  45.222  1.00  0.00     0.277 HD
ATOM     21  H41 UNL     1     -79.197 -63.840  44.901  1.00  0.00     0.277 HD
ENDBRANCH  12  15
ENDBRANCH   8   9
ENDBRANCH   7   8
BRANCH   1  22
HETATM   22  O1  UNL     1     -75.436 -67.816  51.202  1.00  0.00    -0.335 OA
BRANCH  22  23
HETATM   23  C4  UNL     1     -74.437 -68.170  50.347  1.00  0.00     0.177 C
BRANCH  23  24
HETATM   24  C3  UNL     1     -73.821 -67.037  49.551  1.00  0.00     0.026 C
BRANCH  24  25
HETATM   25  C2  UNL     1     -72.433 -66.788  50.144  1.00  0.00    -0.002 C
HETATM   26  C1  UNL     1     -72.429 -65.585  51.063  1.00  0.00     0.005 C
ENDBRANCH  24  25
ENDBRANCH  23  24
ENDBRANCH  22  23
ENDBRANCH   1  22
BRANCH   5  27
HETATM   27  C8  UNL     1     -75.968 -66.257  56.557  1.00  0.00    -0.023 C
HETATM   28  C9  UNL     1     -75.113 -67.195  57.413  1.00  0.00     0.019 C
HETATM   29  C10 UNL     1     -75.377 -64.857  56.796  1.00  0.00     0.019 C
HETATM   30  C11 UNL     1     -77.391 -66.203  57.056  1.00  0.00     0.019 C
ENDBRANCH   5  27
TORSDOF 8
ENDMDL