MODEL 4
REMARK VINA RESULT: -6.633447705      1.627      2.293
REMARK  7 active torsions:
REMARK  status: ('A' for Active; 'I' for Inactive)
REMARK    1  A    between atoms: C2_2  and  S1_4
REMARK    2  A    between atoms: S1_4  and  C4_5
REMARK    3  A    between atoms: C4_5  and  C5_6
REMARK    4  A    between atoms: C5_6  and  C6_7
REMARK    5  A    between atoms: C12_14  and  C13_15
REMARK       I    between atoms: C13_15  and  N1_17
REMARK    6  A    between atoms: N1_17  and  S2_19
REMARK    7  A    between atoms: S2_19  and  C14_22
ROOT
HETATM    1  C5  UNL     1     -76.616 -66.667  51.483  1.00  0.00     0.008 C
HETATM    2  C8  UNL     1     -77.294 -67.961  51.637  1.00  0.00     0.014 C
HETATM    3  C9  UNL     1     -78.533 -68.092  50.767  1.00  0.00     0.001 C
HETATM    4  C10 UNL     1     -78.686 -67.082  49.695  1.00  0.00     0.001 C
HETATM    5  C11 UNL     1     -78.522 -65.700  50.181  1.00  0.00     0.015 C
HETATM    6  C12 UNL     1     -77.613 -65.517  51.381  1.00  0.00     0.090 C
ENDROOT
BRANCH   6   7
HETATM    7  C13 UNL     1     -78.506 -65.339  52.525  1.00  0.00     0.235 C
HETATM    8  O2  UNL     1     -79.741 -65.301  52.479  1.00  0.00    -0.272 OA
HETATM    9  N1  UNL     1     -77.910 -65.192  53.812  1.00  0.00    -0.254 N
ATOM     10  H1  UNL     1     -76.894 -65.218  53.898  1.00  0.00     0.181 HD
BRANCH   9  11
HETATM   11  S2  UNL     1     -78.865 -64.970  55.223  1.00  0.00     0.237 S
HETATM   12  O3  UNL     1     -79.532 -63.651  55.305  1.00  0.00    -0.205 OA
HETATM   13  O4  UNL     1     -79.937 -66.039  55.191  1.00  0.00    -0.205 OA
BRANCH  11  14
HETATM   14  C14 UNL     1     -77.948 -65.221  56.718  1.00  0.00     0.130 A
HETATM   15  C15 UNL     1     -76.480 -65.255  56.745  1.00  0.00     0.023 A
HETATM   16  C16 UNL     1     -77.203 -66.566  56.721  1.00  0.00     0.023 A
ENDBRANCH  11  14
ENDBRANCH   9  11
ENDBRANCH   6   7
BRANCH   1  17
HETATM   17  C4  UNL     1     -75.546 -66.319  52.439  1.00  0.00     0.087 C
BRANCH  17  18
HETATM   18  S1  UNL     1     -74.916 -67.278  53.713  1.00  0.00    -0.164 SA
BRANCH  18  19
HETATM   19  C2  UNL     1     -73.802 -68.605  53.509  1.00  0.00     0.039 C
HETATM   20  C1  UNL     1     -74.324 -69.902  53.016  1.00  0.00     0.021 C
HETATM   21  C3  UNL     1     -72.559 -68.203  52.688  1.00  0.00     0.021 C
ENDBRANCH  18  19
ENDBRANCH  17  18
ENDBRANCH   1  17
BRANCH   1  22
HETATM   22  C6  UNL     1     -75.923 -66.649  50.089  1.00  0.00     0.155 A
HETATM   23  C7  UNL     1     -74.920 -67.610  49.762  1.00  0.00     0.201 A
HETATM   24  O1  UNL     1     -74.466 -66.425  50.283  1.00  0.00    -0.380 OA
ENDBRANCH   1  22
TORSDOF 7
ENDMDL