MODEL 2
REMARK VINA RESULT: -6.113976491      0.234      1.308
REMARK  7 active torsions:
REMARK  status: ('A' for Active; 'I' for Inactive)
REMARK    1  A    between atoms: C2_2  and  C3_3
REMARK    2  A    between atoms: C3_3  and  N1_4
REMARK    3  A    between atoms: C4_6  and  C5_7
REMARK    4  A    between atoms: C6_8  and  N2_9
REMARK    5  A    between atoms: N2_9  and  C7_10
REMARK    6  A    between atoms: N2_9  and  C9_12
REMARK    7  A    between atoms: C11_14  and  C12_15
ROOT
HETATM    1  C5  UNL     1     -75.996 -66.966  52.772  1.00  0.00     0.087 C
HETATM    2  C6  UNL     1     -76.902 -66.341  51.801  1.00  0.00     0.047 C
HETATM    3  C11 UNL     1     -76.402 -65.827  50.722  1.00  0.00     0.090 C
HETATM    4  N3  UNL     1     -75.049 -65.840  50.480  1.00  0.00    -0.374 N
ATOM      5  H3  UNL     1     -74.601 -65.066  49.988  1.00  0.00     0.160 HD
HETATM    6  C13 UNL     1     -74.271 -66.970  50.934  1.00  0.00     0.061 C
HETATM    7  C14 UNL     1     -72.922 -66.336  51.345  1.00  0.00     0.034 C
HETATM    8  C15 UNL     1     -71.897 -67.363  51.704  1.00  0.00     0.002 C
HETATM    9  C16 UNL     1     -72.474 -68.349  52.676  1.00  0.00     0.001 C
HETATM   10  C17 UNL     1     -73.770 -67.761  53.196  1.00  0.00     0.013 C
HETATM   11  C18 UNL     1     -74.825 -67.686  52.104  1.00  0.00     0.009 C
HETATM   12  C19 UNL     1     -75.283 -69.101  51.892  1.00  0.00     0.124 C
HETATM   13  C20 UNL     1     -75.340 -69.544  50.490  1.00  0.00     0.259 C
HETATM   14  O2  UNL     1     -76.310 -70.238  50.104  1.00  0.00    -0.265 OA
HETATM   15  O3  UNL     1     -74.273 -69.125  49.740  1.00  0.00    -0.319 OA
HETATM   16  C21 UNL     1     -73.966 -67.775  49.719  1.00  0.00     0.210 C
ENDROOT
BRANCH   1  17
HETATM   17  C4  UNL     1     -75.549 -65.896  53.691  1.00  0.00     0.072 C
HETATM   18  N1  UNL     1     -75.926 -65.661  54.861  1.00  0.00    -0.378 N
ATOM     19  H1  UNL     1     -75.477 -64.862  55.309  1.00  0.00     0.164 HD
BRANCH  18  20
HETATM   20  C3  UNL     1     -76.877 -66.334  55.649  1.00  0.00     0.086 C
BRANCH  20  21
HETATM   21  C2  UNL     1     -76.240 -67.213  56.657  1.00  0.00     0.007 C
HETATM   22  C1  UNL     1     -75.088 -66.853  57.195  1.00  0.00     0.012 C
ENDBRANCH  20  21
ENDBRANCH  18  20
ENDBRANCH   1  17
BRANCH   2  23
HETATM   23  N2  UNL     1     -78.313 -66.315  52.102  1.00  0.00    -0.382 N
BRANCH  23  24
HETATM   24  C7  UNL     1     -79.164 -67.429  51.821  1.00  0.00     0.118 C
HETATM   25  C8  UNL     1     -78.819 -68.212  50.595  1.00  0.00     0.026 C
ENDBRANCH  23  24
BRANCH  23  26
HETATM   26  C9  UNL     1     -78.835 -65.124  52.706  1.00  0.00     0.118 C
HETATM   27  C10 UNL     1     -80.324 -64.949  52.570  1.00  0.00     0.026 C
ENDBRANCH  23  26
ENDBRANCH   2  23
BRANCH   3  28
HETATM   28  C12 UNL     1     -77.306 -65.205  49.756  1.00  0.00     0.289 C
HETATM   29  O1  UNL     1     -77.513 -63.967  49.795  1.00  0.00    -0.300 OA
ENDBRANCH   3  28
TORSDOF 7
ENDMDL