MODEL 3
REMARK VINA RESULT: -8.036159033      0.192      1.387
REMARK  7 active torsions:
REMARK  status: ('A' for Active; 'I' for Inactive)
REMARK    1  A    between atoms: C1_2  and  C2_3
REMARK       I    between atoms: C1_2  and  N3_18
REMARK    2  A    between atoms: C2_3  and  N1_4
REMARK    3  A    between atoms: N1_4  and  C3_5
REMARK    4  A    between atoms: N1_4  and  C7_12
REMARK    5  A    between atoms: C3_5  and  C4_6
REMARK    6  A    between atoms: C7_12  and  C8_13
REMARK    7  A    between atoms: N3_18  and  C12_20
ROOT
HETATM    1  C2  UNL     1     -79.644 -64.958  52.773  1.00  0.00     0.165 C
ENDROOT
BRANCH   1   2
HETATM    2  C1  UNL     1     -78.754 -65.253  53.886  1.00  0.00     0.257 C
HETATM    3  O1  UNL     1     -79.297 -65.288  55.057  1.00  0.00    -0.267 OA
HETATM    4  N3  UNL     1     -77.370 -65.507  53.876  1.00  0.00    -0.347 N
ATOM      5  H3  UNL     1     -76.886 -65.490  52.978  1.00  0.00     0.163 HD
BRANCH   4   6
HETATM    6  C12 UNL     1     -76.591 -65.792  55.062  1.00  0.00     0.034 C
HETATM    7  C13 UNL     1     -75.859 -64.611  55.603  1.00  0.00     0.035 C
HETATM    8  C14 UNL     1     -75.092 -65.032  56.838  1.00  0.00    -0.012 C
HETATM    9  C15 UNL     1     -74.038 -66.034  56.506  1.00  0.00     0.009 C
HETATM   10  C19 UNL     1     -76.048 -65.581  57.846  1.00  0.00     0.009 C
HETATM   11  C16 UNL     1     -74.691 -67.231  55.857  1.00  0.00    -0.012 C
HETATM   12  C17 UNL     1     -75.572 -67.875  56.918  1.00  0.00     0.009 C
HETATM   13  C21 UNL     1     -75.510 -66.812  54.677  1.00  0.00     0.035 C
HETATM   14  C18 UNL     1     -76.618 -66.864  57.286  1.00  0.00    -0.012 C
HETATM   15  C20 UNL     1     -77.441 -66.512  56.095  1.00  0.00     0.035 C
ENDBRANCH   4   6
ENDBRANCH   1   2
BRANCH   1  16
HETATM   16  N1  UNL     1     -79.416 -65.599  51.555  1.00  0.00    -0.355 N
BRANCH  16  17
HETATM   17  C3  UNL     1     -80.222 -65.090  50.492  1.00  0.00     0.212 C
BRANCH  17  18
HETATM   18  C4  UNL     1     -79.510 -64.137  49.591  1.00  0.00     0.141 A
HETATM   19  N2  UNL     1     -79.968 -63.568  48.466  1.00  0.00    -0.347 N
HETATM   20  C5  UNL     1     -78.998 -62.780  47.975  1.00  0.00     0.114 A
ATOM     21  H2  UNL     1     -80.891 -63.709  48.056  1.00  0.00     0.167 HD
HETATM   22  C6  UNL     1     -77.932 -62.905  48.864  1.00  0.00     0.161 A
HETATM   23  O2  UNL     1     -78.277 -63.718  49.807  1.00  0.00    -0.307 OA
ENDBRANCH  17  18
ENDBRANCH  16  17
BRANCH  16  24
HETATM   24  C7  UNL     1     -79.017 -66.929  51.489  1.00  0.00     0.095 C
BRANCH  24  25
HETATM   25  C8  UNL     1     -77.837 -67.217  50.585  1.00  0.00     0.160 C
HETATM   26  C9  UNL     1     -77.395 -68.657  50.684  1.00  0.00     0.039 C
HETATM   27  C10 UNL     1     -76.114 -68.518  51.497  1.00  0.00     0.029 C
HETATM   28  C11 UNL     1     -75.631 -67.174  50.960  1.00  0.00     0.168 C
HETATM   29  O3  UNL     1     -76.791 -66.421  51.006  1.00  0.00    -0.381 OA
ENDBRANCH  24  25
ENDBRANCH  16  24
ENDBRANCH   1  16
TORSDOF 7
ENDMDL