MODEL 2
REMARK VINA RESULT: -6.989057901      2.552      5.253
REMARK  7 active torsions:
REMARK  status: ('A' for Active; 'I' for Inactive)
REMARK    1  A    between atoms: C2_2  and  S1_4
REMARK    2  A    between atoms: S1_4  and  C4_5
REMARK       I    between atoms: N3_11  and  C6_13
REMARK    3  A    between atoms: C6_13  and  C7_15
REMARK    4  A    between atoms: C7_15  and  C8_16
REMARK    5  A    between atoms: C8_16  and  C9_17
REMARK    6  A    between atoms: N4_20  and  C12_21
REMARK    7  A    between atoms: C12_21  and  C13_22
ROOT
HETATM    1  C4  UNL     1     -79.211 -65.154  53.261  1.00  0.00     0.130 A
HETATM    2  N1  UNL     1     -77.919 -65.439  53.337  1.00  0.00    -0.286 N
ATOM      3  H1  UNL     1     -77.381 -65.580  52.483  1.00  0.00     0.188 HD
HETATM    4  N2  UNL     1     -77.349 -65.538  54.465  1.00  0.00    -0.278 N
ATOM      5  H2  UNL     1     -76.355 -65.756  54.526  1.00  0.00     0.189 HD
HETATM    6  C5  UNL     1     -78.073 -65.351  55.572  1.00  0.00     0.168 A
HETATM    7  N3  UNL     1     -77.686 -65.405  56.827  1.00  0.00    -0.306 N
ATOM      8  H3  UNL     1     -78.342 -65.241  57.590  1.00  0.00     0.171 HD
HETATM    9  C6  UNL     1     -76.321 -65.700  57.084  1.00  0.00     0.223 C
HETATM   10  O1  UNL     1     -75.538 -64.726  57.280  1.00  0.00    -0.273 OA
HETATM   11  S2  UNL     1     -79.622 -65.023  54.923  1.00  0.00    -0.026 SA
ENDROOT
BRANCH   9  12
HETATM   12  C7  UNL     1     -75.857 -67.119  57.116  1.00  0.00     0.103 C
BRANCH  12  13
HETATM   13  C8  UNL     1     -74.539 -67.170  56.376  1.00  0.00     0.014 C
BRANCH  13  14
HETATM   14  C9  UNL     1     -74.784 -67.320  54.903  1.00  0.00    -0.011 C
HETATM   15  C10 UNL     1     -74.113 -68.597  54.410  1.00  0.00     0.035 C
HETATM   16  C11 UNL     1     -74.486 -68.692  52.925  1.00  0.00     0.272 C
HETATM   17  N4  UNL     1     -74.112 -67.488  52.236  1.00  0.00     0.088 N
HETATM   18  C16 UNL     1     -73.368 -66.561  53.047  1.00  0.00     0.272 C
HETATM   19  C17 UNL     1     -74.224 -66.116  54.195  1.00  0.00     0.035 C
BRANCH  17  20
HETATM   20  C12 UNL     1     -73.298 -67.810  51.081  1.00  0.00     0.277 C
BRANCH  20  21
HETATM   21  C13 UNL     1     -72.115 -66.853  51.014  1.00  0.00     0.014 A
HETATM   22  C14 UNL     1     -71.746 -66.327  49.647  1.00  0.00     0.007 A
HETATM   23  C15 UNL     1     -70.864 -67.297  50.337  1.00  0.00     0.007 A
ENDBRANCH  20  21
ENDBRANCH  17  20
ENDBRANCH  13  14
ENDBRANCH  12  13
ENDBRANCH   9  12
BRANCH   1  24
HETATM   24  S1  UNL     1     -80.245 -64.959  51.798  1.00  0.00    -0.099 SA
BRANCH  24  25
HETATM   25  C2  UNL     1     -79.132 -64.900  50.375  1.00  0.00     0.046 C
HETATM   26  C1  UNL     1     -78.900 -66.252  49.772  1.00  0.00     0.021 C
HETATM   27  C3  UNL     1     -79.696 -63.912  49.378  1.00  0.00     0.021 C
ENDBRANCH  24  25
ENDBRANCH   1  24
TORSDOF 7
ENDMDL