MODEL 5
REMARK VINA RESULT: -8.941677927      0.235      1.431
REMARK  7 active torsions:
REMARK  status: ('A' for Active; 'I' for Inactive)
REMARK    1  A    between atoms: C1_2  and  C2_3
REMARK       I    between atoms: C1_2  and  N3_22
REMARK    2  A    between atoms: C2_3  and  C3_4
REMARK    3  A    between atoms: C3_4  and  C4_5
REMARK    4  A    between atoms: C5_10  and  C6_11
REMARK    5  A    between atoms: N3_22  and  C16_24
REMARK    6  A    between atoms: C16_24  and  C17_25
REMARK    7  A    between atoms: C17_25  and  N4_26
ROOT
HETATM    1  C4  UNL     1     -79.923 -64.817  53.938  1.00  0.00     0.140 A
HETATM    2  N1  UNL     1     -80.350 -64.409  55.117  1.00  0.00    -0.281 N
ATOM      3  H1  UNL     1     -81.243 -63.951  55.301  1.00  0.00     0.189 HD
HETATM    4  N2  UNL     1     -79.402 -64.700  56.045  1.00  0.00    -0.281 N
ATOM      5  H2  UNL     1     -79.459 -64.501  57.044  1.00  0.00     0.189 HD
HETATM    6  C5  UNL     1     -78.410 -65.278  55.435  1.00  0.00     0.149 A
HETATM    7  O2  UNL     1     -78.723 -65.349  54.153  1.00  0.00    -0.281 OA
ENDROOT
BRANCH   1   8
HETATM    8  C3  UNL     1     -80.466 -64.801  52.568  1.00  0.00     0.095 C
BRANCH   8   9
HETATM    9  C2  UNL     1     -79.528 -65.599  51.668  1.00  0.00     0.111 C
BRANCH   9  10
HETATM   10  C1  UNL     1     -79.058 -64.730  50.548  1.00  0.00     0.217 C
HETATM   11  O1  UNL     1     -77.790 -64.491  50.456  1.00  0.00    -0.274 OA
HETATM   12  N3  UNL     1     -79.944 -64.181  49.623  1.00  0.00    -0.359 N
ATOM     13  H3  UNL     1     -80.949 -64.355  49.648  1.00  0.00     0.162 HD
BRANCH  12  14
HETATM   14  C16 UNL     1     -79.300 -63.322  48.600  1.00  0.00     0.152 C
BRANCH  14  15
HETATM   15  C17 UNL     1     -80.339 -62.602  47.837  1.00  0.00     0.292 C
BRANCH  15  16
HETATM   16  N4  UNL     1     -80.717 -63.455  46.693  1.00  0.00     0.090 N
HETATM   17  C18 UNL     1     -81.798 -62.915  45.933  1.00  0.00     0.272 C
HETATM   18  C19 UNL     1     -81.263 -62.528  44.595  1.00  0.00     0.032 C
HETATM   19  C20 UNL     1     -79.749 -62.633  44.702  1.00  0.00     0.032 C
HETATM   20  C21 UNL     1     -79.570 -63.631  45.834  1.00  0.00     0.272 C
ENDBRANCH  15  16
ENDBRANCH  14  15
ENDBRANCH  12  14
ENDBRANCH   9  10
ENDBRANCH   8   9
ENDBRANCH   1   8
BRANCH   6  21
HETATM   21  C6  UNL     1     -77.081 -65.848  55.848  1.00  0.00     0.028 C
HETATM   22  C7  UNL     1     -77.198 -67.004  56.765  1.00  0.00     0.022 C
HETATM   23  C8  UNL     1     -75.793 -67.568  56.969  1.00  0.00    -0.013 C
HETATM   24  C9  UNL     1     -74.874 -66.530  57.562  1.00  0.00     0.009 C
HETATM   25  C13 UNL     1     -75.245 -68.082  55.662  1.00  0.00     0.009 C
HETATM   26  C10 UNL     1     -74.833 -65.334  56.651  1.00  0.00    -0.013 C
HETATM   27  C11 UNL     1     -74.286 -65.766  55.319  1.00  0.00     0.009 C
HETATM   28  C15 UNL     1     -76.241 -64.800  56.506  1.00  0.00     0.022 C
HETATM   29  C12 UNL     1     -75.101 -66.894  54.744  1.00  0.00    -0.013 C
HETATM   30  C14 UNL     1     -76.488 -66.359  54.536  1.00  0.00     0.022 C
ENDBRANCH   6  21
TORSDOF 7
ENDMDL