MODEL 2
REMARK VINA RESULT: -7.242372734      2.743      6.771
REMARK  8 active torsions:
REMARK  status: ('A' for Active; 'I' for Inactive)
REMARK    1  A    between atoms: C2_2  and  C3_3
REMARK    2  A    between atoms: C3_3  and  C4_4
REMARK    3  A    between atoms: C3_3  and  O4_25
REMARK    4  A    between atoms: C4_4  and  C5_5
REMARK    5  A    between atoms: C5_5  and  C6_7
REMARK    6  A    between atoms: C6_7  and  C7_8
REMARK    7  A    between atoms: C7_8  and  C8_9
REMARK    8  A    between atoms: O4_25  and  O5_26
ROOT
HETATM    1  C8  UNL     1     -75.128 -67.314  53.295  1.00  0.00    -0.031 A
HETATM    2  C9  UNL     1     -75.491 -65.896  53.360  1.00  0.00     0.019 C
HETATM    3  C10 UNL     1     -76.104 -65.403  54.683  1.00  0.00     0.044 C
HETATM    4  C11 UNL     1     -77.217 -66.275  54.987  1.00  0.00     0.279 C
HETATM    5  N1  UNL     1     -77.828 -66.314  56.240  1.00  0.00     0.091 N
HETATM    6  C12 UNL     1     -77.533 -65.300  57.182  1.00  0.00     0.279 C
HETATM    7  C13 UNL     1     -76.144 -65.773  57.650  1.00  0.00     0.047 C
HETATM    8  C14 UNL     1     -75.189 -64.869  56.998  1.00  0.00     0.041 C
HETATM    9  C15 UNL     1     -74.972 -65.170  55.567  1.00  0.00     0.131 C
HETATM   10  O2  UNL     1     -73.958 -66.122  55.513  1.00  0.00    -0.355 OA
HETATM   11  C16 UNL     1     -74.338 -67.404  55.714  1.00  0.00     0.265 C
HETATM   12  O3  UNL     1     -75.355 -67.743  56.428  1.00  0.00    -0.353 OA
HETATM   13  C17 UNL     1     -76.050 -67.210  57.360  1.00  0.00     0.158 C
HETATM   14  C18 UNL     1     -77.533 -67.521  57.032  1.00  0.00     0.304 C
HETATM   15  C19 UNL     1     -74.465 -68.022  54.310  1.00  0.00     0.050 A
HETATM   16  C20 UNL     1     -73.575 -67.515  53.275  1.00  0.00     0.020 A
ENDROOT
BRANCH   1  17
HETATM   17  C7  UNL     1     -75.822 -68.092  52.194  1.00  0.00     0.017 C
BRANCH  17  18
HETATM   18  C6  UNL     1     -76.646 -67.272  51.279  1.00  0.00     0.079 C
BRANCH  18  19
HETATM   19  C5  UNL     1     -77.954 -67.946  50.964  1.00  0.00     0.129 C
HETATM   20  O1  UNL     1     -77.978 -69.149  50.730  1.00  0.00    -0.298 OA
BRANCH  19  21
HETATM   21  C4  UNL     1     -79.220 -67.163  50.935  1.00  0.00     0.117 C
BRANCH  21  22
HETATM   22  C3  UNL     1     -79.199 -66.128  52.009  1.00  0.00     0.189 C
BRANCH  22  23
HETATM   23  C2  UNL     1     -79.699 -64.809  51.535  1.00  0.00    -0.002 C
HETATM   24  C1  UNL     1     -79.475 -64.450  50.279  1.00  0.00     0.009 C
ENDBRANCH  22  23
BRANCH  22  25
HETATM   25  O4  UNL     1     -79.893 -66.518  53.131  1.00  0.00    -0.234 OA
BRANCH  25  26
HETATM   26  O5  UNL     1     -80.923 -65.738  53.388  1.00  0.00    -0.250 OA
ATOM     27  H5  UNL     1     -81.496 -65.629  52.638  1.00  0.00     0.253 HD
ENDBRANCH  25  26
ENDBRANCH  22  25
ENDBRANCH  21  22
ENDBRANCH  19  21
ENDBRANCH  18  19
ENDBRANCH  17  18
ENDBRANCH   1  17
TORSDOF 8
ENDMDL