MODEL 1
REMARK VINA RESULT: -7.734270435      0.000      0.000
REMARK  8 active torsions:
REMARK  status: ('A' for Active; 'I' for Inactive)
REMARK    1  A    between atoms: C5_5  and  O1_6
REMARK    2  A    between atoms: C6_8  and  C7_9
REMARK    3  A    between atoms: C7_9  and  C8_10
REMARK    4  A    between atoms: C8_10  and  N1_11
REMARK    5  A    between atoms: C11_14  and  O2_15
REMARK    6  A    between atoms: O2_15  and  C12_16
REMARK    7  A    between atoms: C12_16  and  C13_17
REMARK    8  A    between atoms: C15_19  and  C16_20
ROOT
HETATM    1  N1  UNL     1     -76.642 -67.160  50.514  1.00  0.00    -0.374 N
HETATM    2  C9  UNL     1     -76.006 -68.264  51.084  1.00  0.00     0.065 C
HETATM    3  C10 UNL     1     -75.145 -67.921  52.296  1.00  0.00     0.076 C
HETATM    4  C11 UNL     1     -74.081 -66.899  52.025  1.00  0.00     0.127 C
HETATM    5  C20 UNL     1     -74.582 -65.980  50.936  1.00  0.00     0.052 C
HETATM    6  C21 UNL     1     -76.097 -65.877  50.961  1.00  0.00     0.129 C
ENDROOT
BRANCH   4   7
HETATM    7  O2  UNL     1     -73.846 -66.239  53.214  1.00  0.00    -0.385 OA
BRANCH   7   8
HETATM    8  C12 UNL     1     -74.053 -66.968  54.369  1.00  0.00     0.173 C
BRANCH   8   9
HETATM    9  C13 UNL     1     -74.120 -66.205  55.634  1.00  0.00     0.019 A
HETATM   10  C14 UNL     1     -74.786 -66.764  56.845  1.00  0.00     0.017 A
HETATM   11  C15 UNL     1     -75.230 -65.456  56.179  1.00  0.00     0.028 A
BRANCH  11  12
HETATM   12  C16 UNL     1     -76.638 -65.492  55.800  1.00  0.00    -0.023 A
HETATM   13  C17 UNL     1     -77.560 -65.122  56.756  1.00  0.00     0.097 A
HETATM   14  N2  UNL     1     -78.872 -65.114  56.471  1.00  0.00    -0.362 N
HETATM   15  C18 UNL     1     -79.320 -65.463  55.252  1.00  0.00     0.180 A
ATOM     16  H2  UNL     1     -79.540 -64.838  57.190  1.00  0.00     0.166 HD
HETATM   17  N3  UNL     1     -78.415 -65.821  54.330  1.00  0.00    -0.362 N
HETATM   18  C19 UNL     1     -77.094 -65.846  54.562  1.00  0.00     0.097 A
ATOM     19  H3  UNL     1     -78.748 -66.087  53.403  1.00  0.00     0.166 HD
ENDBRANCH  11  12
ENDBRANCH   8   9
ENDBRANCH   7   8
ENDBRANCH   4   7
BRANCH   1  20
HETATM   20  C8  UNL     1     -77.071 -67.159  49.184  1.00  0.00     0.063 C
BRANCH  20  21
HETATM   21  C7  UNL     1     -78.410 -66.686  48.811  1.00  0.00     0.052 C
BRANCH  21  22
HETATM   22  C6  UNL     1     -78.550 -65.321  48.273  1.00  0.00     0.023 C
HETATM   23  C2  UNL     1     -78.664 -64.209  49.261  1.00  0.00    -0.012 C
HETATM   24  C1  UNL     1     -79.711 -64.423  50.330  1.00  0.00     0.010 C
HETATM   25  C3  UNL     1     -79.150 -63.070  48.378  1.00  0.00     0.007 C
HETATM   26  C4  UNL     1     -80.124 -63.734  47.423  1.00  0.00     0.032 C
HETATM   27  C5  UNL     1     -79.846 -65.196  47.465  1.00  0.00     0.122 C
BRANCH  27  28
HETATM   28  O1  UNL     1     -80.858 -65.989  47.942  1.00  0.00    -0.395 OA
ATOM     29  H1  UNL     1     -80.924 -66.058  48.887  1.00  0.00     0.210 HD
ENDBRANCH  27  28
ENDBRANCH  21  22
ENDBRANCH  20  21
ENDBRANCH   1  20
TORSDOF 8
ENDMDL