MODEL 3
REMARK VINA RESULT: -6.800023540      2.176      4.652
REMARK  7 active torsions:
REMARK  status: ('A' for Active; 'I' for Inactive)
REMARK    1  A    between atoms: C3_3  and  C4_4
REMARK    2  A    between atoms: N2_13  and  C10_14
REMARK    3  A    between atoms: C10_14  and  C11_15
REMARK    4  A    between atoms: N3_18  and  C14_19
REMARK    5  A    between atoms: C14_19  and  C15_20
REMARK    6  A    between atoms: C15_20  and  N4_21
REMARK    7  A    between atoms: N4_21  and  C16_24
ROOT
HETATM    1  C1  UNL     1     -72.443 -65.504  51.113  1.00  0.00     0.013 C
HETATM    2  C2  UNL     1     -73.237 -66.391  51.132  1.00  0.00    -0.099 C
HETATM    3  C3  UNL     1     -74.218 -67.497  51.109  1.00  0.00     0.087 C
HETATM    4  C7  UNL     1     -73.522 -68.724  50.645  1.00  0.00     0.033 C
HETATM    5  C8  UNL     1     -72.454 -69.079  51.646  1.00  0.00     0.022 C
HETATM    6  C9  UNL     1     -73.130 -69.339  52.995  1.00  0.00     0.122 C
HETATM    7  N2  UNL     1     -73.883 -68.244  53.416  1.00  0.00    -0.391 N
HETATM    8  C21 UNL     1     -74.808 -67.720  52.462  1.00  0.00     0.151 C
ENDROOT
BRANCH   3   9
HETATM    9  C4  UNL     1     -75.293 -67.128  50.121  1.00  0.00     0.073 A
HETATM   10  N1  UNL     1     -76.249 -66.222  50.144  1.00  0.00    -0.362 N
HETATM   11  C5  UNL     1     -77.032 -66.076  49.130  1.00  0.00     0.096 A
ATOM     12  H1  UNL     1     -76.372 -65.634  50.968  1.00  0.00     0.165 HD
HETATM   13  C6  UNL     1     -76.845 -66.880  48.033  1.00  0.00     0.068 A
HETATM   14  S1  UNL     1     -75.521 -67.828  48.554  1.00  0.00    -0.086 SA
ENDBRANCH   3   9
BRANCH   7  15
HETATM   15  C10 UNL     1     -73.943 -67.810  54.735  1.00  0.00     0.063 C
BRANCH  15  16
HETATM   16  C11 UNL     1     -75.049 -66.954  55.207  1.00  0.00     0.027 C
HETATM   17  C12 UNL     1     -74.884 -65.492  55.184  1.00  0.00     0.040 C
HETATM   18  C13 UNL     1     -75.942 -64.866  56.119  1.00  0.00     0.273 C
HETATM   19  N3  UNL     1     -77.110 -65.644  56.109  1.00  0.00     0.090 N
HETATM   20  C19 UNL     1     -76.975 -66.979  56.674  1.00  0.00     0.273 C
HETATM   21  C20 UNL     1     -75.522 -67.357  56.596  1.00  0.00     0.040 C
BRANCH  19  22
HETATM   22  C14 UNL     1     -78.316 -65.010  56.577  1.00  0.00     0.299 C
BRANCH  22  23
HETATM   23  C15 UNL     1     -79.406 -65.175  55.525  1.00  0.00     0.262 C
BRANCH  23  24
HETATM   24  N4  UNL     1     -79.145 -64.244  54.422  1.00  0.00    -0.070 N
ATOM     25  H42 UNL     1     -79.770 -63.439  54.471  1.00  0.00     0.277 HD
ATOM     26  H41 UNL     1     -78.251 -63.770  54.551  1.00  0.00     0.277 HD
BRANCH  24  27
HETATM   27  C16 UNL     1     -79.212 -64.863  53.136  1.00  0.00     0.177 C
HETATM   28  C17 UNL     1     -80.701 -65.195  52.938  1.00  0.00     0.039 C
HETATM   29  C18 UNL     1     -78.393 -66.082  52.964  1.00  0.00     0.039 C
ENDBRANCH  24  27
ENDBRANCH  23  24
ENDBRANCH  22  23
ENDBRANCH  19  22
ENDBRANCH  15  16
ENDBRANCH   7  15
TORSDOF 7
ENDMDL