MODEL 2
REMARK VINA RESULT: -6.343753571      2.181      5.000
REMARK  8 active torsions:
REMARK  status: ('A' for Active; 'I' for Inactive)
REMARK    1  A    between atoms: C2_2  and  O1_3
REMARK    2  A    between atoms: O1_3  and  C3_4
REMARK    3  A    between atoms: C3_4  and  C4_6
REMARK    4  A    between atoms: C9_11  and  C10_12
REMARK    5  A    between atoms: C13_15  and  N1_16
REMARK    6  A    between atoms: N2_19  and  C15_20
REMARK    7  A    between atoms: C15_20  and  C16_21
REMARK    8  A    between atoms: C16_21  and  N3_22
ROOT
HETATM    1  C4  UNL     1     -77.392 -66.194  54.465  1.00  0.00     0.186 C
HETATM    2  C5  UNL     1     -76.187 -65.642  55.174  1.00  0.00     0.049 C
HETATM    3  C6  UNL     1     -75.074 -66.615  55.079  1.00  0.00    -0.014 C
HETATM    4  C7  UNL     1     -73.804 -65.882  55.427  1.00  0.00     0.020 C
HETATM    5  C8  UNL     1     -75.209 -67.754  56.078  1.00  0.00     0.020 C
HETATM    6  C9  UNL     1     -74.950 -67.322  53.739  1.00  0.00    -0.005 C
HETATM    7  C13 UNL     1     -75.870 -67.144  52.795  1.00  0.00     0.106 C
HETATM    8  N2  UNL     1     -77.012 -66.287  53.072  1.00  0.00    -0.351 N
ENDROOT
BRANCH   8   9
HETATM    9  C15 UNL     1     -77.594 -65.613  51.966  1.00  0.00     0.145 C
BRANCH   9  10
HETATM   10  C16 UNL     1     -78.820 -66.241  51.376  1.00  0.00     0.146 C
BRANCH  10  11
HETATM   11  N3  UNL     1     -79.183 -65.722  50.113  1.00  0.00    -0.372 N
HETATM   12  C17 UNL     1     -78.777 -66.399  48.968  1.00  0.00     0.063 C
HETATM   13  C18 UNL     1     -79.450 -65.822  47.744  1.00  0.00     0.045 C
HETATM   14  C19 UNL     1     -79.035 -64.359  47.695  1.00  0.00     0.010 C
HETATM   15  C20 UNL     1     -79.608 -63.638  48.888  1.00  0.00     0.045 C
HETATM   16  C21 UNL     1     -79.875 -64.524  50.056  1.00  0.00     0.063 C
ENDBRANCH  10  11
ENDBRANCH   9  10
ENDBRANCH   8   9
BRANCH   1  17
HETATM   17  C3  UNL     1     -78.582 -65.482  54.805  1.00  0.00     0.281 C
HETATM   18  O2  UNL     1     -79.031 -64.387  54.402  1.00  0.00    -0.263 OA
BRANCH  17  19
HETATM   19  O1  UNL     1     -79.420 -66.096  55.766  1.00  0.00    -0.320 OA
BRANCH  19  20
HETATM   20  C2  UNL     1     -78.949 -66.575  56.982  1.00  0.00     0.174 C
HETATM   21  C1  UNL     1     -78.405 -65.540  57.913  1.00  0.00     0.034 C
ENDBRANCH  19  20
ENDBRANCH  17  19
ENDBRANCH   1  17
BRANCH   7  22
HETATM   22  N1  UNL     1     -75.742 -67.797  51.548  1.00  0.00    -0.380 N
HETATM   23  C14 UNL     1     -76.524 -68.972  51.174  1.00  0.00     0.147 C
ATOM     24  H1  UNL     1     -75.069 -67.430  50.876  1.00  0.00     0.160 HD
ENDBRANCH   7  22
BRANCH   6  25
HETATM   25  C10 UNL     1     -73.845 -68.303  53.606  1.00  0.00    -0.077 C
HETATM   26  C11 UNL     1     -74.197 -69.748  53.686  1.00  0.00     0.043 C
HETATM   27  C12 UNL     1     -72.741 -67.934  52.680  1.00  0.00     0.043 C
ENDBRANCH   6  25
TORSDOF 8
ENDMDL