MODEL 2
REMARK VINA RESULT: -8.757793074     10.634     12.670
REMARK  4 active torsions:
REMARK  status: ('A' for Active; 'I' for Inactive)
REMARK    1  A    between atoms: C5_6  and  C6_7
REMARK       I    between atoms: C6_7  and  N2_9
REMARK    2  A    between atoms: N2_9  and  C7_11
REMARK    3  A    between atoms: N3_24  and  C20_25
REMARK    4  A    between atoms: C20_25  and  C21_26
ROOT
HETATM    1  C1  UNL     1      -3.250  -1.409  20.858  1.00  0.00     0.070 C
HETATM    2  C2  UNL     1      -3.328   0.059  21.163  1.00  0.00     0.029 A
HETATM    3  C3  UNL     1      -3.137   0.590  22.421  1.00  0.00     0.084 A
HETATM    4  C4  UNL     1      -2.865  -0.188  23.625  1.00  0.00     0.102 C
HETATM    5  N1  UNL     1      -2.667  -0.823  24.567  1.00  0.00    -0.191 NA
HETATM    6  C5  UNL     1      -3.287   1.950  22.292  1.00  0.00     0.076 A
HETATM    7  C18 UNL     1      -3.570   2.229  20.938  1.00  0.00     0.025 A
HETATM    8  C19 UNL     1      -3.776   3.591  20.393  1.00  0.00     0.069 C
HETATM    9  N3  UNL     1      -3.585   1.072  20.305  1.00  0.00    -0.352 N
ENDROOT
BRANCH   6  10
HETATM   10  C6  UNL     1      -3.151   2.982  23.311  1.00  0.00     0.255 C
HETATM   11  O1  UNL     1      -3.923   2.878  24.327  1.00  0.00    -0.268 OA
HETATM   12  N2  UNL     1      -2.282   4.068  23.307  1.00  0.00    -0.347 N
ATOM     13  H2  UNL     1      -1.656   4.182  22.510  1.00  0.00     0.163 HD
BRANCH  12  14
HETATM   14  C7  UNL     1      -2.218   5.055  24.384  1.00  0.00     0.037 C
HETATM   15  C8  UNL     1      -3.656   5.358  24.832  1.00  0.00     0.036 C
HETATM   16  C9  UNL     1      -3.660   6.307  25.977  1.00  0.00    -0.012 C
HETATM   17  C10 UNL     1      -2.938   5.631  27.150  1.00  0.00     0.009 C
HETATM   18  C14 UNL     1      -2.938   7.597  25.723  1.00  0.00     0.010 C
HETATM   19  C11 UNL     1      -1.520   5.388  26.732  1.00  0.00    -0.012 C
HETATM   20  C12 UNL     1      -0.789   6.612  26.285  1.00  0.00     0.010 C
HETATM   21  C17 UNL     1      -1.552   4.420  25.559  1.00  0.00     0.036 C
HETATM   22  C13 UNL     1      -1.589   7.283  25.163  1.00  0.00    -0.008 C
HETATM   23  C15 UNL     1      -1.625   6.356  23.971  1.00  0.00     0.014 C
HETATM   24  C16 UNL     1      -2.506   7.009  22.927  1.00  0.00     0.012 C
ENDBRANCH  12  14
ENDBRANCH   6  10
BRANCH   9  25
HETATM   25  C20 UNL     1      -3.804   0.802  18.899  1.00  0.00     0.133 C
BRANCH  25  26
HETATM   26  C21 UNL     1      -5.088   1.295  18.342  1.00  0.00    -0.004 C
HETATM   27  C22 UNL     1      -6.285   0.683  19.091  1.00  0.00     0.011 C
HETATM   28  C23 UNL     1      -5.250   0.859  16.912  1.00  0.00     0.011 C
ENDBRANCH  25  26
ENDBRANCH   9  25
TORSDOF 4
ENDMDL