MODEL 2
REMARK VINA RESULT: -9.138653794      0.656      1.435
REMARK  4 active torsions:
REMARK  status: ('A' for Active; 'I' for Inactive)
REMARK    1  A    between atoms: C7_7  and  C8_8
REMARK    2  A    between atoms: C8_8  and  C9_9
REMARK    3  A    between atoms: C9_9  and  C10_10
REMARK    4  A    between atoms: C20_24  and  C21_25
ROOT
HETATM    1  C10 UNL     1      -3.120   0.735  23.017  1.00  0.00     0.065 C
HETATM    2  C11 UNL     1      -2.546  -0.100  21.977  1.00  0.00    -0.027 A
HETATM    3  C12 UNL     1      -2.995  -0.090  20.684  1.00  0.00     0.097 A
HETATM    4  N1  UNL     1      -2.447  -0.857  19.727  1.00  0.00    -0.356 N
ATOM      5  H1  UNL     1      -2.801  -0.829  18.771  1.00  0.00     0.166 HD
HETATM    6  C13 UNL     1      -1.425  -1.661  20.054  1.00  0.00     0.103 A
HETATM    7 CL1  UNL     1      -0.663  -2.691  18.837  1.00  0.00    -0.065 Cl
HETATM    8  C14 UNL     1      -0.922  -1.726  21.329  1.00  0.00     0.052 A
HETATM    9  C15 UNL     1      -1.496  -0.927  22.316  1.00  0.00    -0.013 A
HETATM   10  C16 UNL     1      -0.997  -1.045  23.667  1.00  0.00     0.264 A
HETATM   11  C17 UNL     1       0.277  -0.264  23.905  1.00  0.00     0.059 A
HETATM   12  C18 UNL     1       0.766  -0.193  25.314  1.00  0.00     0.045 A
HETATM   13  C19 UNL     1      -0.545   0.461  24.982  1.00  0.00     0.232 A
HETATM   14  N2  UNL     1      -1.657  -0.359  24.707  1.00  0.00     0.118 N
HETATM   15  C20 UNL     1      -2.922   0.207  24.413  1.00  0.00     0.332 C
ENDROOT
BRANCH   1  16
HETATM   16  C9  UNL     1      -2.768   2.190  22.976  1.00  0.00     0.012 C
BRANCH  16  17
HETATM   17  C8  UNL     1      -3.054   2.944  24.241  1.00  0.00     0.006 C
BRANCH  17  18
HETATM   18  C7  UNL     1      -3.253   4.449  23.917  1.00  0.00    -0.011 C
HETATM   19  C2  UNL     1      -2.277   5.273  24.646  1.00  0.00    -0.015 C
HETATM   20  C1  UNL     1      -2.868   5.955  25.880  1.00  0.00     0.010 C
HETATM   21  C3  UNL     1      -1.594   6.344  23.848  1.00  0.00     0.004 C
HETATM   22  C4  UNL     1      -2.624   6.890  22.851  1.00  0.00     0.000 C
HETATM   23  C5  UNL     1      -2.744   5.783  21.823  1.00  0.00     0.000 C
HETATM   24  C6  UNL     1      -3.374   4.605  22.461  1.00  0.00     0.005 C
ENDBRANCH  17  18
ENDBRANCH  16  17
ENDBRANCH   1  16
BRANCH  15  25
HETATM   25  C21 UNL     1      -3.984  -0.782  24.737  1.00  0.00     0.208 C
HETATM   26  O1  UNL     1      -5.104  -0.673  24.137  1.00  0.00    -0.646 OA
HETATM   27  O2  UNL     1      -3.796  -1.799  25.656  1.00  0.00    -0.646 OA
ENDBRANCH  15  25
TORSDOF 4
ENDMDL