MODEL 2
REMARK VINA RESULT: -7.578916624      3.296      5.748
REMARK  5 active torsions:
REMARK  status: ('A' for Active; 'I' for Inactive)
REMARK    1  A    between atoms: C2_2  and  C4_4
REMARK    2  A    between atoms: C5_5  and  C6_6
REMARK    3  A    between atoms: C6_6  and  C7_7
REMARK    4  A    between atoms: C12_15  and  C13_16
REMARK    5  A    between atoms: C13_16  and  O3_17
ROOT
HETATM    1  C7  UNL     1      -3.184   0.927  21.866  1.00  0.00     0.073 C
HETATM    2  C8  UNL     1      -2.225  -0.058  21.359  1.00  0.00     0.151 C
HETATM    3  O1  UNL     1      -1.606  -0.208  20.324  1.00  0.00    -0.296 OA
HETATM    4  C9  UNL     1      -2.079  -1.049  22.476  1.00  0.00     0.160 C
HETATM    5 CL1  UNL     1      -3.256  -2.319  22.487  1.00  0.00    -0.116 Cl
HETATM    6  C10 UNL     1      -2.093  -0.071  23.627  1.00  0.00     0.057 C
HETATM    7  C11 UNL     1      -1.888  -0.733  24.895  1.00  0.00     0.166 A
HETATM    8  O2  UNL     1      -2.172  -0.196  26.141  1.00  0.00    -0.366 OA
HETATM    9  C12 UNL     1      -0.861  -0.439  25.833  1.00  0.00     0.109 A
HETATM   10  C14 UNL     1       0.048   0.706  25.866  1.00  0.00     0.043 C
HETATM   11  C15 UNL     1      -0.229   1.910  26.679  1.00  0.00     0.003 C
HETATM   12  C16 UNL     1      -0.337   3.262  25.863  1.00  0.00     0.000 C
HETATM   13  C17 UNL     1      -1.447   2.934  25.022  1.00  0.00     0.004 C
HETATM   14  C18 UNL     1      -2.167   3.219  23.832  1.00  0.00     0.034 C
HETATM   15  C19 UNL     1      -3.311   2.132  23.932  1.00  0.00    -0.080 C
HETATM   16  C20 UNL     1      -4.177   2.574  24.705  1.00  0.00     0.015 C
HETATM   17  C21 UNL     1      -3.298   0.822  23.350  1.00  0.00    -0.003 C
HETATM   18  C22 UNL     1      -4.558   0.098  23.716  1.00  0.00     0.021 C
ENDROOT
BRANCH   1  19
HETATM   19  C6  UNL     1      -4.404   0.909  21.013  1.00  0.00     0.040 C
BRANCH  19  20
HETATM   20  C5  UNL     1      -4.333   2.103  20.100  1.00  0.00    -0.025 C
HETATM   21  C4  UNL     1      -4.962   2.109  18.910  1.00  0.00     0.002 C
BRANCH  21  22
HETATM   22  C2  UNL     1      -5.690   1.018  18.478  1.00  0.00    -0.072 C
HETATM   23  C1  UNL     1      -6.352   0.026  18.083  1.00  0.00     0.018 C
HETATM   24  C3  UNL     1      -5.491   1.529  16.717  1.00  0.00     0.047 C
ENDBRANCH  21  22
ENDBRANCH  19  20
ENDBRANCH   1  19
BRANCH   9  25
HETATM   25  C13 UNL     1      -0.396  -1.634  26.727  1.00  0.00     0.204 C
BRANCH  25  26
HETATM   26  O3  UNL     1      -0.788  -1.316  28.050  1.00  0.00    -0.398 OA
ATOM     27  H3  UNL     1      -1.652  -1.694  28.169  1.00  0.00     0.209 HD
ENDBRANCH  25  26
ENDBRANCH   9  25
TORSDOF 5
ENDMDL