MODEL 5
REMARK VINA RESULT: -7.728314773      1.355      1.808
REMARK  5 active torsions:
REMARK  status: ('A' for Active; 'I' for Inactive)
REMARK    1  A    between atoms: C5_5  and  C6_6
REMARK       I    between atoms: C6_6  and  N1_8
REMARK    2  A    between atoms: C7_10  and  C8_11
REMARK    3  A    between atoms: C7_10  and  C13_19
REMARK    4  A    between atoms: C8_11  and  N2_12
REMARK    5  A    between atoms: N2_12  and  C9_15
ROOT
HETATM    1  C6  UNL     1      -3.639   0.885  22.926  1.00  0.00     0.226 C
HETATM    2  O1  UNL     1      -4.139  -0.242  23.160  1.00  0.00    -0.273 OA
HETATM    3  N1  UNL     1      -3.287   1.716  23.971  1.00  0.00    -0.328 N
ATOM      4  H1  UNL     1      -3.840   2.572  23.990  1.00  0.00     0.168 HD
HETATM    5  C7  UNL     1      -2.458   1.670  24.893  1.00  0.00     0.045 C
ENDROOT
BRANCH   5   6
HETATM    6  C8  UNL     1      -1.483   0.625  25.217  1.00  0.00     0.290 C
BRANCH   6   7
HETATM    7  N2  UNL     1      -0.142   0.829  24.775  1.00  0.00    -0.062 N
ATOM      8  H22 UNL     1      -0.043   1.605  24.119  1.00  0.00     0.278 HD
ATOM      9  H21 UNL     1       0.473   1.201  25.499  1.00  0.00     0.278 HD
BRANCH   7  10
HETATM   10  C9  UNL     1       0.305  -0.463  24.230  1.00  0.00     0.115 C
HETATM   11  C10 UNL     1      -0.500  -0.873  23.024  1.00  0.00     0.045 C
HETATM   12  C11 UNL     1       0.165  -1.548  25.282  1.00  0.00     0.045 C
HETATM   13  C12 UNL     1       1.770  -0.365  23.832  1.00  0.00     0.045 C
ENDBRANCH   7  10
ENDBRANCH   6   7
ENDBRANCH   5   6
BRANCH   5  14
HETATM   14  C13 UNL     1      -2.446   2.849  25.801  1.00  0.00    -0.011 C
HETATM   15  C14 UNL     1      -2.296   4.075  25.298  1.00  0.00     0.053 C
HETATM   16 CL1  UNL     1      -2.111   4.336  23.582  1.00  0.00    -0.085 Cl
HETATM   17  C15 UNL     1      -2.296   5.187  26.280  1.00  0.00     0.092 C
HETATM   18  C16 UNL     1      -3.735   5.507  26.616  1.00  0.00     0.052 C
HETATM   19  C17 UNL     1      -1.710   6.444  25.622  1.00  0.00     0.052 C
HETATM   20  O2  UNL     1      -1.534   4.907  27.381  1.00  0.00    -0.375 OA
HETATM   21  C18 UNL     1      -1.822   3.754  28.044  1.00  0.00     0.174 C
HETATM   22  C19 UNL     1      -2.608   2.729  27.269  1.00  0.00     0.068 C
ENDBRANCH   5  14
BRANCH   1  23
HETATM   23  C5  UNL     1      -3.457   1.262  21.479  1.00  0.00     0.078 C
HETATM   24  C4  UNL     1      -4.330   0.405  20.650  1.00  0.00     0.014 C
HETATM   25  C3  UNL     1      -5.309   1.178  19.816  1.00  0.00     0.005 C
HETATM   26  C2  UNL     1      -4.541   2.228  19.051  1.00  0.00    -0.019 C
HETATM   27  C1  UNL     1      -3.506   1.502  18.216  1.00  0.00     0.010 C
HETATM   28  C21 UNL     1      -3.864   3.221  19.949  1.00  0.00     0.005 C
HETATM   29  C20 UNL     1      -3.638   2.732  21.345  1.00  0.00     0.014 C
ENDBRANCH   1  23
TORSDOF 5
ENDMDL