MODEL 3
REMARK VINA RESULT: -6.662976829      2.485      4.988
REMARK  6 active torsions:
REMARK  status: ('A' for Active; 'I' for Inactive)
REMARK    1  A    between atoms: C10_10  and  C12_12
REMARK    2  A    between atoms: C12_12  and  O2_14
REMARK    3  A    between atoms: O2_14  and  C13_15
REMARK    4  A    between atoms: C15_17  and  O3_18
REMARK    5  A    between atoms: C17_21  and  C19_23
REMARK    6  A    between atoms: C20_24  and  C21_25
ROOT
HETATM    1  C1  UNL     1      -3.394   3.094  19.863  1.00  0.00     0.015 C
HETATM    2  C2  UNL     1      -4.100   2.092  20.344  1.00  0.00    -0.077 C
HETATM    3  C3  UNL     1      -3.983   2.080  21.851  1.00  0.00     0.035 C
HETATM    4  C4  UNL     1      -2.717   1.516  22.343  1.00  0.00     0.019 C
HETATM    5  C5  UNL     1      -2.499   0.065  22.361  1.00  0.00    -0.001 C
HETATM    6  C6  UNL     1      -0.968  -0.142  22.562  1.00  0.00     0.021 C
HETATM    7  C7  UNL     1      -2.803  -0.606  21.071  1.00  0.00    -0.046 C
HETATM    8  C8  UNL     1      -3.124  -1.890  21.362  1.00  0.00    -0.019 C
HETATM    9  C9  UNL     1      -3.047  -2.129  22.834  1.00  0.00     0.048 C
HETATM   10  C10 UNL     1      -3.158  -0.732  23.428  1.00  0.00     0.059 C
HETATM   11  C11 UNL     1      -4.640  -0.490  23.618  1.00  0.00     0.027 C
HETATM   12  C15 UNL     1      -2.815  -0.295  19.654  1.00  0.00     0.149 C
HETATM   13  C16 UNL     1      -4.125  -0.012  19.005  1.00  0.00     0.054 C
HETATM   14  C17 UNL     1      -4.839   1.229  19.367  1.00  0.00    -0.001 C
HETATM   15  C18 UNL     1      -6.165   0.766  20.029  1.00  0.00     0.024 C
ENDROOT
BRANCH  10  16
HETATM   16  C12 UNL     1      -2.584  -0.612  24.781  1.00  0.00     0.268 C
HETATM   17  O1  UNL     1      -1.903  -1.563  25.230  1.00  0.00    -0.264 OA
BRANCH  16  18
HETATM   18  O2  UNL     1      -2.767   0.515  25.575  1.00  0.00    -0.321 OA
BRANCH  18  19
HETATM   19  C13 UNL     1      -1.647   0.998  26.290  1.00  0.00     0.174 C
HETATM   20  C14 UNL     1      -0.925   2.075  25.556  1.00  0.00     0.034 C
ENDBRANCH  18  19
ENDBRANCH  16  18
ENDBRANCH  10  16
BRANCH  12  21
HETATM   21  O3  UNL     1      -1.887   0.634  19.214  1.00  0.00    -0.391 OA
ATOM     22  H3  UNL     1      -1.945   0.895  18.303  1.00  0.00     0.210 HD
ENDBRANCH  12  21
BRANCH  14  23
HETATM   23  C19 UNL     1      -5.292   2.072  18.230  1.00  0.00    -0.013 C
HETATM   24  C20 UNL     1      -5.368   1.755  16.975  1.00  0.00    -0.002 C
BRANCH  24  25
HETATM   25  C21 UNL     1      -5.045   0.517  16.318  1.00  0.00     0.012 C
HETATM   26  C22 UNL     1      -4.962   0.411  15.004  1.00  0.00     0.084 C
HETATM   27 CL1  UNL     1      -4.574  -1.071  14.186  1.00  0.00    -0.097 Cl
ENDBRANCH  24  25
ENDBRANCH  14  23
TORSDOF 6
ENDMDL