MODEL 5
REMARK VINA RESULT: -6.308772931      3.730      6.091
REMARK  4 active torsions:
REMARK  status: ('A' for Active; 'I' for Inactive)
REMARK    1  A    between atoms: O1_2  and  C2_3
REMARK    2  A    between atoms: C5_6  and  C7_9
REMARK    3  A    between atoms: C7_9  and  C8_10
REMARK    4  A    between atoms: C19_22  and  C21_24
ROOT
HETATM    1  C2  UNL     1      -0.390   4.161  26.431  1.00  0.00     0.144 C
HETATM    2  C3  UNL     1      -1.377   5.050  25.702  1.00  0.00     0.023 C
HETATM    3  C4  UNL     1      -0.612   6.299  25.351  1.00  0.00     0.032 C
HETATM    4  C5  UNL     1      -1.419   7.220  24.473  1.00  0.00     0.051 C
HETATM    5  C6  UNL     1      -0.494   8.319  24.096  1.00  0.00     0.069 C
HETATM    6  N1  UNL     1       0.220   9.173  23.788  1.00  0.00    -0.196 NA
HETATM    7  C9  UNL     1      -1.794   6.508  23.243  1.00  0.00     0.029 C
HETATM    8  C10 UNL     1      -2.346   5.129  23.372  1.00  0.00    -0.012 C
HETATM    9  C11 UNL     1      -3.848   5.230  23.233  1.00  0.00     0.010 C
HETATM   10  C12 UNL     1      -1.837   4.299  24.468  1.00  0.00     0.004 C
HETATM   11  C13 UNL     1      -2.654   3.137  24.885  1.00  0.00    -0.035 C
HETATM   12  C14 UNL     1      -3.954   3.420  25.543  1.00  0.00     0.016 C
HETATM   13  C15 UNL     1      -2.871   2.250  23.664  1.00  0.00     0.010 C
HETATM   14  C16 UNL     1      -2.200   0.938  23.934  1.00  0.00     0.001 C
HETATM   15  C17 UNL     1      -1.074   1.358  24.892  1.00  0.00     0.007 C
HETATM   16  C18 UNL     1      -1.879   2.238  25.822  1.00  0.00     0.015 C
HETATM   17  C19 UNL     1      -1.102   2.919  26.877  1.00  0.00     0.075 C
HETATM   18  C20 UNL     1       0.001   1.921  27.287  1.00  0.00     0.030 C
ENDROOT
BRANCH   4  19
HETATM   19  C7  UNL     1      -2.496   7.829  25.278  1.00  0.00     0.039 C
BRANCH  19  20
HETATM   20  C8  UNL     1      -2.028   8.784  26.353  1.00  0.00     0.116 C
HETATM   21 CL1  UNL     1      -2.823  10.365  26.052  1.00  0.00    -0.130 Cl
ENDBRANCH  19  20
ENDBRANCH   4  19
BRANCH   1  22
HETATM   22  O1  UNL     1       0.691   3.791  25.665  1.00  0.00    -0.389 OA
HETATM   23  C1  UNL     1       1.896   4.377  26.042  1.00  0.00     0.202 C
ENDBRANCH   1  22
BRANCH  17  24
HETATM   24  C21 UNL     1      -1.819   3.216  28.114  1.00  0.00     0.184 C
HETATM   25  O2  UNL     1      -2.555   2.332  28.617  1.00  0.00    -0.647 OA
HETATM   26  O3  UNL     1      -1.765   4.414  28.809  1.00  0.00    -0.647 OA
ENDBRANCH  17  24
TORSDOF 4
ENDMDL