MODEL 1
REMARK VINA RESULT: -9.758886878      0.000      0.000
REMARK  5 active torsions:
REMARK  status: ('A' for Active; 'I' for Inactive)
REMARK    1  A    between atoms: C4_4  and  N1_5
REMARK       I    between atoms: N1_5  and  C5_7
REMARK    2  A    between atoms: C5_7  and  C6_9
REMARK    3  A    between atoms: C6_9  and  O2_10
REMARK    4  A    between atoms: O2_10  and  C7_11
REMARK    5  A    between atoms: C7_11  and  C8_13
ROOT
HETATM    1  C6  UNL     1      -0.912   3.977  14.264  1.00  0.00     0.281 C
ENDROOT
BRANCH   1   2
HETATM    2  C5  UNL     1      -1.393   3.224  15.492  1.00  0.00     0.246 C
HETATM    3  N1  UNL     1      -2.784   3.185  15.663  1.00  0.00    -0.325 N
ATOM      4  H1  UNL     1      -3.364   3.655  14.968  1.00  0.00     0.169 HD
HETATM    5  O1  UNL     1      -0.509   2.739  16.189  1.00  0.00    -0.271 OA
BRANCH   3   6
HETATM    6  C4  UNL     1      -3.432   2.535  16.741  1.00  0.00     0.041 A
HETATM    7  C3  UNL     1      -3.180   2.739  18.071  1.00  0.00     0.038 A
HETATM    8  C2  UNL     1      -3.833   2.087  19.119  1.00  0.00    -0.038 A
HETATM    9  C1  UNL     1      -3.480   2.385  20.530  1.00  0.00     0.050 C
HETATM   10  C21 UNL     1      -4.801   1.171  18.774  1.00  0.00     0.040 A
HETATM   11  C20 UNL     1      -5.084   0.939  17.442  1.00  0.00     0.033 A
HETATM   12 CL1  UNL     1      -5.676   0.302  20.027  1.00  0.00    -0.084 Cl
HETATM   13  C18 UNL     1      -4.433   1.588  16.452  1.00  0.00    -0.034 A
HETATM   14  C19 UNL     1      -4.743   1.332  15.001  1.00  0.00     0.050 C
ENDBRANCH   3   6
ENDBRANCH   1   2
BRANCH   1  15
HETATM   15  O2  UNL     1       0.139   3.275  13.687  1.00  0.00    -0.311 OA
BRANCH  15  16
HETATM   16  C7  UNL     1       0.607   3.461  12.404  1.00  0.00     0.268 C
HETATM   17  O3  UNL     1      -0.174   3.835  11.509  1.00  0.00    -0.264 OA
BRANCH  16  18
HETATM   18  C8  UNL     1       2.026   3.217  12.105  1.00  0.00     0.049 C
HETATM   19  C9  UNL     1       2.712   2.411  13.195  1.00  0.00     0.024 C
HETATM   20  C10 UNL     1       4.147   2.221  12.786  1.00  0.00    -0.013 C
HETATM   21  C11 UNL     1       4.881   3.532  12.604  1.00  0.00     0.009 C
HETATM   22  C15 UNL     1       4.264   1.457  11.493  1.00  0.00     0.009 C
HETATM   23  C12 UNL     1       4.169   4.336  11.540  1.00  0.00    -0.013 C
HETATM   24  C13 UNL     1       4.135   3.615  10.214  1.00  0.00     0.009 C
HETATM   25  C17 UNL     1       2.744   4.522  11.993  1.00  0.00     0.024 C
HETATM   26  C14 UNL     1       3.557   2.240  10.413  1.00  0.00    -0.013 C
HETATM   27  C16 UNL     1       2.111   2.395  10.833  1.00  0.00     0.024 C
ENDBRANCH  16  18
ENDBRANCH  15  16
ENDBRANCH   1  15
TORSDOF 5
ENDMDL