MODEL 3
REMARK VINA RESULT: -7.446140667      7.281      9.686
REMARK  5 active torsions:
REMARK  status: ('A' for Active; 'I' for Inactive)
REMARK    1  A    between atoms: C2_2  and  C3_4
REMARK    2  A    between atoms: C4_5  and  C5_6
REMARK    3  A    between atoms: C5_6  and  C6_7
REMARK    4  A    between atoms: C6_7  and  C7_8
REMARK    5  A    between atoms: C13_14  and  O2_15
ROOT
HETATM    1  C5  UNL     1      -1.234   9.296  23.413  1.00  0.00     0.047 C
HETATM    2  C11 UNL     1      -1.848   8.627  24.622  1.00  0.00     0.025 C
HETATM    3  C12 UNL     1      -1.551   7.195  24.789  1.00  0.00     0.044 C
HETATM    4  C13 UNL     1      -2.469   6.243  24.115  1.00  0.00     0.083 C
HETATM    5  C14 UNL     1      -1.882   4.846  24.068  1.00  0.00     0.043 C
HETATM    6  C15 UNL     1      -2.833   4.156  23.105  1.00  0.00     0.008 C
HETATM    7  C16 UNL     1      -3.407   5.254  22.224  1.00  0.00     0.039 C
HETATM    8  C17 UNL     1      -2.731   6.482  22.697  1.00  0.00    -0.025 C
HETATM    9  C18 UNL     1      -2.487   7.490  21.891  1.00  0.00     0.063 C
HETATM   10 BR1  UNL     1      -3.048   7.302  20.059  1.00  0.00    -0.047 Br
HETATM   11  C19 UNL     1      -1.840   8.767  22.166  1.00  0.00     0.179 C
HETATM   12  O3  UNL     1      -1.768   9.585  21.196  1.00  0.00    -0.291 OA
ENDROOT
BRANCH   1  13
HETATM   13  C4  UNL     1      -1.533  10.748  23.581  1.00  0.00    -0.005 C
HETATM   14  C3  UNL     1      -2.242  11.232  24.565  1.00  0.00     0.047 C
BRANCH  14  15
HETATM   15  C2  UNL     1      -2.482  12.659  24.649  1.00  0.00     0.145 C
HETATM   16  C1  UNL     1      -1.612  13.486  25.513  1.00  0.00     0.096 C
HETATM   17  O1  UNL     1      -3.402  13.241  24.019  1.00  0.00    -0.294 OA
ENDBRANCH  14  15
ENDBRANCH   1  13
BRANCH   1  18
HETATM   18  C6  UNL     1       0.269   9.133  23.419  1.00  0.00     0.049 C
BRANCH  18  19
HETATM   19  C7  UNL     1       0.988  10.209  22.699  1.00  0.00    -0.023 C
HETATM   20  C8  UNL     1       2.233  10.117  22.265  1.00  0.00    -0.091 C
HETATM   21  C9  UNL     1       3.022   8.879  22.480  1.00  0.00     0.042 C
HETATM   22  C10 UNL     1       2.879  11.247  21.552  1.00  0.00     0.042 C
ENDBRANCH  18  19
ENDBRANCH   1  18
BRANCH   4  23
HETATM   23  O2  UNL     1      -3.698   6.143  24.799  1.00  0.00    -0.385 OA
ATOM     24  H2  UNL     1      -3.567   6.096  25.739  1.00  0.00     0.211 HD
ENDBRANCH   4  23
TORSDOF 5
ENDMDL