MODEL 2
REMARK VINA RESULT: -8.000346204      2.585      6.999
REMARK  4 active torsions:
REMARK  status: ('A' for Active; 'I' for Inactive)
REMARK    1  A    between atoms: N1_6  and  C6_7
REMARK    2  A    between atoms: C6_7  and  C7_8
REMARK    3  A    between atoms: C9_10  and  C10_11
REMARK    4  A    between atoms: N2_14  and  C13_15
ROOT
HETATM    1  C7  UNL     1      -3.539   2.589  21.277  1.00  0.00     0.038 A
HETATM    2  C8  UNL     1      -3.190   2.929  22.607  1.00  0.00     0.036 A
HETATM    3  C9  UNL     1      -2.946   4.229  22.982  1.00  0.00    -0.029 A
HETATM    4  C21 UNL     1      -3.032   5.247  22.055  1.00  0.00     0.056 A
HETATM    5 CL1  UNL     1      -2.708   6.941  22.475  1.00  0.00    -0.082 Cl
HETATM    6  C22 UNL     1      -3.369   4.897  20.764  1.00  0.00     0.112 A
HETATM    7  N3  UNL     1      -3.606   3.624  20.422  1.00  0.00    -0.366 N
ATOM      8  H3  UNL     1      -3.854   3.427  19.452  1.00  0.00     0.165 HD
ENDROOT
BRANCH   3   9
HETATM    9  C10 UNL     1      -2.804   4.667  24.391  1.00  0.00     0.027 C
HETATM   10  C11 UNL     1      -1.514   4.401  25.073  1.00  0.00     0.030 C
HETATM   11  C12 UNL     1      -1.084   2.990  24.837  1.00  0.00     0.128 C
HETATM   12  N2  UNL     1      -1.929   2.179  25.707  1.00  0.00    -0.367 N
HETATM   13  C19 UNL     1      -3.270   2.459  25.668  1.00  0.00     0.064 C
HETATM   14  C20 UNL     1      -3.781   3.790  25.226  1.00  0.00     0.054 C
BRANCH  12  15
HETATM   15  C13 UNL     1      -1.231   1.514  26.711  1.00  0.00    -0.012 C
HETATM   16  C14 UNL     1       0.216   1.169  26.447  1.00  0.00     0.052 C
HETATM   17  C15 UNL     1       0.597   0.033  27.376  1.00  0.00     0.006 C
HETATM   18  C16 UNL     1      -0.206  -1.208  27.077  1.00  0.00     0.001 C
HETATM   19  C17 UNL     1      -1.698  -0.933  27.043  1.00  0.00     0.006 C
HETATM   20  C18 UNL     1      -1.939   0.473  27.521  1.00  0.00     0.052 C
ENDBRANCH  12  15
ENDBRANCH   3   9
BRANCH   1  21
HETATM   21  C6  UNL     1      -3.854   1.178  20.937  1.00  0.00     0.329 C
BRANCH  21  22
HETATM   22  N1  UNL     1      -2.747   0.297  21.025  1.00  0.00     0.098 N
HETATM   23  C2  UNL     1      -2.915  -0.701  22.041  1.00  0.00     0.219 C
HETATM   24  C1  UNL     1      -1.963  -0.572  23.199  1.00  0.00     0.043 C
HETATM   25  C3  UNL     1      -2.673  -2.043  21.359  1.00  0.00     0.037 C
HETATM   26  C4  UNL     1      -1.732  -1.691  20.243  1.00  0.00     0.032 C
HETATM   27  C5  UNL     1      -2.231  -0.284  19.852  1.00  0.00     0.273 C
ENDBRANCH  21  22
ENDBRANCH   1  21
TORSDOF 4
ENDMDL