MODEL 4
REMARK VINA RESULT: -7.563428978      1.002      1.051
REMARK  6 active torsions:
REMARK  status: ('A' for Active; 'I' for Inactive)
REMARK    1  A    between atoms: C2_2  and  C3_3
REMARK       I    between atoms: N1_7  and  C6_8
REMARK    2  A    between atoms: C6_8  and  O2_10
REMARK    3  A    between atoms: O2_10  and  C7_11
REMARK    4  A    between atoms: C11_15  and  C12_16
REMARK    5  A    between atoms: C12_16  and  C13_17
REMARK       I    between atoms: C13_17  and  N2_19
REMARK    6  A    between atoms: N2_19  and  C14_21
ROOT
HETATM    1  C3  UNL     1      -3.200  -0.424  21.586  1.00  0.00     0.012 C
HETATM    2  C4  UNL     1      -3.528  -1.619  22.442  1.00  0.00     0.048 C
HETATM    3  C5  UNL     1      -3.085  -1.194  23.794  1.00  0.00     0.187 C
HETATM    4 CL1  UNL     1      -4.385  -1.495  24.974  1.00  0.00    -0.102 Cl
HETATM    5  N1  UNL     1      -2.869   0.246  23.736  1.00  0.00    -0.305 N
HETATM    6  C6  UNL     1      -2.120   0.949  24.699  1.00  0.00     0.365 C
HETATM    7  O1  UNL     1      -1.970   2.186  24.590  1.00  0.00    -0.238 OA
HETATM    8  C11 UNL     1      -3.567   0.680  22.542  1.00  0.00     0.104 C
ENDROOT
BRANCH   8   9
HETATM    9  C12 UNL     1      -3.298   2.055  22.137  1.00  0.00     0.128 C
BRANCH   9  10
HETATM   10  C13 UNL     1      -3.798   2.347  20.778  1.00  0.00     0.219 C
HETATM   11  O3  UNL     1      -3.651   3.439  20.178  1.00  0.00    -0.274 OA
HETATM   12  N2  UNL     1      -4.516   1.344  20.029  1.00  0.00    -0.356 N
ATOM     13  H2  UNL     1      -4.666   0.434  20.466  1.00  0.00     0.162 HD
BRANCH  12  14
HETATM   14  C14 UNL     1      -5.031   1.550  18.704  1.00  0.00     0.084 C
HETATM   15  C15 UNL     1      -3.894   1.538  17.708  1.00  0.00     0.025 C
HETATM   16  C16 UNL     1      -4.353   1.902  16.333  1.00  0.00     0.002 C
HETATM   17  C17 UNL     1      -5.832   1.677  16.119  1.00  0.00     0.000 C
HETATM   18  C18 UNL     1      -6.287   0.425  16.851  1.00  0.00     0.002 C
HETATM   19  C19 UNL     1      -6.078   0.526  18.327  1.00  0.00     0.025 C
ENDBRANCH  12  14
ENDBRANCH   9  10
ENDBRANCH   8   9
BRANCH   1  20
HETATM   20  C2  UNL     1      -1.787  -0.364  21.124  1.00  0.00     0.002 C
HETATM   21  C1  UNL     1      -1.534  -0.723  19.720  1.00  0.00     0.005 C
ENDBRANCH   1  20
BRANCH   6  22
HETATM   22  O2  UNL     1      -1.519   0.345  25.791  1.00  0.00    -0.294 OA
BRANCH  22  23
HETATM   23  C7  UNL     1      -0.196  -0.100  25.813  1.00  0.00     0.061 C
HETATM   24  C8  UNL     1      -0.202  -1.525  26.351  1.00  0.00     0.046 C
HETATM   25  C9  UNL     1       0.451  -0.103  24.445  1.00  0.00     0.046 C
HETATM   26  C10 UNL     1       0.661   0.723  26.753  1.00  0.00     0.046 C
ENDBRANCH  22  23
ENDBRANCH   6  22
TORSDOF 6
ENDMDL