MODEL 1
REMARK VINA RESULT: -7.072328551      0.000      0.000
REMARK  5 active torsions:
REMARK  status: ('A' for Active; 'I' for Inactive)
REMARK    1  A    between atoms: C4_7  and  C5_8
REMARK    2  A    between atoms: C6_9  and  N2_10
REMARK    3  A    between atoms: C12_16  and  O2_17
REMARK    4  A    between atoms: C13_19  and  C14_20
REMARK    5  A    between atoms: C14_20  and  N3_21
ROOT
HETATM    1  C1  UNL     1      63.393  49.853  20.381  1.00  0.00     0.069 C
HETATM    2  C2  UNL     1      64.865  50.155  20.136  1.00  0.00     0.023 A
HETATM    3  N1  UNL     1      65.769  49.173  20.210  1.00  0.00    -0.326 N
ATOM      4  H1  UNL     1      65.477  48.244  20.513  1.00  0.00     0.169 HD
HETATM    5  C3  UNL     1      67.055  49.389  19.892  1.00  0.00     0.258 A
HETATM    6  O1  UNL     1      67.840  48.412  20.003  1.00  0.00    -0.267 OA
HETATM    7  C4  UNL     1      67.528  50.626  19.467  1.00  0.00     0.067 A
HETATM    8  C12 UNL     1      66.536  51.655  19.393  1.00  0.00     0.095 A
HETATM    9  C13 UNL     1      65.210  51.428  19.729  1.00  0.00     0.036 A
ENDROOT
BRANCH   7  10
HETATM   10  C5  UNL     1      68.944  50.937  19.257  1.00  0.00     0.031 C
HETATM   11  C6  UNL     1      69.843  51.450  20.261  1.00  0.00     0.060 C
BRANCH  11  12
HETATM   12  N2  UNL     1      69.730  52.830  20.699  1.00  0.00    -0.293 NA
HETATM   13  C7  UNL     1      68.997  52.862  21.980  1.00  0.00     0.095 C
HETATM   14  C8  UNL     1      69.872  52.946  23.192  1.00  0.00     0.015 C
HETATM   15  C9  UNL     1      70.751  54.176  23.191  1.00  0.00     0.002 C
HETATM   16  C10 UNL     1      70.996  54.617  21.741  1.00  0.00     0.015 C
HETATM   17  C11 UNL     1      71.098  53.338  20.963  1.00  0.00     0.095 C
ENDBRANCH  11  12
ENDBRANCH   7  10
BRANCH   8  18
HETATM   18  O2  UNL     1      66.965  52.890  18.974  1.00  0.00    -0.359 OA
ATOM     19  H2  UNL     1      66.295  53.552  18.853  1.00  0.00     0.217 HD
ENDBRANCH   8  18
BRANCH   9  20
HETATM   20  C14 UNL     1      64.279  52.530  19.963  1.00  0.00     0.106 C
BRANCH  20  21
HETATM   21  N3  UNL     1      63.453  53.118  19.066  1.00  0.00    -0.369 N
HETATM   22  C15 UNL     1      62.177  53.546  19.181  1.00  0.00     0.063 C
HETATM   23  C16 UNL     1      61.351  52.998  18.015  1.00  0.00     0.046 C
HETATM   24  C17 UNL     1      62.404  52.669  16.992  1.00  0.00     0.025 C
HETATM   25  C18 UNL     1      63.646  52.470  17.764  1.00  0.00     0.128 C
ENDBRANCH  20  21
ENDBRANCH   9  20
TORSDOF 5
ENDMDL