MODEL 3
REMARK VINA RESULT: -6.603354210      2.511      5.713
REMARK  6 active torsions:
REMARK  status: ('A' for Active; 'I' for Inactive)
REMARK    1  A    between atoms: N3_13  and  C9_14
REMARK    2  A    between atoms: C9_14  and  C10_15
REMARK    3  A    between atoms: C10_15  and  C11_16
REMARK    4  A    between atoms: C11_16  and  N4_17
REMARK    5  A    between atoms: N4_17  and  C12_20
REMARK    6  A    between atoms: C12_20  and  C13_21
ROOT
HETATM    1  C1  UNL     1      72.340  54.112  22.917  1.00  0.00     0.052 C
HETATM    2  C2  UNL     1      71.994  52.697  22.593  1.00  0.00    -0.016 A
HETATM    3  C3  UNL     1      70.878  52.502  21.809  1.00  0.00     0.055 A
HETATM    4  C4  UNL     1      70.530  51.192  21.471  1.00  0.00     0.053 A
HETATM    5  C5  UNL     1      71.312  50.157  21.935  1.00  0.00     0.046 A
HETATM    6  C6  UNL     1      72.437  50.368  22.726  1.00  0.00     0.012 A
HETATM    7  C7  UNL     1      73.380  49.545  23.317  1.00  0.00     0.120 A
HETATM    8  N1  UNL     1      74.254  50.317  23.975  1.00  0.00    -0.311 N
ATOM      9  H1  UNL     1      75.061  49.988  24.506  1.00  0.00     0.186 HD
HETATM   10  N2  UNL     1      73.889  51.584  23.817  1.00  0.00    -0.300 N
ATOM     11  H2  UNL     1      74.381  52.384  24.214  1.00  0.00     0.187 HD
HETATM   12  C8  UNL     1      72.782  51.665  23.061  1.00  0.00     0.066 A
HETATM   13  N3  UNL     1      69.365  51.216  20.665  1.00  0.00    -0.310 N
HETATM   14  C17 UNL     1      68.974  52.586  20.491  1.00  0.00     0.299 A
HETATM   15  O1  UNL     1      68.002  53.070  19.851  1.00  0.00    -0.263 OA
HETATM   16  C18 UNL     1      69.919  53.435  21.210  1.00  0.00     0.252 A
HETATM   17  O2  UNL     1      69.922  54.702  21.307  1.00  0.00    -0.281 OA
ENDROOT
BRANCH  13  18
HETATM   18  C9  UNL     1      68.668  50.117  20.104  1.00  0.00     0.134 C
BRANCH  18  19
HETATM   19  C10 UNL     1      67.258  49.913  20.596  1.00  0.00     0.048 C
BRANCH  19  20
HETATM   20  C11 UNL     1      67.242  49.737  22.086  1.00  0.00     0.234 C
BRANCH  20  21
HETATM   21  N4  UNL     1      66.641  50.858  22.770  1.00  0.00    -0.074 N
ATOM     22  H42 UNL     1      66.397  51.630  22.149  1.00  0.00     0.277 HD
ATOM     23  H41 UNL     1      65.697  50.670  23.109  1.00  0.00     0.277 HD
BRANCH  21  24
HETATM   24  C12 UNL     1      67.582  51.234  23.834  1.00  0.00     0.240 C
BRANCH  24  25
HETATM   25  C13 UNL     1      67.324  52.665  24.284  1.00  0.00    -0.028 C
HETATM   26  C14 UNL     1      66.402  52.600  25.489  1.00  0.00     0.016 C
HETATM   27  C15 UNL     1      66.714  53.473  23.179  1.00  0.00     0.016 C
HETATM   28  C16 UNL     1      68.665  53.283  24.722  1.00  0.00     0.016 C
ENDBRANCH  24  25
ENDBRANCH  21  24
ENDBRANCH  20  21
ENDBRANCH  19  20
ENDBRANCH  18  19
ENDBRANCH  13  18
TORSDOF 6
ENDMDL