MODEL 1
REMARK VINA RESULT: -6.789072636      0.000      0.000
REMARK  8 active torsions:
REMARK  status: ('A' for Active; 'I' for Inactive)
REMARK    1  A    between atoms: C2_2  and  C3_3
REMARK    2  A    between atoms: C3_3  and  C4_4
REMARK    3  A    between atoms: C6_8  and  N2_9
REMARK    4  A    between atoms: N2_9  and  C7_11
REMARK    5  A    between atoms: C7_11  and  N3_13
REMARK    6  A    between atoms: N3_13  and  C8_15
REMARK    7  A    between atoms: C10_17  and  O1_18
REMARK    8  A    between atoms: C13_21  and  O2_22
ROOT
HETATM    1  C7  UNL     1      66.598  50.768  19.190  1.00  0.00     0.191 C
HETATM    2  S1  UNL     1      67.433  49.511  19.762  1.00  0.00    -0.040 SA
ENDROOT
BRANCH   1   3
HETATM    3  N2  UNL     1      65.348  50.442  18.529  1.00  0.00    -0.166 N
ATOM      4  H2  UNL     1      65.225  49.573  18.009  1.00  0.00     0.186 HD
BRANCH   3   5
HETATM    5  C6  UNL     1      64.410  51.306  18.633  1.00  0.00     0.684 A
HETATM    6  N1  UNL     1      64.102  52.199  17.668  1.00  0.00    -0.201 N
HETATM    7  C5  UNL     1      63.110  53.100  17.798  1.00  0.00     0.115 A
ATOM      8  H1  UNL     1      64.644  52.189  16.804  1.00  0.00     0.183 HD
HETATM    9  C4  UNL     1      62.361  53.138  18.956  1.00  0.00    -0.023 A
HETATM   10  C16 UNL     1      62.681  52.223  19.938  1.00  0.00     0.115 A
HETATM   11  N4  UNL     1      63.677  51.336  19.777  1.00  0.00    -0.201 N
ATOM     12  H4  UNL     1      63.886  50.675  20.524  1.00  0.00     0.183 HD
BRANCH   9  13
HETATM   13  C3  UNL     1      61.276  54.131  19.088  1.00  0.00     0.067 C
BRANCH  13  14
HETATM   14  C2  UNL     1      59.958  53.525  18.832  1.00  0.00    -0.032 C
HETATM   15  C1  UNL     1      59.011  54.215  18.240  1.00  0.00     0.007 C
ENDBRANCH  13  14
ENDBRANCH   9  13
ENDBRANCH   3   5
ENDBRANCH   1   3
BRANCH   1  16
HETATM   16  N3  UNL     1      67.045  52.095  19.274  1.00  0.00    -0.333 N
ATOM     17  H3  UNL     1      67.190  52.624  18.413  1.00  0.00     0.168 HD
BRANCH  16  18
HETATM   18  C8  UNL     1      67.301  52.722  20.515  1.00  0.00     0.039 A
HETATM   19  C9  UNL     1      66.389  52.771  21.535  1.00  0.00     0.066 A
HETATM   20  C10 UNL     1      66.683  53.370  22.768  1.00  0.00     0.073 A
HETATM   21  C12 UNL     1      67.921  53.927  22.964  1.00  0.00     0.073 A
HETATM   22  C13 UNL     1      68.890  53.905  21.955  1.00  0.00     0.073 A
HETATM   23  C15 UNL     1      68.537  53.304  20.777  1.00  0.00     0.066 A
BRANCH  20  24
HETATM   24  O1  UNL     1      65.735  53.398  23.771  1.00  0.00    -0.356 OA
HETATM   25  C11 UNL     1      65.602  52.270  24.638  1.00  0.00     0.210 C
ENDBRANCH  20  24
BRANCH  22  26
HETATM   26  O2  UNL     1      70.150  54.461  22.125  1.00  0.00    -0.356 OA
HETATM   27  C14 UNL     1      71.310  53.976  21.528  1.00  0.00     0.210 C
ENDBRANCH  22  26
ENDBRANCH  16  18
ENDBRANCH   1  16
TORSDOF 8
ENDMDL