MODEL 3
REMARK VINA RESULT: -6.308244871      3.112      4.112
REMARK  7 active torsions:
REMARK  status: ('A' for Active; 'I' for Inactive)
REMARK    1  A    between atoms: C2_2  and  C3_3
REMARK    2  A    between atoms: C8_8  and  N1_9
REMARK    3  A    between atoms: N1_9  and  C9_11
REMARK    4  A    between atoms: C9_11  and  N2_13
REMARK    5  A    between atoms: N2_13  and  C10_15
REMARK    6  A    between atoms: C10_15  and  C11_16
REMARK    7  A    between atoms: C11_16  and  N3_17
ROOT
HETATM    1  N1  UNL     1      66.161  50.951  18.634  1.00  0.00    -0.333 N
ATOM      2  H1  UNL     1      66.258  50.537  17.708  1.00  0.00     0.168 HD
ENDROOT
BRANCH   1   3
HETATM    3  C8  UNL     1      67.367  51.032  19.352  1.00  0.00     0.043 A
HETATM    4  C3  UNL     1      67.832  49.865  19.990  1.00  0.00    -0.029 A
HETATM    5  C4  UNL     1      69.020  49.943  20.713  1.00  0.00     0.049 A
HETATM    6  C5  UNL     1      69.752  51.102  20.828  1.00  0.00     0.105 A
HETATM    7  C6  UNL     1      69.299  52.240  20.207  1.00  0.00     0.107 A
HETATM    8  O2  UNL     1      70.944  51.452  21.473  1.00  0.00    -0.323 OA
HETATM    9  C7  UNL     1      68.109  52.164  19.482  1.00  0.00     0.069 A
HETATM   10  O1  UNL     1      70.187  53.267  20.460  1.00  0.00    -0.323 OA
HETATM   11  C16 UNL     1      71.038  52.880  21.541  1.00  0.00     0.352 C
BRANCH   4  12
HETATM   12  C2  UNL     1      67.078  48.618  19.889  1.00  0.00     0.036 C
HETATM   13  C1  UNL     1      66.306  48.232  21.121  1.00  0.00     0.010 C
ENDBRANCH   4  12
ENDBRANCH   1   3
BRANCH   1  14
HETATM   14  C9  UNL     1      64.868  51.328  18.952  1.00  0.00     0.172 C
HETATM   15  S1  UNL     1      64.292  51.412  20.463  1.00  0.00    -0.041 SA
BRANCH  14  16
HETATM   16  N2  UNL     1      63.984  51.709  17.855  1.00  0.00    -0.365 N
ATOM     17  H2  UNL     1      63.895  51.073  17.063  1.00  0.00     0.161 HD
BRANCH  16  18
HETATM   18  C10 UNL     1      63.233  52.933  17.835  1.00  0.00     0.152 C
BRANCH  18  19
HETATM   19  C11 UNL     1      61.779  52.654  17.963  1.00  0.00     0.292 C
BRANCH  19  20
HETATM   20  N3  UNL     1      61.083  53.670  18.755  1.00  0.00     0.090 N
HETATM   21  C12 UNL     1      59.793  53.976  18.224  1.00  0.00     0.272 C
HETATM   22  C13 UNL     1      58.765  53.532  19.242  1.00  0.00     0.032 C
HETATM   23  C14 UNL     1      59.558  52.457  19.986  1.00  0.00     0.032 C
HETATM   24  C15 UNL     1      60.908  53.105  20.079  1.00  0.00     0.272 C
ENDBRANCH  19  20
ENDBRANCH  18  19
ENDBRANCH  16  18
ENDBRANCH  14  16
ENDBRANCH   1  14
TORSDOF 7
ENDMDL