MODEL 1
REMARK VINA RESULT: -7.162752340      0.000      0.000
REMARK  6 active torsions:
REMARK  status: ('A' for Active; 'I' for Inactive)
REMARK    1  A    between atoms: C5_5  and  C6_6
REMARK    2  A    between atoms: C11_15  and  N3_16
REMARK    3  A    between atoms: N3_16  and  C12_18
REMARK    4  A    between atoms: C12_18  and  C13_19
REMARK    5  A    between atoms: C13_19  and  C14_20
REMARK    6  A    between atoms: C14_20  and  N4_21
ROOT
HETATM    1  C6  UNL     1      63.744  52.417  19.531  1.00  0.00     0.119 A
HETATM    2  N1  UNL     1      63.115  53.408  18.913  1.00  0.00    -0.326 N
ATOM      3  H1  UNL     1      63.574  54.077  18.295  1.00  0.00     0.169 HD
HETATM    4  C7  UNL     1      61.783  53.428  19.204  1.00  0.00     0.136 A
HETATM    5  N2  UNL     1      60.797  54.253  18.796  1.00  0.00    -0.344 N
ATOM      6  H2  UNL     1      60.996  55.023  18.157  1.00  0.00     0.167 HD
HETATM    7  C8  UNL     1      59.564  54.047  19.239  1.00  0.00     0.009 A
HETATM    8  C9  UNL     1      58.415  54.936  18.818  1.00  0.00     0.068 C
HETATM    9  C10 UNL     1      59.244  53.040  20.087  1.00  0.00     0.056 A
HETATM   10  C11 UNL     1      60.287  52.164  20.522  1.00  0.00     0.060 A
HETATM   11  C17 UNL     1      61.580  52.370  20.065  1.00  0.00     0.105 A
HETATM   12  N5  UNL     1      62.769  51.778  20.248  1.00  0.00    -0.337 N
ATOM     13  H5  UNL     1      62.926  50.962  20.839  1.00  0.00     0.167 HD
ENDROOT
BRANCH   1  14
HETATM   14  C5  UNL     1      65.154  52.036  19.498  1.00  0.00     0.023 A
HETATM   15  C4  UNL     1      66.132  52.911  19.920  1.00  0.00     0.018 A
HETATM   16  C3  UNL     1      67.460  52.514  19.873  1.00  0.00     0.025 A
HETATM   17  C2  UNL     1      67.855  51.272  19.419  1.00  0.00     0.005 A
HETATM   18  C1  UNL     1      69.290  50.850  19.371  1.00  0.00     0.068 C
HETATM   19  N6  UNL     1      66.880  50.437  19.013  1.00  0.00    -0.369 N
HETATM   20  C18 UNL     1      65.579  50.805  19.051  1.00  0.00     0.103 A
ATOM     21  H6  UNL     1      67.128  49.509  18.671  1.00  0.00     0.165 HD
ENDBRANCH   1  14
BRANCH  10  22
HETATM   22  N3  UNL     1      59.998  51.245  21.294  1.00  0.00    -0.388 N
ATOM     23  H3  UNL     1      60.481  51.370  22.183  1.00  0.00     0.159 HD
BRANCH  22  24
HETATM   24  C12 UNL     1      59.233  50.112  21.332  1.00  0.00     0.121 C
BRANCH  24  25
HETATM   25  C13 UNL     1      59.534  49.101  20.212  1.00  0.00     0.050 C
BRANCH  25  26
HETATM   26  C14 UNL     1      60.077  47.876  20.888  1.00  0.00     0.273 C
BRANCH  26  27
HETATM   27  N4  UNL     1      59.647  46.652  20.246  1.00  0.00     0.080 N
HETATM   28  C15 UNL     1      58.409  46.833  19.521  1.00  0.00     0.309 C
HETATM   29  C16 UNL     1      59.603  45.542  21.168  1.00  0.00     0.309 C
ENDBRANCH  26  27
ENDBRANCH  25  26
ENDBRANCH  24  25
ENDBRANCH  22  24
ENDBRANCH  10  22
TORSDOF 6
ENDMDL