MODEL 5
REMARK VINA RESULT: -6.824358687      2.985      8.061
REMARK  6 active torsions:
REMARK  status: ('A' for Active; 'I' for Inactive)
REMARK       I    between atoms: C2_2  and  N1_4
REMARK    1  A    between atoms: N1_4  and  C3_6
REMARK    2  A    between atoms: C3_6  and  C4_7
REMARK    3  A    between atoms: C4_7  and  O2_8
REMARK    4  A    between atoms: O2_8  and  C5_9
REMARK    5  A    between atoms: C9_13  and  N2_14
REMARK    6  A    between atoms: N2_14  and  C10_16
ROOT
HETATM    1  C5  UNL     1      69.040  52.273  21.367  1.00  0.00     0.075 A
HETATM    2  C6  UNL     1      68.798  51.098  20.653  1.00  0.00     0.046 A
HETATM    3  C7  UNL     1      67.709  51.003  19.815  1.00  0.00    -0.032 A
HETATM    4  C8  UNL     1      67.459  49.732  19.052  1.00  0.00     0.050 C
HETATM    5  C9  UNL     1      66.874  52.091  19.703  1.00  0.00     0.055 A
HETATM    6  C16 UNL     1      67.123  53.251  20.417  1.00  0.00     0.040 A
HETATM    7  C17 UNL     1      68.209  53.363  21.260  1.00  0.00    -0.026 A
HETATM    8  C18 UNL     1      68.509  54.576  22.034  1.00  0.00     0.051 C
ENDROOT
BRANCH   5   9
HETATM    9  N2  UNL     1      65.767  51.995  18.853  1.00  0.00    -0.191 N
ATOM     10  H2  UNL     1      65.939  51.907  17.851  1.00  0.00     0.184 HD
BRANCH   9  11
HETATM   11  C10 UNL     1      64.535  52.011  19.262  1.00  0.00     0.683 A
HETATM   12  N3  UNL     1      64.035  51.031  20.034  1.00  0.00    -0.196 N
HETATM   13  C11 UNL     1      62.782  51.002  20.477  1.00  0.00     0.024 A
ATOM     14  H3  UNL     1      64.654  50.263  20.294  1.00  0.00     0.184 HD
HETATM   15  C12 UNL     1      62.264  49.904  21.327  1.00  0.00     0.068 C
HETATM   16  C13 UNL     1      61.927  52.035  20.135  1.00  0.00     0.050 A
HETATM   17  C14 UNL     1      62.416  53.052  19.345  1.00  0.00     0.024 A
HETATM   18  C15 UNL     1      61.498  54.167  18.975  1.00  0.00     0.068 C
HETATM   19  N4  UNL     1      63.696  53.011  18.935  1.00  0.00    -0.196 N
ATOM     20  H4  UNL     1      64.046  53.771  18.351  1.00  0.00     0.184 HD
ENDBRANCH   9  11
ENDBRANCH   5   9
BRANCH   1  21
HETATM   21  O2  UNL     1      70.138  52.361  22.209  1.00  0.00    -0.349 OA
BRANCH  21  22
HETATM   22  C4  UNL     1      70.200  51.592  23.400  1.00  0.00     0.195 C
BRANCH  22  23
HETATM   23  C3  UNL     1      70.306  52.510  24.585  1.00  0.00     0.149 C
BRANCH  23  24
HETATM   24  N1  UNL     1      69.499  51.977  25.661  1.00  0.00    -0.359 N
HETATM   25  C2  UNL     1      68.197  52.464  25.916  1.00  0.00     0.213 C
HETATM   26  C1  UNL     1      67.405  51.895  27.025  1.00  0.00     0.117 C
HETATM   27  O1  UNL     1      67.708  53.373  25.212  1.00  0.00    -0.274 OA
ATOM     28  H1  UNL     1      69.878  51.235  26.249  1.00  0.00     0.162 HD
ENDBRANCH  23  24
ENDBRANCH  22  23
ENDBRANCH  21  22
ENDBRANCH   1  21
TORSDOF 6
ENDMDL