MODEL 5
REMARK VINA RESULT: -6.474632030      2.566      3.988
REMARK  5 active torsions:
REMARK  status: ('A' for Active; 'I' for Inactive)
REMARK    1  A    between atoms: C2_2  and  C3_3
REMARK    2  A    between atoms: C3_3  and  N1_4
REMARK       I    between atoms: N1_4  and  C4_6
REMARK    3  A    between atoms: C4_6  and  C5_8
REMARK    4  A    between atoms: C5_8  and  N2_9
REMARK    5  A    between atoms: C8_14  and  C9_15
ROOT
HETATM    1  N2  UNL     1      67.982  51.938  20.370  1.00  0.00    -0.265 N
HETATM    2  C6  UNL     1      68.426  50.696  19.865  1.00  0.00     0.294 C
HETATM    3  O2  UNL     1      69.571  50.354  19.616  1.00  0.00    -0.259 OA
HETATM    4  S1  UNL     1      66.965  49.688  19.650  1.00  0.00    -0.023 SA
HETATM    5  C7  UNL     1      65.885  51.154  19.471  1.00  0.00     0.079 C
HETATM    6  C8  UNL     1      64.739  51.090  18.866  1.00  0.00     0.038 C
HETATM    7  C15 UNL     1      66.616  52.177  20.157  1.00  0.00     0.268 C
HETATM    8  O3  UNL     1      66.044  53.252  20.556  1.00  0.00    -0.266 OA
ENDROOT
BRANCH   6   9
HETATM    9  C9  UNL     1      63.784  52.165  18.641  1.00  0.00    -0.011 A
HETATM   10  C10 UNL     1      62.736  52.381  19.541  1.00  0.00     0.038 A
HETATM   11  C11 UNL     1      62.005  53.422  19.017  1.00  0.00     0.006 A
HETATM   12  C12 UNL     1      60.783  54.039  19.596  1.00  0.00     0.068 C
HETATM   13  N3  UNL     1      62.560  53.825  17.869  1.00  0.00    -0.363 N
HETATM   14  C13 UNL     1      63.648  53.071  17.620  1.00  0.00     0.015 A
ATOM     15  H3  UNL     1      62.214  54.581  17.278  1.00  0.00     0.165 HD
HETATM   16  C14 UNL     1      64.533  53.167  16.423  1.00  0.00     0.069 C
ENDBRANCH   6   9
BRANCH   1  17
HETATM   17  C5  UNL     1      68.883  52.858  21.037  1.00  0.00     0.238 C
BRANCH  17  18
HETATM   18  C4  UNL     1      68.806  52.749  22.512  1.00  0.00     0.236 C
HETATM   19  N1  UNL     1      67.827  53.476  23.230  1.00  0.00    -0.360 N
ATOM     20  H1  UNL     1      67.171  54.080  22.734  1.00  0.00     0.162 HD
HETATM   21  O1  UNL     1      69.598  52.019  23.151  1.00  0.00    -0.272 OA
BRANCH  19  22
HETATM   22  C3  UNL     1      67.762  53.360  24.663  1.00  0.00     0.122 C
BRANCH  22  23
HETATM   23  C2  UNL     1      66.501  52.726  25.162  1.00  0.00     0.015 C
HETATM   24  C1  UNL     1      66.611  52.655  26.684  1.00  0.00     0.006 C
ENDBRANCH  22  23
ENDBRANCH  19  22
ENDBRANCH  17  18
ENDBRANCH   1  17
TORSDOF 5
ENDMDL