MODEL 5
REMARK VINA RESULT: -6.740360732      2.093      3.606
REMARK  7 active torsions:
REMARK  status: ('A' for Active; 'I' for Inactive)
REMARK    1  A    between atoms: N1_2  and  S1_4
REMARK    2  A    between atoms: S1_4  and  N2_6
REMARK    3  A    between atoms: S1_4  and  N3_14
REMARK    4  A    between atoms: N2_6  and  C2_8
REMARK    5  A    between atoms: C2_8  and  C3_9
REMARK    6  A    between atoms: N3_14  and  C7_16
REMARK    7  A    between atoms: C11_20  and  C12_21
ROOT
HETATM    1  S1  UNL     1      66.686  52.474  18.991  1.00  0.00     0.196 S
HETATM    2  O1  UNL     1      66.810  53.457  17.836  1.00  0.00    -0.206 OA
ENDROOT
BRANCH   1   3
HETATM    3  N1  UNL     1      68.116  51.826  19.084  1.00  0.00    -0.324 N
HETATM    4  C1  UNL     1      68.195  50.409  18.962  1.00  0.00     0.159 C
ATOM      5  H1  UNL     1      68.950  52.395  19.227  1.00  0.00     0.171 HD
ENDBRANCH   1   3
BRANCH   1   6
HETATM    6  N2  UNL     1      65.517  51.263  18.586  1.00  0.00    -0.317 N
ATOM      7  H2  UNL     1      65.567  50.626  17.791  1.00  0.00     0.172 HD
BRANCH   6   8
HETATM    8  C2  UNL     1      64.440  51.307  19.585  1.00  0.00     0.164 C
BRANCH   8   9
HETATM    9  C3  UNL     1      63.319  52.037  18.995  1.00  0.00     0.140 C
HETATM   10  C4  UNL     1      63.286  52.270  17.515  1.00  0.00     0.035 C
HETATM   11  C5  UNL     1      61.961  53.077  17.461  1.00  0.00     0.029 C
HETATM   12  C6  UNL     1      61.875  53.590  18.881  1.00  0.00     0.168 C
HETATM   13  O2  UNL     1      63.192  53.395  19.400  1.00  0.00    -0.384 OA
ENDBRANCH   8   9
ENDBRANCH   6   8
ENDBRANCH   1   6
BRANCH   1  14
HETATM   14  N3  UNL     1      66.363  53.220  20.467  1.00  0.00    -0.264 N
ATOM     15  H3  UNL     1      65.505  53.767  20.537  1.00  0.00     0.180 HD
BRANCH  14  16
HETATM   16  C7  UNL     1      67.194  53.149  21.633  1.00  0.00     0.157 A
HETATM   17  C8  UNL     1      66.818  53.439  22.911  1.00  0.00     0.066 A
HETATM   18  C9  UNL     1      67.934  53.236  23.736  1.00  0.00    -0.027 A
HETATM   19  C10 UNL     1      67.954  53.395  25.194  1.00  0.00     0.051 C
HETATM   20  C11 UNL     1      68.948  52.827  22.899  1.00  0.00     0.069 A
HETATM   21  O3  UNL     1      68.453  52.795  21.683  1.00  0.00    -0.296 OA
BRANCH  20  22
HETATM   22  C12 UNL     1      70.371  52.487  23.273  1.00  0.00    -0.001 C
HETATM   23  C13 UNL     1      71.007  51.971  21.964  1.00  0.00     0.021 C
HETATM   24  C14 UNL     1      71.053  53.810  23.593  1.00  0.00     0.021 C
HETATM   25  C15 UNL     1      70.488  51.463  24.328  1.00  0.00     0.021 C
ENDBRANCH  20  22
ENDBRANCH  14  16
ENDBRANCH   1  14
TORSDOF 7
ENDMDL