MODEL 1
REMARK VINA RESULT: -7.780316264      0.000      0.000
REMARK  6 active torsions:
REMARK  status: ('A' for Active; 'I' for Inactive)
REMARK    1  A    between atoms: C2_2  and  C3_3
REMARK    2  A    between atoms: C3_3  and  C4_4
REMARK    3  A    between atoms: C4_4  and  N1_5
REMARK    4  A    between atoms: C7_9  and  O1_10
REMARK    5  A    between atoms: C9_14  and  C10_15
REMARK    6  A    between atoms: N4_25  and  O2_26
ROOT
HETATM    1  N1  UNL     1      66.237  48.477  20.066  1.00  0.00    -0.376 N
ATOM      2  H1  UNL     1      65.358  47.967  20.144  1.00  0.00     0.161 HD
HETATM    3  C5  UNL     1      66.159  49.715  19.742  1.00  0.00     0.106 A
HETATM    4  C6  UNL     1      67.297  50.472  19.615  1.00  0.00     0.104 A
HETATM    5  C7  UNL     1      67.169  51.812  19.262  1.00  0.00     0.146 A
HETATM    6  N2  UNL     1      65.937  52.263  19.071  1.00  0.00    -0.322 N
ATOM      7  H2  UNL     1      65.844  53.245  18.812  1.00  0.00     0.169 HD
HETATM    8  C9  UNL     1      64.799  51.558  19.184  1.00  0.00     0.119 A
HETATM    9  N5  UNL     1      64.927  50.266  19.525  1.00  0.00    -0.328 N
ATOM     10  H5  UNL     1      64.093  49.686  19.623  1.00  0.00     0.169 HD
ENDROOT
BRANCH   8  11
HETATM   11  C10 UNL     1      63.491  52.181  18.943  1.00  0.00     0.010 A
HETATM   12  C11 UNL     1      63.207  52.551  17.624  1.00  0.00     0.018 A
HETATM   13  C12 UNL     1      62.009  53.137  17.320  1.00  0.00     0.035 A
HETATM   14  C13 UNL     1      61.093  53.358  18.318  1.00  0.00     0.091 A
HETATM   15  C14 UNL     1      61.347  53.002  19.630  1.00  0.00     0.064 A
HETATM   16  N4  UNL     1      59.842  53.908  18.336  1.00  0.00    -0.211 N
HETATM   17  C15 UNL     1      62.578  52.404  19.924  1.00  0.00     0.047 A
HETATM   18  N3  UNL     1      60.276  53.341  20.360  1.00  0.00    -0.342 N
HETATM   19  C16 UNL     1      59.336  53.902  19.578  1.00  0.00     0.106 A
ATOM     20  H3  UNL     1      60.186  53.195  21.366  1.00  0.00     0.167 HD
HETATM   21  C17 UNL     1      57.990  54.422  19.985  1.00  0.00     0.091 C
BRANCH  16  22
HETATM   22  O2  UNL     1      59.255  54.382  17.179  1.00  0.00    -0.281 OA
ATOM     23  H2  UNL     1      58.616  53.863  16.705  1.00  0.00     0.245 HD
ENDBRANCH  16  22
ENDBRANCH   8  11
BRANCH   5  24
HETATM   24  O1  UNL     1      68.317  52.572  19.136  1.00  0.00    -0.341 OA
HETATM   25  C8  UNL     1      69.459  52.195  19.918  1.00  0.00     0.211 C
ENDBRANCH   5  24
BRANCH   1  26
HETATM   26  C4  UNL     1      67.435  47.741  20.329  1.00  0.00     0.121 C
BRANCH  26  27
HETATM   27  C3  UNL     1      67.146  46.341  20.888  1.00  0.00     0.019 C
BRANCH  27  28
HETATM   28  C2  UNL     1      66.778  45.487  19.694  1.00  0.00    -0.003 C
HETATM   29  C1  UNL     1      65.345  45.026  19.745  1.00  0.00     0.005 C
ENDBRANCH  27  28
ENDBRANCH  26  27
ENDBRANCH   1  26
TORSDOF 6
ENDMDL