MODEL 3
REMARK VINA RESULT: -7.406921968      2.224      4.832
REMARK  14 active torsions:
REMARK  status: ('A' for Active; 'I' for Inactive)
REMARK    1  A    between atoms: N1_1  and  C1_4
REMARK    2  A    between atoms: C2_7  and  C3_8
REMARK    3  A    between atoms: C4_13  and  S1_14
REMARK    4  A    between atoms: S1_14  and  C5_15
REMARK    5  A    between atoms: C5_15  and  C6_16
REMARK    6  A    between atoms: C6_16  and  O1_17
REMARK    7  A    between atoms: C6_16  and  C7_19
REMARK    8  A    between atoms: C7_19  and  O2_20
REMARK    9  A    between atoms: C7_19  and  C8_22
REMARK   10  A    between atoms: C8_22  and  O3_23
REMARK   11  A    between atoms: N5_25  and  N6_26
REMARK   12  A    between atoms: C11_35  and  O4_36
REMARK   13  A    between atoms: C11_35  and  C12_38
REMARK   14  A    between atoms: C13_44  and  N13_45
ROOT
HETATM    1  C3  UNL     1      21.157  23.158   2.358  1.00  0.00     0.190 A
HETATM    2  N3  UNL     1      20.039  22.377   2.468  1.00  0.00    -0.279 N
ATOM      3  H3  UNL     1      19.968  21.543   3.051  1.00  0.00     0.189 HD
HETATM    4  N4  UNL     1      19.092  22.835   1.738  1.00  0.00    -0.277 N
ATOM      5  H4  UNL     1      18.158  22.437   1.644  1.00  0.00     0.189 HD
HETATM    6  C4  UNL     1      19.561  23.959   1.105  1.00  0.00     0.183 A
HETATM    7  N5  UNL     1      20.831  24.140   1.495  1.00  0.00    -0.202 N
ENDROOT
BRANCH   7   8
HETATM    8  N6  UNL     1      21.713  25.153   1.048  1.00  0.00    -0.192 N
HETATM    9  C9  UNL     1      21.689  26.328   1.891  1.00  0.00     0.216 C
HETATM   10  N7  UNL     1      20.675  26.527   2.869  1.00  0.00    -0.061 NA
HETATM   11  N8  UNL     1      22.585  27.264   1.805  1.00  0.00    -0.303 N
HETATM   12  C10 UNL     1      23.618  27.154   0.830  1.00  0.00     0.194 C
ATOM     13  H8  UNL     1      22.549  28.070   2.429  1.00  0.00     0.171 HD
HETATM   14  N9  UNL     1      24.636  28.142   0.736  1.00  0.00    -0.063 NA
HETATM   15  N10 UNL     1      23.642  26.181   0.041  1.00  0.00    -0.308 N
HETATM   16  C11 UNL     1      22.641  25.082  -0.002  1.00  0.00     0.290 C
ATOM     17  H10 UNL     1      24.412  26.140  -0.627  1.00  0.00     0.167 HD
BRANCH  16  18
HETATM   18  O4  UNL     1      23.321  23.870   0.000  1.00  0.00    -0.347 OA
ATOM     19  H4  UNL     1      23.707  23.687  -0.847  1.00  0.00     0.215 HD
ENDBRANCH  16  18
BRANCH  16  20
HETATM   20  C12 UNL     1      22.136  25.250  -1.402  1.00  0.00     0.158 A
HETATM   21  N11 UNL     1      22.243  24.278  -2.332  1.00  0.00    -0.235 N
HETATM   22  O5  UNL     1      21.727  24.672  -3.459  1.00  0.00    -0.155 OA
ATOM     23  H11 UNL     1      22.667  23.364  -2.173  1.00  0.00     0.197 HD
HETATM   24  N12 UNL     1      21.279  25.894  -3.291  1.00  0.00    -0.224 N
HETATM   25  C13 UNL     1      21.512  26.285  -2.036  1.00  0.00     0.153 A
ATOM     26  H12 UNL     1      20.822  26.458  -4.009  1.00  0.00     0.198 HD
BRANCH  25  27
HETATM   27  N13 UNL     1      21.212  27.400  -1.528  1.00  0.00    -0.382 N
ATOM     28 2H13 UNL     1      21.602  27.804  -0.676  1.00  0.00     0.157 HD
ATOM     29 1H13 UNL     1      20.533  28.067  -1.895  1.00  0.00     0.157 HD
ENDBRANCH  25  27
ENDBRANCH  16  20
ENDBRANCH   7   8
BRANCH   1  30
HETATM   30  C2  UNL     1      22.427  22.939   3.103  1.00  0.00     0.162 A
HETATM   31  N2  UNL     1      23.373  22.148   2.605  1.00  0.00    -0.318 N
HETATM   32  C1  UNL     1      24.467  21.957   3.340  1.00  0.00     0.160 A
ATOM     33  H2  UNL     1      23.265  21.704   1.693  1.00  0.00     0.169 HD
HETATM   34  S2  UNL     1      24.169  22.887   4.728  1.00  0.00     0.024 SA
HETATM   35  N14 UNL     1      22.668  23.469   4.299  1.00  0.00    -0.306 N
ATOM     36  H14 UNL     1      22.065  24.093   4.836  1.00  0.00     0.176 HD
BRANCH  32  37
HETATM   37  N1  UNL     1      25.502  21.213   3.012  1.00  0.00    -0.379 N
ATOM     38  H12 UNL     1      25.567  20.395   2.405  1.00  0.00     0.158 HD
ATOM     39  H11 UNL     1      26.461  21.342   3.333  1.00  0.00     0.158 HD
ENDBRANCH  32  37
ENDBRANCH   1  30
BRANCH   6  40
HETATM   40  S1  UNL     1      18.587  24.972   0.020  1.00  0.00    -0.088 SA
BRANCH  40  41
HETATM   41  C5  UNL     1      18.211  24.260  -1.548  1.00  0.00     0.116 C
BRANCH  41  42
HETATM   42  C6  UNL     1      17.199  24.923  -2.400  1.00  0.00     0.158 C
BRANCH  42  43
HETATM   43  O1  UNL     1      16.142  24.115  -2.732  1.00  0.00    -0.392 OA
ATOM     44  H1  UNL     1      15.330  24.587  -2.870  1.00  0.00     0.210 HD
ENDBRANCH  42  43
BRANCH  42  45
HETATM   45  C7  UNL     1      17.778  25.643  -3.596  1.00  0.00     0.171 C
BRANCH  45  46
HETATM   46  O2  UNL     1      18.552  24.855  -4.403  1.00  0.00    -0.391 OA
ATOM     47  H2  UNL     1      19.247  25.322  -4.852  1.00  0.00     0.210 HD
ENDBRANCH  45  46
BRANCH  45  48
HETATM   48  C8  UNL     1      16.610  26.159  -4.409  1.00  0.00     0.198 C
BRANCH  48  49
HETATM   49  O3  UNL     1      16.359  25.425  -5.540  1.00  0.00    -0.398 OA
ATOM     50  H3  UNL     1      15.884  24.619  -5.374  1.00  0.00     0.209 HD
ENDBRANCH  48  49
ENDBRANCH  45  48
ENDBRANCH  42  45
ENDBRANCH  41  42
ENDBRANCH  40  41
ENDBRANCH   6  40
TORSDOF 14
ENDMDL