MODEL 2
REMARK VINA RESULT: -8.584201549      1.001      1.818
REMARK  16 active torsions:
REMARK  status: ('A' for Active; 'I' for Inactive)
REMARK    1  A    between atoms: N1_1  and  C1_4
REMARK    2  A    between atoms: C4_11  and  O1_12
REMARK    3  A    between atoms: O1_12  and  C5_13
REMARK    4  A    between atoms: C5_13  and  C6_14
REMARK    5  A    between atoms: C6_14  and  C9_23
REMARK    6  A    between atoms: C9_23  and  O2_24
REMARK    7  A    between atoms: C9_23  and  O3_26
REMARK    8  A    between atoms: C9_23  and  C10_28
REMARK    9  A    between atoms: C10_28  and  N7_29
REMARK   10  A    between atoms: C12_31  and  C13_32
REMARK   11  A    between atoms: C13_32  and  O4_33
REMARK   12  A    between atoms: C13_32  and  O5_35
REMARK   13  A    between atoms: C13_32  and  C14_37
REMARK   14  A    between atoms: C14_37  and  O6_38
REMARK   15  A    between atoms: C15_44  and  N10_45
REMARK   16  A    between atoms: N12_52  and  O8_53
ROOT
HETATM    1  C6  UNL     1      19.920  23.901   2.694  1.00  0.00     0.073 C
HETATM    2  C7  UNL     1      18.761  24.680   2.895  1.00  0.00     0.134 A
HETATM    3  N4  UNL     1      17.572  24.291   3.484  1.00  0.00    -0.336 N
ATOM      4  H4  UNL     1      17.409  23.367   3.886  1.00  0.00     0.168 HD
HETATM    5  C8  UNL     1      16.667  25.261   3.465  1.00  0.00     0.199 A
HETATM    6  N5  UNL     1      17.270  26.293   2.859  1.00  0.00    -0.295 N
ATOM      7  H5  UNL     1      16.844  27.202   2.680  1.00  0.00     0.187 HD
HETATM    8  N6  UNL     1      18.500  25.950   2.529  1.00  0.00    -0.284 N
ATOM      9  H6  UNL     1      19.165  26.565   2.059  1.00  0.00     0.188 HD
ENDROOT
BRANCH   1  10
HETATM   10  C5  UNL     1      21.173  24.070   3.462  1.00  0.00     0.161 C
BRANCH  10  11
HETATM   11  O1  UNL     1      21.851  25.140   3.645  1.00  0.00    -0.302 OA
BRANCH  11  12
HETATM   12  C4  UNL     1      22.531  26.235   3.829  1.00  0.00     0.192 A
HETATM   13  C1  UNL     1      22.827  26.626   5.169  1.00  0.00     0.153 A
HETATM   14  N2  UNL     1      23.490  27.747   5.410  1.00  0.00    -0.322 N
HETATM   15  C2  UNL     1      23.892  28.531   4.402  1.00  0.00     0.170 A
ATOM     16  H2  UNL     1      23.697  28.014   6.372  1.00  0.00     0.169 HD
HETATM   17  C3  UNL     1      23.613  28.175   3.074  1.00  0.00     0.125 A
HETATM   18  N12 UNL     1      24.536  29.676   4.712  1.00  0.00    -0.153 N
HETATM   19  N3  UNL     1      22.955  27.047   2.856  1.00  0.00    -0.327 N
HETATM   20  C15 UNL     1      24.034  29.069   2.080  1.00  0.00     0.134 A
ATOM     21  H3  UNL     1      22.760  26.783   1.891  1.00  0.00     0.168 HD
HETATM   22  N11 UNL     1      24.657  30.186   2.434  1.00  0.00    -0.291 N
HETATM   23  C16 UNL     1      24.906  30.491   3.732  1.00  0.00     0.354 A
ATOM     24  H11 UNL     1      24.960  30.834   1.707  1.00  0.00     0.172 HD
HETATM   25  O7  UNL     1      25.497  31.574   4.021  1.00  0.00    -0.244 OA
BRANCH  13  26
HETATM   26  N1  UNL     1      22.403  25.816   6.125  1.00  0.00    -0.382 N
ATOM     27  H12 UNL     1      21.418  25.888   6.378  1.00  0.00     0.157 HD
ATOM     28  H11 UNL     1      23.011  25.149   6.599  1.00  0.00     0.157 HD
ENDBRANCH  13  26
BRANCH  20  29
HETATM   29  N10 UNL     1      23.733  28.705   0.844  1.00  0.00    -0.383 N
ATOM     30 2H10 UNL     1      24.185  29.039  -0.007  1.00  0.00     0.157 HD
ATOM     31 1H10 UNL     1      22.962  28.041   0.771  1.00  0.00     0.157 HD
ENDBRANCH  20  29
BRANCH  18  32
HETATM   32  O8  UNL     1      24.810  29.964   6.049  1.00  0.00    -0.277 OA
ATOM     33  H8  UNL     1      25.674  29.780   6.397  1.00  0.00     0.245 HD
ENDBRANCH  18  32
ENDBRANCH  11  12
ENDBRANCH  10  11
ENDBRANCH   1  10
BRANCH   1  34
HETATM   34  C9  UNL     1      19.846  22.537   2.108  1.00  0.00     0.212 C
BRANCH  34  35
HETATM   35  O2  UNL     1      18.798  21.800   2.742  1.00  0.00    -0.360 OA
ATOM     36  H2  UNL     1      18.724  20.943   2.340  1.00  0.00     0.213 HD
ENDBRANCH  34  35
BRANCH  34  37
HETATM   37  O3  UNL     1      21.031  21.817   2.261  1.00  0.00    -0.360 OA
ATOM     38  H3  UNL     1      20.955  20.915   1.973  1.00  0.00     0.213 HD
ENDBRANCH  34  37
BRANCH  34  39
HETATM   39  C10 UNL     1      19.491  22.482   0.647  1.00  0.00     0.223 C
BRANCH  39  40
HETATM   40  N7  UNL     1      20.351  23.492  -0.020  1.00  0.00    -0.281 N
HETATM   41  C11 UNL     1      20.084  24.555  -0.722  1.00  0.00     0.144 A
HETATM   42  C12 UNL     1      21.284  25.116  -1.161  1.00  0.00     0.108 A
HETATM   43  N8  UNL     1      22.252  24.295  -0.661  1.00  0.00    -0.283 N
HETATM   44  N9  UNL     1      21.696  23.343   0.008  1.00  0.00    -0.240 N
ATOM     45  H8  UNL     1      23.256  24.415  -0.796  1.00  0.00     0.188 HD
ATOM     46  H9  UNL     1      22.194  22.592   0.485  1.00  0.00     0.208 HD
BRANCH  42  47
HETATM   47  C13 UNL     1      21.522  26.299  -2.007  1.00  0.00     0.229 C
BRANCH  47  48
HETATM   48  O4  UNL     1      20.998  27.469  -1.445  1.00  0.00    -0.359 OA
ATOM     49  H4  UNL     1      21.556  27.823  -0.763  1.00  0.00     0.213 HD
ENDBRANCH  47  48
BRANCH  47  50
HETATM   50  O5  UNL     1      21.104  26.114  -3.304  1.00  0.00    -0.359 OA
ATOM     51  H5  UNL     1      21.342  26.838  -3.871  1.00  0.00     0.213 HD
ENDBRANCH  47  50
BRANCH  47  52
HETATM   52  C14 UNL     1      23.064  26.487  -1.999  1.00  0.00     0.239 C
BRANCH  52  53
HETATM   53  O6  UNL     1      23.301  27.859  -2.075  1.00  0.00    -0.395 OA
ATOM     54  H6  UNL     1      23.814  28.090  -1.309  1.00  0.00     0.209 HD
ENDBRANCH  52  53
ENDBRANCH  47  52
ENDBRANCH  42  47
ENDBRANCH  39  40
ENDBRANCH  34  39
ENDBRANCH   1  34
TORSDOF 16
ENDMDL