MODEL 1
REMARK VINA RESULT: -8.810636805      0.000      0.000
REMARK  13 active torsions:
REMARK  status: ('A' for Active; 'I' for Inactive)
REMARK    1  A    between atoms: N1_1  and  C1_4
REMARK    2  A    between atoms: C6_15  and  N6_16
REMARK    3  A    between atoms: N6_16  and  C7_18
REMARK    4  A    between atoms: C7_18  and  C8_19
REMARK    5  A    between atoms: C7_18  and  C9_24
REMARK    6  A    between atoms: C8_19  and  O1_20
REMARK    7  A    between atoms: C8_19  and  O2_22
REMARK    8  A    between atoms: C9_24  and  O3_25
REMARK    9  A    between atoms: C9_24  and  C10_27
REMARK   10  A    between atoms: C10_27  and  N7_28
REMARK   11  A    between atoms: C12_30  and  C13_31
REMARK   12  A    between atoms: C13_31  and  N8_32
REMARK   13  A    between atoms: N8_32  and  C14_34
ROOT
HETATM    1  C7  UNL     1      23.874  28.891   3.316  1.00  0.00     0.168 C
ENDROOT
BRANCH   1   2
HETATM    2  N6  UNL     1      22.498  28.978   2.900  1.00  0.00    -0.361 N
ATOM      3  H6  UNL     1      21.953  29.751   3.282  1.00  0.00     0.162 HD
BRANCH   2   4
HETATM    4  C6  UNL     1      21.827  28.108   2.022  1.00  0.00     0.150 A
HETATM    5  N5  UNL     1      20.648  27.528   2.281  1.00  0.00    -0.335 N
HETATM    6  C5  UNL     1      20.054  26.703   1.412  1.00  0.00     0.108 A
ATOM      7  H5  UNL     1      20.187  27.722   3.170  1.00  0.00     0.168 HD
HETATM    8  C1  UNL     1      18.838  26.097   1.665  1.00  0.00     0.130 A
HETATM    9  C4  UNL     1      20.631  26.407   0.197  1.00  0.00     0.114 A
HETATM   10  N2  UNL     1      18.269  25.267   0.762  1.00  0.00    -0.328 N
HETATM   11  C2  UNL     1      18.842  24.990  -0.409  1.00  0.00     0.144 A
ATOM     12  H2  UNL     1      17.371  24.838   0.984  1.00  0.00     0.168 HD
HETATM   13  N3  UNL     1      18.199  24.116  -1.313  1.00  0.00    -0.081 NA
HETATM   14  C3  UNL     1      20.055  25.559  -0.732  1.00  0.00     0.118 A
HETATM   15  N4  UNL     1      20.695  25.286  -1.976  1.00  0.00    -0.096 NA
HETATM   16  N16 UNL     1      21.817  26.986  -0.069  1.00  0.00    -0.217 N
HETATM   17  C17 UNL     1      22.418  27.811   0.793  1.00  0.00     0.183 A
HETATM   18  N15 UNL     1      22.586  26.869  -1.167  1.00  0.00     0.001 NA
HETATM   19  N13 UNL     1      23.574  28.212   0.222  1.00  0.00    -0.267 N
HETATM   20  N14 UNL     1      23.649  27.627  -0.960  1.00  0.00    -0.007 NA
ATOM     21  H13 UNL     1      24.261  28.846   0.627  1.00  0.00     0.185 HD
BRANCH   8  22
HETATM   22  N1  UNL     1      18.267  26.347   2.787  1.00  0.00    -0.384 N
ATOM     23  H12 UNL     1      18.694  25.968   3.632  1.00  0.00     0.157 HD
ATOM     24  H11 UNL     1      17.414  26.905   2.831  1.00  0.00     0.157 HD
ENDBRANCH   8  22
ENDBRANCH   2   4
ENDBRANCH   1   2
BRANCH   1  25
HETATM   25  C8  UNL     1      24.545  30.210   3.110  1.00  0.00     0.278 C
BRANCH  25  26
HETATM   26  O1  UNL     1      23.755  31.218   3.668  1.00  0.00    -0.369 OA
ATOM     27  H1  UNL     1      22.999  31.365   3.113  1.00  0.00     0.212 HD
ENDBRANCH  25  26
BRANCH  25  28
HETATM   28  O2  UNL     1      24.668  30.542   1.758  1.00  0.00    -0.369 OA
ATOM     29  H2  UNL     1      25.149  31.350   1.624  1.00  0.00     0.212 HD
ENDBRANCH  25  28
ENDBRANCH   1  25
BRANCH   1  30
HETATM   30  C9  UNL     1      23.988  28.374   4.718  1.00  0.00     0.165 C
BRANCH  30  31
HETATM   31  O3  UNL     1      24.420  29.350   5.614  1.00  0.00    -0.392 OA
ATOM     32  H3  UNL     1      23.781  29.529   6.295  1.00  0.00     0.210 HD
ENDBRANCH  30  31
BRANCH  30  33
HETATM   33  C10 UNL     1      24.893  27.178   4.852  1.00  0.00     0.183 C
BRANCH  33  34
HETATM   34  N7  UNL     1      24.871  26.299   3.698  1.00  0.00    -0.285 N
HETATM   35  C11 UNL     1      24.149  25.178   3.520  1.00  0.00     0.140 A
HETATM   36  C12 UNL     1      24.420  24.631   2.274  1.00  0.00     0.062 A
HETATM   37  N11 UNL     1      25.321  25.463   1.727  1.00  0.00    -0.287 N
HETATM   38  N12 UNL     1      25.580  26.437   2.566  1.00  0.00    -0.241 N
ATOM     39  H11 UNL     1      25.739  25.354   0.802  1.00  0.00     0.188 HD
ATOM     40  H12 UNL     1      26.233  27.199   2.383  1.00  0.00     0.208 HD
BRANCH  36  41
HETATM   41  C13 UNL     1      23.816  23.389   1.717  1.00  0.00     0.182 C
BRANCH  41  42
HETATM   42  N8  UNL     1      22.478  23.644   1.266  1.00  0.00    -0.357 N
ATOM     43  H8  UNL     1      22.351  24.220   0.434  1.00  0.00     0.162 HD
BRANCH  42  44
HETATM   44  C14 UNL     1      21.319  23.137   1.919  1.00  0.00     0.171 C
HETATM   45  N9  UNL     1      20.867  23.547   3.048  1.00  0.00    -0.361 N
HETATM   46  C15 UNL     1      19.657  22.794   3.404  1.00  0.00     0.142 C
ATOM     47  H9  UNL     1      21.286  24.286   3.614  1.00  0.00     0.162 HD
HETATM   48  C16 UNL     1      19.239  22.179   2.081  1.00  0.00     0.142 C
HETATM   49  N10 UNL     1      20.514  22.098   1.375  1.00  0.00    -0.361 N
ATOM     50  H10 UNL     1      20.773  21.434   0.645  1.00  0.00     0.162 HD
ENDBRANCH  42  44
ENDBRANCH  41  42
ENDBRANCH  36  41
ENDBRANCH  33  34
ENDBRANCH  30  33
ENDBRANCH   1  30
TORSDOF 13
ENDMDL