MODEL 4
REMARK VINA RESULT: -7.120740718      2.959      9.664
REMARK  18 active torsions:
REMARK  status: ('A' for Active; 'I' for Inactive)
REMARK    1  A    between atoms: C2_2  and  O1_3
REMARK    2  A    between atoms: C2_2  and  N1_5
REMARK    3  A    between atoms: N1_5  and  S1_6
REMARK    4  A    between atoms: N1_5  and  C15_47
REMARK    5  A    between atoms: S1_6  and  C3_7
REMARK    6  A    between atoms: C5_10  and  O2_11
REMARK    7  A    between atoms: C9_23  and  N6_24
REMARK    8  A    between atoms: N6_24  and  C10_26
REMARK    9  A    between atoms: C10_26  and  C11_27
REMARK   10  A    between atoms: C10_26  and  C12_29
REMARK   11  A    between atoms: C12_29  and  N10_36
REMARK   12  A    between atoms: N7_30  and  N8_32
REMARK   13  A    between atoms: N8_32  and  N9_33
REMARK   14  A    between atoms: N10_36  and  C13_38
REMARK   15  A    between atoms: C13_38  and  N11_39
REMARK   16  A    between atoms: C13_38  and  O3_43
REMARK   17  A    between atoms: C15_47  and  O5_48
REMARK   18  A    between atoms: C15_47  and  O6_50
ROOT
HETATM    1  C3  UNL     1      19.464  25.533  -1.611  1.00  0.00     0.087 C
HETATM    2  C4  UNL     1      19.080  25.485  -0.282  1.00  0.00     0.102 C
HETATM    3  N2  UNL     1      17.875  24.830   0.008  1.00  0.00    -0.098 NA
HETATM    4  C5  UNL     1      19.744  26.019   0.836  1.00  0.00     0.109 C
HETATM    5  C6  UNL     1      21.086  26.292   0.853  1.00  0.00     0.097 A
HETATM    6  C7  UNL     1      21.961  26.626  -0.176  1.00  0.00     0.125 A
HETATM    7  N3  UNL     1      21.628  26.748  -1.494  1.00  0.00    -0.327 N
ATOM      8  H3  UNL     1      22.139  27.431  -2.054  1.00  0.00     0.169 HD
HETATM    9  C8  UNL     1      20.653  26.013  -2.111  1.00  0.00     0.120 C
HETATM   10  N4  UNL     1      20.849  25.708  -3.350  1.00  0.00    -0.384 N
ATOM     11  H41 UNL     1      21.730  26.063  -3.720  1.00  0.00     0.157 HD
ATOM     12  H42 UNL     1      20.122  25.159  -3.810  1.00  0.00     0.157 HD
HETATM   13  N5  UNL     1      23.240  26.808   0.384  1.00  0.00    -0.325 N
ATOM     14  H5  UNL     1      24.066  27.060  -0.158  1.00  0.00     0.169 HD
HETATM   15  C9  UNL     1      23.248  26.623   1.644  1.00  0.00     0.155 A
HETATM   16  C14 UNL     1      21.887  26.277   2.073  1.00  0.00     0.232 A
HETATM   17  O4  UNL     1      21.487  26.020   3.242  1.00  0.00    -0.283 OA
ENDROOT
BRANCH  15  18
HETATM   18  N6  UNL     1      24.359  26.714   2.575  1.00  0.00    -0.361 N
ATOM     19  H6  UNL     1      24.981  25.912   2.677  1.00  0.00     0.162 HD
BRANCH  18  20
HETATM   20  C10 UNL     1      24.611  27.868   3.342  1.00  0.00     0.163 C
BRANCH  20  21
HETATM   21  C11 UNL     1      23.523  28.925   3.206  1.00  0.00     0.119 C
HETATM   22  S2  UNL     1      24.200  30.556   2.900  1.00  0.00    -0.095 SA
ENDBRANCH  20  21
BRANCH  20  23
HETATM   23  C12 UNL     1      24.847  27.583   4.766  1.00  0.00     0.132 C
HETATM   24  N7  UNL     1      24.304  26.800   5.549  1.00  0.00    -0.202 N
ATOM     25  H7  UNL     1      24.767  26.912   6.452  1.00  0.00     0.205 HD
BRANCH  24  26
HETATM   26  N8  UNL     1      23.407  25.913   5.698  1.00  0.00    -0.242 NA
BRANCH  26  27
HETATM   27  N9  UNL     1      22.600  25.153   5.838  1.00  0.00    -0.260 N
ATOM     28  H92 UNL     1      22.817  25.945   6.441  1.00  0.00     0.193 HD
ATOM     29  H91 UNL     1      21.871  24.447   5.944  1.00  0.00     0.193 HD
ENDBRANCH  26  27
ENDBRANCH  24  26
BRANCH  23  30
HETATM   30  N10 UNL     1      25.953  28.349   5.380  1.00  0.00    -0.328 N
ATOM     31  H10 UNL     1      26.911  28.175   5.078  1.00  0.00     0.165 HD
BRANCH  30  32
HETATM   32  C13 UNL     1      25.701  29.332   6.391  1.00  0.00     0.424 C
BRANCH  32  33
HETATM   33  N11 UNL     1      26.471  30.527   6.073  1.00  0.00    -0.035 N
ATOM     34 3H11 UNL     1      26.457  30.749   5.078  1.00  0.00     0.279 HD
ATOM     35 2H11 UNL     1      26.026  31.380   6.412  1.00  0.00     0.279 HD
ATOM     36 1H11 UNL     1      27.417  30.407   6.435  1.00  0.00     0.279 HD
ENDBRANCH  32  33
BRANCH  32  37
HETATM   37  O3  UNL     1      24.362  29.680   6.391  1.00  0.00    -0.355 OA
ATOM     38  H3  UNL     1      23.894  29.172   7.044  1.00  0.00     0.213 HD
ENDBRANCH  32  37
ENDBRANCH  30  32
ENDBRANCH  23  30
ENDBRANCH  20  23
ENDBRANCH  18  20
ENDBRANCH  15  18
BRANCH   4  39
HETATM   39  O2  UNL     1      19.016  26.272   1.948  1.00  0.00    -0.358 OA
ATOM     40  H2  UNL     1      18.841  25.551   2.541  1.00  0.00     0.217 HD
ENDBRANCH   4  39
BRANCH   1  41
HETATM   41  S1  UNL     1      18.236  24.889  -2.736  1.00  0.00    -0.030 SA
BRANCH  41  42
HETATM   42  N1  UNL     1      17.753  26.102  -3.923  1.00  0.00    -0.176 NA
BRANCH  42  43
HETATM   43  C2  UNL     1      16.347  26.358  -3.722  1.00  0.00     0.204 C
HETATM   44  C1  UNL     1      15.818  27.493  -4.543  1.00  0.00     0.057 C
BRANCH  43  45
HETATM   45  O1  UNL     1      15.550  25.248  -3.936  1.00  0.00    -0.381 OA
ATOM     46  H1  UNL     1      15.480  25.099  -4.872  1.00  0.00     0.211 HD
ENDBRANCH  43  45
ENDBRANCH  42  43
BRANCH  42  47
HETATM   47  C15 UNL     1      18.043  25.555  -5.228  1.00  0.00     0.351 C
BRANCH  47  48
HETATM   48  O5  UNL     1      18.901  24.487  -5.197  1.00  0.00    -0.358 OA
ATOM     49  H5  UNL     1      18.476  23.663  -4.987  1.00  0.00     0.214 HD
ENDBRANCH  47  48
BRANCH  47  50
HETATM   50  O6  UNL     1      18.479  26.583  -6.071  1.00  0.00    -0.358 OA
ATOM     51  H6  UNL     1      18.615  26.234  -6.944  1.00  0.00     0.214 HD
ENDBRANCH  47  50
ENDBRANCH  42  47
ENDBRANCH  41  42
ENDBRANCH   1  41
TORSDOF 18
ENDMDL