MODEL 3
REMARK VINA RESULT: -9.249211595      1.114      1.594
REMARK  14 active torsions:
REMARK  status: ('A' for Active; 'I' for Inactive)
REMARK    1  A    between atoms: N1_1  and  C1_4
REMARK    2  A    between atoms: C2_7  and  N3_8
REMARK    3  A    between atoms: N6_15  and  C4_16
REMARK    4  A    between atoms: C4_16  and  C5_17
REMARK    5  A    between atoms: C5_17  and  C6_18
REMARK    6  A    between atoms: C6_18  and  N7_19
REMARK       I    between atoms: N7_19  and  C7_21
REMARK    7  A    between atoms: C7_21  and  C8_23
REMARK    8  A    between atoms: C8_23  and  O2_24
REMARK    9  A    between atoms: O2_24  and  C9_25
REMARK   10  A    between atoms: C11_29  and  O3_30
REMARK   11  A    between atoms: C12_32  and  N9_33
REMARK   12  A    between atoms: C14_40  and  N13_41
REMARK   13  A    between atoms: N14_45  and  N15_46
REMARK   14  A    between atoms: N16_50  and  N17_51
ROOT
HETATM    1  C9  UNL     1      19.203  25.655  -1.578  1.00  0.00     0.247 A
HETATM    2  N8  UNL     1      19.210  25.867  -0.223  1.00  0.00    -0.315 N
ATOM      3  H8  UNL     1      18.443  25.613   0.400  1.00  0.00     0.170 HD
HETATM    4  C10 UNL     1      20.336  26.444   0.180  1.00  0.00     0.121 A
HETATM    5  C11 UNL     1      21.080  26.948   1.251  1.00  0.00     0.143 A
HETATM    6  C12 UNL     1      22.270  27.413   0.750  1.00  0.00     0.170 A
HETATM    7  N14 UNL     1      22.254  27.201  -0.579  1.00  0.00    -0.223 N
HETATM    8  C15 UNL     1      21.092  26.615  -0.952  1.00  0.00     0.183 A
HETATM    9  N16 UNL     1      20.410  26.141  -1.998  1.00  0.00    -0.205 N
ENDROOT
BRANCH   1  10
HETATM   10  O2  UNL     1      18.228  25.103  -2.229  1.00  0.00    -0.311 OA
BRANCH  10  11
HETATM   11  C8  UNL     1      17.132  24.892  -2.880  1.00  0.00     0.281 C
BRANCH  11  12
HETATM   12  C7  UNL     1      16.696  25.889  -3.932  1.00  0.00     0.241 C
HETATM   13  N7  UNL     1      16.011  27.076  -3.550  1.00  0.00    -0.359 N
ATOM     14  H7  UNL     1      15.817  27.232  -2.561  1.00  0.00     0.162 HD
HETATM   15  O1  UNL     1      16.930  25.676  -5.122  1.00  0.00    -0.271 OA
BRANCH  13  16
HETATM   16  C6  UNL     1      15.578  28.069  -4.505  1.00  0.00     0.124 C
BRANCH  16  17
HETATM   17  C5  UNL     1      14.575  29.023  -3.850  1.00  0.00     0.041 C
BRANCH  17  18
HETATM   18  C4  UNL     1      14.292  30.216  -4.734  1.00  0.00     0.150 C
BRANCH  18  19
HETATM   19  N6  UNL     1      13.558  29.796  -5.910  1.00  0.00    -0.258 N
HETATM   20  N5  UNL     1      14.018  29.687  -7.144  1.00  0.00    -0.018 NA
HETATM   21  N4  UNL     1      13.056  29.281  -7.974  1.00  0.00    -0.277 N
HETATM   22  C3  UNL     1      11.940  29.121  -7.258  1.00  0.00     0.136 A
ATOM     23  H4  UNL     1      13.155  29.121  -8.977  1.00  0.00     0.184 HD
HETATM   24  C2  UNL     1      10.675  28.722  -7.585  1.00  0.00     0.146 A
HETATM   25  C16 UNL     1      12.262  29.444  -5.971  1.00  0.00     0.168 A
HETATM   26  N2  UNL     1       9.740  28.648  -6.634  1.00  0.00    -0.175 N
HETATM   27  C1  UNL     1      10.045  28.965  -5.357  1.00  0.00     0.679 A
ATOM     28  H2  UNL     1       8.794  28.351  -6.873  1.00  0.00     0.186 HD
HETATM   29  N18 UNL     1      11.285  29.355  -5.041  1.00  0.00    -0.173 N
ATOM     30  H18 UNL     1      11.499  29.592  -4.072  1.00  0.00     0.186 HD
BRANCH  24  31
HETATM   31  N3  UNL     1      10.363  28.410  -8.813  1.00  0.00    -0.383 N
ATOM     32  H32 UNL     1      10.398  27.444  -9.136  1.00  0.00     0.157 HD
ATOM     33  H31 UNL     1      10.078  29.147  -9.458  1.00  0.00     0.157 HD
ENDBRANCH  24  31
BRANCH  27  34
HETATM   34  N1  UNL     1       9.141  28.897  -4.419  1.00  0.00    -0.234 N
ATOM     35  H12 UNL     1       8.214  28.536  -4.647  1.00  0.00     0.174 HD
ATOM     36  H11 UNL     1       9.353  29.197  -3.468  1.00  0.00     0.174 HD
ENDBRANCH  27  34
ENDBRANCH  18  19
ENDBRANCH  17  18
ENDBRANCH  16  17
ENDBRANCH  13  16
ENDBRANCH  11  12
ENDBRANCH  10  11
ENDBRANCH   1  10
BRANCH   9  37
HETATM   37  N17 UNL     1      20.834  26.130  -3.326  1.00  0.00    -0.334 N
ATOM     38 2H17 UNL     1      20.741  26.893  -3.998  1.00  0.00     0.177 HD
ATOM     39 1H17 UNL     1      21.292  25.336  -3.772  1.00  0.00     0.177 HD
ENDBRANCH   9  37
BRANCH   5  40
HETATM   40  O3  UNL     1      20.664  26.963   2.568  1.00  0.00    -0.355 OA
ATOM     41  H3  UNL     1      20.945  27.591   3.222  1.00  0.00     0.218 HD
ENDBRANCH   5  40
BRANCH   7  42
HETATM   42  N15 UNL     1      23.264  27.514  -1.491  1.00  0.00    -0.335 N
ATOM     43 2H15 UNL     1      23.997  26.851  -1.747  1.00  0.00     0.177 HD
ATOM     44 1H15 UNL     1      23.393  28.396  -1.987  1.00  0.00     0.177 HD
ENDBRANCH   7  42
BRANCH   6  45
HETATM   45  N9  UNL     1      23.381  28.032   1.432  1.00  0.00    -0.281 N
HETATM   46  C13 UNL     1      23.244  29.390   1.890  1.00  0.00     0.206 C
HETATM   47  N10 UNL     1      24.009  29.807   2.811  1.00  0.00    -0.284 N
HETATM   48  N11 UNL     1      24.967  28.973   3.376  1.00  0.00    -0.242 N
ATOM     49  H10 UNL     1      23.919  30.767   3.143  1.00  0.00     0.188 HD
HETATM   50  N12 UNL     1      25.048  27.615   3.087  1.00  0.00    -0.070 NA
ATOM     51  H11 UNL     1      25.639  29.374   4.030  1.00  0.00     0.204 HD
HETATM   52  C14 UNL     1      24.618  27.364   1.694  1.00  0.00     0.406 C
BRANCH  52  53
HETATM   53  N13 UNL     1      24.575  25.931   1.482  1.00  0.00    -0.042 N
ATOM     54 3H13 UNL     1      23.792  25.683   0.878  1.00  0.00     0.278 HD
ATOM     55 2H13 UNL     1      25.351  25.634   0.890  1.00  0.00     0.278 HD
ATOM     56 1H13 UNL     1      24.551  25.383   2.342  1.00  0.00     0.278 HD
ENDBRANCH  52  53
ENDBRANCH   6  45
TORSDOF 14
ENDMDL