MODEL 1
REMARK VINA RESULT: -9.342914186      0.000      0.000
REMARK  14 active torsions:
REMARK  status: ('A' for Active; 'I' for Inactive)
REMARK    1  A    between atoms: N1_2  and  N2_4
REMARK    2  A    between atoms: C2_5  and  C3_6
REMARK    3  A    between atoms: C5_20  and  C6_21
REMARK    4  A    between atoms: C6_21  and  O2_22
REMARK    5  A    between atoms: C6_21  and  C7_24
REMARK    6  A    between atoms: C7_24  and  N8_25
REMARK    7  A    between atoms: N11_30  and  C8_31
REMARK    8  A    between atoms: C8_31  and  C9_32
REMARK    9  A    between atoms: C9_32  and  O3_33
REMARK   10  A    between atoms: C9_32  and  C10_35
REMARK   11  A    between atoms: C12_37  and  O4_38
REMARK   12  A    between atoms: C13_40  and  O5_41
REMARK   13  A    between atoms: C14_43  and  O6_44
REMARK   14  A    between atoms: C16_47  and  N12_48
REMARK       I    between atoms: N12_48  and  C17_50
REMARK       I    between atoms: C17_50  and  N13_51
REMARK       I    between atoms: C17_50  and  N14_55
ROOT
HETATM    1  N8  UNL     1      18.531  25.305  -1.662  1.00  0.00    -0.104 N
HETATM    2  N9  UNL     1      17.771  25.119  -0.611  1.00  0.00    -0.211 N
ATOM      3  H9  UNL     1      16.759  24.987  -0.625  1.00  0.00     0.210 HD
HETATM    4  N10 UNL     1      18.528  25.129   0.468  1.00  0.00    -0.211 N
ATOM      5  H10 UNL     1      18.214  25.007   1.431  1.00  0.00     0.210 HD
HETATM    6  N11 UNL     1      19.803  25.330   0.057  1.00  0.00    -0.104 N
HETATM    7  C16 UNL     1      19.847  25.446  -1.272  1.00  0.00     0.717 A
ENDROOT
BRANCH   1   8
HETATM    8  C7  UNL     1      18.089  25.360  -3.038  1.00  0.00     0.209 C
BRANCH   8   9
HETATM    9  C6  UNL     1      16.651  25.804  -3.026  1.00  0.00     0.209 C
BRANCH   9  10
HETATM   10  C5  UNL     1      16.282  26.735  -4.094  1.00  0.00     0.150 A
HETATM   11  N2  UNL     1      15.608  27.942  -4.065  1.00  0.00    -0.223 N
HETATM   12  C2  UNL     1      15.543  28.398  -5.311  1.00  0.00     0.189 A
HETATM   13  N6  UNL     1      16.189  27.455  -6.109  1.00  0.00    -0.279 N
HETATM   14  N7  UNL     1      16.607  26.500  -5.373  1.00  0.00    -0.283 N
ATOM     15  H6  UNL     1      16.308  27.517  -7.120  1.00  0.00     0.189 HD
ATOM     16  H7  UNL     1      17.113  25.680  -5.707  1.00  0.00     0.188 HD
BRANCH  11  17
HETATM   17  N1  UNL     1      15.166  28.471  -2.877  1.00  0.00    -0.331 N
HETATM   18  C1  UNL     1      14.654  29.727  -2.476  1.00  0.00     0.168 C
ATOM     19  H1  UNL     1      15.221  27.806  -2.106  1.00  0.00     0.180 HD
ENDBRANCH  11  17
BRANCH  12  20
HETATM   20  C3  UNL     1      14.942  29.598  -5.853  1.00  0.00     0.177 A
HETATM   21  N3  UNL     1      14.979  30.898  -5.623  1.00  0.00    -0.302 N
HETATM   22  C4  UNL     1      14.190  31.610  -6.437  1.00  0.00     0.242 A
ATOM     23  H3  UNL     1      15.555  31.320  -4.893  1.00  0.00     0.171 HD
HETATM   24  N4  UNL     1      14.000  32.886  -6.474  1.00  0.00    -0.364 N
HETATM   25  O1  UNL     1      13.630  30.717  -7.215  1.00  0.00    -0.199 OA
ATOM     26  H42 UNL     1      14.436  33.581  -5.868  1.00  0.00     0.159 HD
ATOM     27  H41 UNL     1      13.398  33.429  -7.094  1.00  0.00     0.159 HD
HETATM   28  N5  UNL     1      14.048  29.523  -6.901  1.00  0.00    -0.238 N
ATOM     29  H5  UNL     1      13.758  28.660  -7.362  1.00  0.00     0.197 HD
ENDBRANCH  12  20
ENDBRANCH   9  10
BRANCH   9  30
HETATM   30  O2  UNL     1      15.815  24.694  -3.076  1.00  0.00    -0.386 OA
ATOM     31  H2  UNL     1      16.318  23.936  -3.352  1.00  0.00     0.210 HD
ENDBRANCH   9  30
ENDBRANCH   8   9
ENDBRANCH   1   8
BRANCH   7  32
HETATM   32  N12 UNL     1      20.743  25.642  -2.049  1.00  0.00    -0.171 N
HETATM   33  C17 UNL     1      22.021  25.939  -2.397  1.00  0.00     0.494 C
HETATM   34  N13 UNL     1      22.980  24.944  -1.907  1.00  0.00    -0.032 N
HETATM   35  N14 UNL     1      22.519  27.255  -2.003  1.00  0.00    -0.032 N
ATOM     36 3H13 UNL     1      22.894  24.815  -0.899  1.00  0.00     0.278 HD
ATOM     37 2H13 UNL     1      22.725  24.005  -2.214  1.00  0.00     0.278 HD
ATOM     38 1H13 UNL     1      23.941  25.167  -2.169  1.00  0.00     0.278 HD
ATOM     39 3H14 UNL     1      21.891  27.977  -2.356  1.00  0.00     0.278 HD
ATOM     40 2H14 UNL     1      22.400  27.379  -0.998  1.00  0.00     0.278 HD
ATOM     41 1H14 UNL     1      23.480  27.478  -2.265  1.00  0.00     0.278 HD
ATOM     42  H12 UNL     1      20.288  25.512  -2.953  1.00  0.00     0.181 HD
ENDBRANCH   7  32
BRANCH   6  43
HETATM   43  C8  UNL     1      20.871  25.364   1.009  1.00  0.00     0.206 C
BRANCH  43  44
HETATM   44  C9  UNL     1      20.942  26.675   1.791  1.00  0.00     0.171 C
BRANCH  44  45
HETATM   45  O3  UNL     1      20.000  27.590   1.267  1.00  0.00    -0.389 OA
ATOM     46  H3  UNL     1      20.403  28.103   0.576  1.00  0.00     0.210 HD
ENDBRANCH  44  45
BRANCH  44  47
HETATM   47  C10 UNL     1      22.306  27.220   1.665  1.00  0.00    -0.022 A
HETATM   48  C11 UNL     1      22.492  28.591   1.748  1.00  0.00     0.049 A
HETATM   49  C12 UNL     1      23.765  29.102   1.631  1.00  0.00     0.102 A
HETATM   50  C13 UNL     1      24.881  28.312   1.431  1.00  0.00     0.132 A
HETATM   51  C14 UNL     1      24.677  26.956   1.351  1.00  0.00     0.102 A
HETATM   52  C15 UNL     1      23.415  26.408   1.465  1.00  0.00     0.049 A
BRANCH  49  53
HETATM   53  O4  UNL     1      23.963  30.490   1.714  1.00  0.00    -0.358 OA
ATOM     54  H4  UNL     1      24.683  30.888   1.239  1.00  0.00     0.217 HD
ENDBRANCH  49  53
BRANCH  50  55
HETATM   55  O5  UNL     1      26.153  28.883   1.318  1.00  0.00    -0.356 OA
ATOM     56  H5  UNL     1      26.876  28.570   1.850  1.00  0.00     0.218 HD
ENDBRANCH  50  55
BRANCH  51  57
HETATM   57  O6  UNL     1      25.797  26.141   1.149  1.00  0.00    -0.358 OA
ATOM     58  H6  UNL     1      26.007  25.893   0.257  1.00  0.00     0.217 HD
ENDBRANCH  51  57
ENDBRANCH  44  47
ENDBRANCH  43  44
ENDBRANCH   6  43
TORSDOF 14
ENDMDL