MODEL 1
REMARK VINA RESULT: -6.764105189      0.000      0.000
REMARK  17 active torsions:
REMARK  status: ('A' for Active; 'I' for Inactive)
REMARK    1  A    between atoms: C2_2  and  N2_6
REMARK    2  A    between atoms: N2_6  and  C3_8
REMARK    3  A    between atoms: C4_11  and  N4_12
REMARK    4  A    between atoms: N4_12  and  N5_14
REMARK    5  A    between atoms: N5_14  and  C5_16
REMARK    6  A    between atoms: C6_18  and  C7_19
REMARK    7  A    between atoms: C7_19  and  O2_20
REMARK    8  A    between atoms: C7_19  and  O3_22
REMARK    9  A    between atoms: C8_24  and  O4_25
REMARK   10  A    between atoms: C9_27  and  O5_28
REMARK   11  A    between atoms: C10_30  and  O6_31
REMARK   12  A    between atoms: O6_31  and  C11_32
REMARK   13  A    between atoms: C11_32  and  C12_33
REMARK   14  A    between atoms: C11_32  and  C13_36
REMARK   15  A    between atoms: C12_33  and  O7_34
REMARK   16  A    between atoms: C13_36  and  O8_37
REMARK   17  A    between atoms: N6_39  and  C14_40
ROOT
HETATM    1  N5  UNL     1      20.761  27.428   1.357  1.00  0.00    -0.263 N
ATOM      2  H5  UNL     1      21.272  28.285   1.571  1.00  0.00     0.189 HD
ENDROOT
BRANCH   1   3
HETATM    3  N4  UNL     1      20.069  26.770   2.393  1.00  0.00    -0.129 N
ATOM      4  H4  UNL     1      19.084  26.962   2.577  1.00  0.00     0.205 HD
BRANCH   3   5
HETATM    5  C4  UNL     1      20.795  25.828   3.170  1.00  0.00     0.712 C
HETATM    6  N3  UNL     1      21.560  26.204   4.156  1.00  0.00    -0.184 N
HETATM    7  C3  UNL     1      22.306  25.253   4.955  1.00  0.00     0.319 C
ATOM      8  H3  UNL     1      21.636  27.198   4.373  1.00  0.00     0.181 HD
HETATM    9  N8  UNL     1      21.810  23.940   4.711  1.00  0.00    -0.278 N
HETATM   10  N7  UNL     1      21.633  23.601   3.373  1.00  0.00    -0.005 NA
ATOM     11  H8  UNL     1      21.598  23.290   5.468  1.00  0.00     0.181 HD
HETATM   12  N6  UNL     1      20.679  24.452   2.854  1.00  0.00    -0.085 N
BRANCH   7  13
HETATM   13  N2  UNL     1      23.720  25.415   4.693  1.00  0.00    -0.342 N
ATOM     14  H2  UNL     1      24.106  24.985   3.852  1.00  0.00     0.164 HD
BRANCH  13  15
HETATM   15  C2  UNL     1      24.592  26.133   5.530  1.00  0.00     0.069 C
HETATM   16  C1  UNL     1      25.349  25.490   6.633  1.00  0.00     0.088 C
HETATM   17  N1  UNL     1      24.755  27.395   5.348  1.00  0.00    -0.389 N
ATOM     18  H12 UNL     1      25.388  27.916   5.955  1.00  0.00     0.157 HD
ATOM     19  H11 UNL     1      24.235  27.837   4.590  1.00  0.00     0.157 HD
ENDBRANCH  13  15
ENDBRANCH   7  13
BRANCH  12  20
HETATM   20  C14 UNL     1      19.620  23.935   2.035  1.00  0.00     0.295 C
HETATM   21  C15 UNL     1      19.498  22.461   2.186  1.00  0.00     0.185 C
HETATM   22  O9  UNL     1      20.012  21.611   1.487  1.00  0.00    -0.293 OA
HETATM   23  C16 UNL     1      18.622  22.229   3.361  1.00  0.00     0.260 C
HETATM   24  O10 UNL     1      18.051  23.499   3.636  1.00  0.00    -0.312 OA
HETATM   25  C17 UNL     1      18.289  24.368   2.591  1.00  0.00     0.292 C
HETATM   26  O11 UNL     1      17.627  25.322   2.130  1.00  0.00    -0.262 OA
ENDBRANCH  12  20
ENDBRANCH   3   5
ENDBRANCH   1   3
BRANCH   1  27
HETATM   27  C5  UNL     1      20.768  26.982   0.153  1.00  0.00     0.200 A
HETATM   28  O1  UNL     1      19.699  26.363  -0.320  1.00  0.00    -0.286 OA
HETATM   29  C6  UNL     1      19.661  25.897  -1.545  1.00  0.00     0.145 A
HETATM   30  C8  UNL     1      20.735  26.036  -2.387  1.00  0.00     0.137 A
HETATM   31  C9  UNL     1      21.863  26.688  -1.890  1.00  0.00     0.140 A
HETATM   32  C10 UNL     1      21.923  27.178  -0.619  1.00  0.00     0.158 A
BRANCH  29  33
HETATM   33  C7  UNL     1      18.433  25.214  -2.014  1.00  0.00     0.315 C
BRANCH  33  34
HETATM   34  O2  UNL     1      17.653  24.969  -0.868  1.00  0.00    -0.365 OA
ATOM     35  H2  UNL     1      18.103  24.291  -0.378  1.00  0.00     0.213 HD
ENDBRANCH  33  34
BRANCH  33  36
HETATM   36  O3  UNL     1      17.667  26.071  -2.828  1.00  0.00    -0.365 OA
ATOM     37  H3  UNL     1      16.741  25.980  -2.632  1.00  0.00     0.213 HD
ENDBRANCH  33  36
ENDBRANCH  29  33
BRANCH  30  38
HETATM   38  O4  UNL     1      20.702  25.551  -3.669  1.00  0.00    -0.356 OA
ATOM     39  H4  UNL     1      21.194  24.777  -3.917  1.00  0.00     0.218 HD
ENDBRANCH  30  38
BRANCH  31  40
HETATM   40  O5  UNL     1      22.911  26.804  -2.766  1.00  0.00    -0.355 OA
ATOM     41  H5  UNL     1      22.801  27.451  -3.453  1.00  0.00     0.218 HD
ENDBRANCH  31  40
BRANCH  32  42
HETATM   42  O6  UNL     1      23.019  27.811  -0.122  1.00  0.00    -0.335 OA
BRANCH  42  43
HETATM   43  C11 UNL     1      24.143  27.204   0.427  1.00  0.00     0.176 C
BRANCH  43  44
HETATM   44  C12 UNL     1      24.483  27.737   1.772  1.00  0.00     0.198 C
BRANCH  44  45
HETATM   45  O7  UNL     1      23.450  27.957   2.644  1.00  0.00    -0.398 OA
ATOM     46  H7  UNL     1      23.085  28.833   2.679  1.00  0.00     0.209 HD
ENDBRANCH  44  45
ENDBRANCH  43  44
BRANCH  43  47
HETATM   47  C13 UNL     1      24.038  25.669   0.497  1.00  0.00     0.198 C
BRANCH  47  48
HETATM   48  O8  UNL     1      23.851  25.358   1.872  1.00  0.00    -0.398 OA
ATOM     49  H8  UNL     1      24.342  24.559   2.024  1.00  0.00     0.209 HD
ENDBRANCH  47  48
ENDBRANCH  43  47
ENDBRANCH  42  43
ENDBRANCH  32  42
ENDBRANCH   1  27
TORSDOF 17
ENDMDL