MODEL 2
REMARK VINA RESULT: -8.610422494      2.459     11.454
REMARK  15 active torsions:
REMARK  status: ('A' for Active; 'I' for Inactive)
REMARK    1  A    between atoms: C1_4  and  O1_5
REMARK    2  A    between atoms: C1_4  and  C17_43
REMARK    3  A    between atoms: O1_5  and  C2_6
REMARK    4  A    between atoms: C2_6  and  O2_7
REMARK    5  A    between atoms: O2_7  and  C3_8
REMARK    6  A    between atoms: C3_8  and  O3_9
REMARK    7  A    between atoms: C3_8  and  C4_11
REMARK    8  A    between atoms: C7_15  and  O5_16
REMARK    9  A    between atoms: C8_18  and  C9_19
REMARK   10  A    between atoms: C9_19  and  O6_20
REMARK   11  A    between atoms: C9_19  and  C10_22
REMARK   12  A    between atoms: C11_24  and  N2_25
REMARK   13  A    between atoms: C13_31  and  N6_32
REMARK   14  A    between atoms: N6_32  and  N7_33
REMARK   15  A    between atoms: C14_36  and  C15_37
ROOT
HETATM    1  C9  UNL     1      12.956  29.724  -6.951  1.00  0.00     0.237 C
ENDROOT
BRANCH   1   2
HETATM    2  C8  UNL     1      13.763  29.299  -5.776  1.00  0.00     0.125 A
HETATM    3  C7  UNL     1      13.960  30.163  -4.721  1.00  0.00     0.149 A
HETATM    4  C6  UNL     1      14.719  29.709  -3.661  1.00  0.00     0.210 A
HETATM    5  C5  UNL     1      15.241  28.431  -3.699  1.00  0.00     0.095 A
HETATM    6  O4  UNL     1      14.917  30.476  -2.682  1.00  0.00    -0.285 OA
HETATM    7  C4  UNL     1      15.005  27.619  -4.787  1.00  0.00     0.112 A
HETATM    8  O10 UNL     1      14.286  28.096  -5.753  1.00  0.00    -0.308 OA
BRANCH   3   9
HETATM    9  O5  UNL     1      13.410  31.458  -4.722  1.00  0.00    -0.355 OA
ATOM     10  H5  UNL     1      12.760  31.717  -5.365  1.00  0.00     0.218 HD
ENDBRANCH   3   9
BRANCH   7  11
HETATM   11  C3  UNL     1      15.579  26.230  -4.817  1.00  0.00     0.318 C
BRANCH  11  12
HETATM   12  O2  UNL     1      15.703  25.688  -3.562  1.00  0.00    -0.331 OA
BRANCH  12  13
HETATM   13  C2  UNL     1      16.952  25.105  -3.345  1.00  0.00     0.350 C
BRANCH  13  14
HETATM   14  O1  UNL     1      17.859  25.989  -2.717  1.00  0.00    -0.306 OA
BRANCH  14  15
HETATM   15  C1  UNL     1      18.731  25.610  -1.721  1.00  0.00     0.204 C
HETATM   16  N1  UNL     1      18.311  24.914  -0.730  1.00  0.00    -0.376 N
ATOM     17  H12 UNL     1      17.325  24.651  -0.698  1.00  0.00     0.158 HD
ATOM     18  H11 UNL     1      18.957  24.633   0.008  1.00  0.00     0.158 HD
BRANCH  15  19
HETATM   19  C17 UNL     1      20.143  25.987  -1.767  1.00  0.00     0.305 C
HETATM   20  N9  UNL     1      20.617  27.138  -1.083  1.00  0.00    -0.054 NA
HETATM   21  O11 UNL     1      20.950  25.279  -2.425  1.00  0.00    -0.267 OA
ENDBRANCH  15  19
ENDBRANCH  14  15
ENDBRANCH  13  14
ENDBRANCH  12  13
ENDBRANCH  11  12
BRANCH  11  22
HETATM   22  O3  UNL     1      16.836  26.246  -5.419  1.00  0.00    -0.365 OA
ATOM     23  H3  UNL     1      16.812  26.852  -6.151  1.00  0.00     0.213 HD
ENDBRANCH  11  22
ENDBRANCH   7  11
ENDBRANCH   1   2
BRANCH   1  24
HETATM   24  O6  UNL     1      13.560  29.234  -8.088  1.00  0.00    -0.382 OA
ATOM     25  H6  UNL     1      12.961  28.625  -8.503  1.00  0.00     0.211 HD
ENDBRANCH   1  24
BRANCH   1  26
HETATM   26  C10 UNL     1      11.539  29.291  -6.828  1.00  0.00     0.116 A
HETATM   27  O7  UNL     1      10.749  29.383  -5.798  1.00  0.00    -0.291 OA
HETATM   28  C11 UNL     1       9.540  28.886  -6.065  1.00  0.00     0.174 A
HETATM   29  C14 UNL     1       9.510  28.427  -7.358  1.00  0.00     0.119 A
HETATM   30  C16 UNL     1      10.808  28.698  -7.834  1.00  0.00     0.100 A
HETATM   31  N8  UNL     1      11.237  28.383  -9.159  1.00  0.00    -0.098 NA
BRANCH  28  32
HETATM   32  N2  UNL     1       8.458  28.845  -5.132  1.00  0.00    -0.263 N
HETATM   33  C12 UNL     1       8.498  28.159  -3.863  1.00  0.00     0.211 C
HETATM   34  N3  UNL     1       9.300  27.051  -3.507  1.00  0.00    -0.062 NA
HETATM   35  N4  UNL     1       7.660  28.729  -3.058  1.00  0.00    -0.274 N
HETATM   36  N5  UNL     1       7.034  29.788  -3.712  1.00  0.00    -0.093 NA
ATOM     37  H4  UNL     1       7.486  28.447  -2.094  1.00  0.00     0.185 HD
HETATM   38  C13 UNL     1       7.162  29.462  -5.151  1.00  0.00     0.322 C
BRANCH  38  39
HETATM   39  N6  UNL     1       6.078  28.562  -5.436  1.00  0.00    -0.103 NA
BRANCH  39  40
HETATM   40  N7  UNL     1       5.288  28.982  -6.495  1.00  0.00    -0.345 N
ATOM     41  H72 UNL     1       5.441  29.868  -6.977  1.00  0.00     0.172 HD
ATOM     42  H71 UNL     1       4.552  28.317  -6.731  1.00  0.00     0.172 HD
ENDBRANCH  39  40
ENDBRANCH  38  39
ENDBRANCH  28  32
BRANCH  29  43
HETATM   43  C15 UNL     1       8.455  27.794  -8.133  1.00  0.00     0.215 C
HETATM   44  O8  UNL     1       8.414  26.592  -8.455  1.00  0.00    -0.644 OA
HETATM   45  O9  UNL     1       7.381  28.571  -8.569  1.00  0.00    -0.644 OA
ENDBRANCH  29  43
ENDBRANCH   1  26
TORSDOF 15
ENDMDL