MODEL 5
REMARK VINA RESULT: -8.461982595      1.303      1.571
REMARK  17 active torsions:
REMARK  status: ('A' for Active; 'I' for Inactive)
REMARK    1  A    between atoms: C2_2  and  O2_4
REMARK    2  A    between atoms: O2_4  and  C3_5
REMARK    3  A    between atoms: C3_5  and  C4_6
REMARK    4  A    between atoms: C4_6  and  O3_7
REMARK    5  A    between atoms: C4_6  and  N1_9
REMARK    6  A    between atoms: N1_9  and  C5_11
REMARK    7  A    between atoms: C6_12  and  O4_13
REMARK    8  A    between atoms: C8_16  and  O5_17
REMARK    9  A    between atoms: C9_19  and  O6_20
REMARK   10  A    between atoms: C10_22  and  N2_23
REMARK   11  A    between atoms: N2_23  and  C11_25
REMARK   12  A    between atoms: C12_28  and  O7_29
REMARK   13  A    between atoms: C13_31  and  O8_32
REMARK   14  A    between atoms: C14_34  and  O9_35
REMARK   15  A    between atoms: C14_34  and  C15_37
REMARK   16  A    between atoms: C15_37  and  O10_38
REMARK   17  A    between atoms: C16_41  and  O12_42
ROOT
HETATM    1  C5  UNL     1      18.871  25.370  -2.489  1.00  0.00     0.141 A
HETATM    2  C6  UNL     1      18.599  25.262  -1.130  1.00  0.00     0.114 A
HETATM    3  C7  UNL     1      19.625  25.517  -0.240  1.00  0.00     0.072 A
HETATM    4  C8  UNL     1      19.384  25.417   1.124  1.00  0.00     0.117 A
HETATM    5  C9  UNL     1      20.421  25.675   2.023  1.00  0.00     0.129 A
HETATM    6  C10 UNL     1      21.677  26.026   1.584  1.00  0.00     0.104 A
HETATM    7  C16 UNL     1      21.896  26.118   0.236  1.00  0.00     0.130 A
HETATM    8  C17 UNL     1      20.869  25.865  -0.680  1.00  0.00     0.131 A
HETATM    9  O13 UNL     1      21.112  25.963  -1.984  1.00  0.00    -0.270 OA
HETATM   10  C18 UNL     1      20.155  25.726  -2.843  1.00  0.00     0.318 A
HETATM   11  O14 UNL     1      20.382  25.820  -4.095  1.00  0.00    -0.257 OA
ENDROOT
BRANCH   6  12
HETATM   12  N2  UNL     1      22.707  26.281   2.496  1.00  0.00    -0.343 N
ATOM     13  H2  UNL     1      23.207  25.468   2.857  1.00  0.00     0.164 HD
BRANCH  12  14
HETATM   14  C11 UNL     1      23.130  27.550   2.972  1.00  0.00     0.335 C
HETATM   15  N3  UNL     1      23.533  28.459   1.894  1.00  0.00    -0.329 N
HETATM   16  C12 UNL     1      23.916  29.634   2.307  1.00  0.00     0.149 C
ATOM     17  H3  UNL     1      23.514  28.196   0.909  1.00  0.00     0.165 HD
HETATM   18  C13 UNL     1      23.875  29.834   3.781  1.00  0.00     0.256 C
HETATM   19  C14 UNL     1      24.544  28.638   4.414  1.00  0.00     0.221 C
HETATM   20  O11 UNL     1      24.250  27.448   3.790  1.00  0.00    -0.308 OA
BRANCH  16  21
HETATM   21  O7  UNL     1      24.332  30.640   1.483  1.00  0.00    -0.347 OA
ATOM     22  H7  UNL     1      24.107  31.556   1.601  1.00  0.00     0.219 HD
ENDBRANCH  16  21
BRANCH  18  23
HETATM   23  O8  UNL     1      24.597  30.961   4.167  1.00  0.00    -0.382 OA
ATOM     24  H8  UNL     1      25.529  30.784   4.208  1.00  0.00     0.210 HD
ENDBRANCH  18  23
BRANCH  19  25
HETATM   25  O9  UNL     1      25.919  28.843   4.319  1.00  0.00    -0.361 OA
ATOM     26  H9  UNL     1      26.331  28.260   4.947  1.00  0.00     0.213 HD
ENDBRANCH  19  25
BRANCH  19  27
HETATM   27  C15 UNL     1      24.127  28.495   5.875  1.00  0.00     0.235 C
BRANCH  27  28
HETATM   28  O10 UNL     1      24.402  29.696   6.541  1.00  0.00    -0.395 OA
ATOM     29  H10 UNL     1      23.786  30.356   6.246  1.00  0.00     0.209 HD
ENDBRANCH  27  28
ENDBRANCH  19  27
ENDBRANCH  12  14
ENDBRANCH   6  12
BRANCH   5  30
HETATM   30  O6  UNL     1      20.236  25.590   3.378  1.00  0.00    -0.356 OA
ATOM     31  H6  UNL     1      20.677  24.931   3.902  1.00  0.00     0.218 HD
ENDBRANCH   5  30
BRANCH   7  32
HETATM   32  O12 UNL     1      23.127  26.462  -0.314  1.00  0.00    -0.356 OA
ATOM     33  H12 UNL     1      23.496  27.336  -0.258  1.00  0.00     0.218 HD
ENDBRANCH   7  32
BRANCH   4  34
HETATM   34  O5  UNL     1      18.114  25.063   1.527  1.00  0.00    -0.357 OA
ATOM     35  H5  UNL     1      18.002  24.763   2.422  1.00  0.00     0.217 HD
ENDBRANCH   4  34
BRANCH   2  36
HETATM   36  O4  UNL     1      17.362  24.916  -0.647  1.00  0.00    -0.357 OA
ATOM     37  H4  UNL     1      17.157  24.907   0.281  1.00  0.00     0.217 HD
ENDBRANCH   2  36
BRANCH   1  38
HETATM   38  N1  UNL     1      17.849  25.118  -3.415  1.00  0.00    -0.355 N
ATOM     39  H1  UNL     1      17.888  24.300  -4.024  1.00  0.00     0.162 HD
BRANCH  38  40
HETATM   40  C4  UNL     1      16.727  26.050  -3.492  1.00  0.00     0.242 C
BRANCH  40  41
HETATM   41  C3  UNL     1      16.410  26.393  -4.916  1.00  0.00     0.232 C
BRANCH  41  42
HETATM   42  O2  UNL     1      15.456  27.370  -5.070  1.00  0.00    -0.317 OA
BRANCH  42  43
HETATM   43  C2  UNL     1      15.582  28.717  -4.994  1.00  0.00     0.254 C
HETATM   44  C1  UNL     1      14.907  29.462  -3.863  1.00  0.00     0.126 C
HETATM   45  O1  UNL     1      16.238  29.361  -5.829  1.00  0.00    -0.266 OA
ENDBRANCH  42  43
ENDBRANCH  41  42
ENDBRANCH  40  41
BRANCH  40  46
HETATM   46  O3  UNL     1      15.645  25.634  -2.801  1.00  0.00    -0.375 OA
ATOM     47  H3  UNL     1      15.846  25.417  -1.898  1.00  0.00     0.212 HD
ENDBRANCH  40  46
ENDBRANCH  38  40
ENDBRANCH   1  38
TORSDOF 17
ENDMDL