MODEL 1
REMARK VINA RESULT: -8.806982344      0.000      0.000
REMARK  17 active torsions:
REMARK  status: ('A' for Active; 'I' for Inactive)
REMARK    1  A    between atoms: S1_2  and  N1_4
REMARK    2  A    between atoms: S1_2  and  C2_8
REMARK    3  A    between atoms: N1_4  and  O2_6
REMARK    4  A    between atoms: C3_11  and  C4_12
REMARK    5  A    between atoms: C4_12  and  O3_13
REMARK    6  A    between atoms: C4_12  and  N3_15
REMARK    7  A    between atoms: N3_15  and  C5_17
REMARK    8  A    between atoms: C5_17  and  C6_18
REMARK    9  A    between atoms: C6_18  and  O4_19
REMARK   10  A    between atoms: O4_19  and  N4_20
REMARK   11  A    between atoms: N4_20  and  N5_22
REMARK   12  A    between atoms: N5_22  and  N6_24
REMARK   13  A    between atoms: C7_25  and  C8_26
REMARK       I    between atoms: C8_26  and  N7_28
REMARK   14  A    between atoms: N7_28  and  N8_30
REMARK   15  A    between atoms: C10_36  and  N10_37
REMARK   16  A    between atoms: N11_40  and  N12_41
REMARK   17  A    between atoms: C11_44  and  N13_45
ROOT
HETATM    1  N6  UNL     1      23.198  27.251   0.912  1.00  0.00    -0.199 N
HETATM    2  C7  UNL     1      23.461  25.992   1.260  1.00  0.00     0.201 A
HETATM    3  N9  UNL     1      24.054  25.992   2.485  1.00  0.00    -0.330 N
ATOM      4  H9  UNL     1      24.378  25.177   3.006  1.00  0.00     0.168 HD
HETATM    5  C9  UNL     1      24.130  27.305   2.879  1.00  0.00     0.127 A
HETATM    6  C10 UNL     1      24.509  27.923   4.093  1.00  0.00     0.169 A
HETATM    7  N11 UNL     1      24.362  29.259   4.270  1.00  0.00    -0.075 N
HETATM    8  C11 UNL     1      23.844  30.051   3.297  1.00  0.00     0.700 A
HETATM    9  N14 UNL     1      23.476  29.476   2.146  1.00  0.00    -0.171 N
ATOM     10  H14 UNL     1      23.085  30.055   1.403  1.00  0.00     0.186 HD
HETATM   11  C12 UNL     1      23.611  28.129   1.943  1.00  0.00     0.176 A
ENDROOT
BRANCH   1  12
HETATM   12  N5  UNL     1      22.658  27.763  -0.184  1.00  0.00    -0.213 N
ATOM     13  H5  UNL     1      23.122  28.610  -0.513  1.00  0.00     0.211 HD
BRANCH  12  14
HETATM   14  N4  UNL     1      21.780  27.444  -0.829  1.00  0.00    -0.192 N
ATOM     15  H4  UNL     1      22.188  27.464  -1.764  1.00  0.00     0.217 HD
BRANCH  14  16
HETATM   16  O4  UNL     1      20.539  27.062  -1.078  1.00  0.00    -0.259 OA
BRANCH  16  17
HETATM   17  C6  UNL     1      20.326  25.938  -2.040  1.00  0.00     0.247 C
BRANCH  17  18
HETATM   18  C5  UNL     1      18.890  25.547  -1.711  1.00  0.00     0.087 C
BRANCH  18  19
HETATM   19  N3  UNL     1      18.072  25.012  -2.667  1.00  0.00    -0.370 N
ATOM     20  H3  UNL     1      18.484  24.491  -3.441  1.00  0.00     0.161 HD
BRANCH  19  21
HETATM   21  C4  UNL     1      16.629  25.168  -2.606  1.00  0.00     0.272 C
BRANCH  21  22
HETATM   22  C3  UNL     1      16.354  26.299  -3.594  1.00  0.00     0.101 A
HETATM   23  N2  UNL     1      15.628  27.374  -3.430  1.00  0.00    -0.331 N
HETATM   24  C2  UNL     1      15.614  28.104  -4.606  1.00  0.00     0.185 A
ATOM     25  H2  UNL     1      15.146  27.633  -2.570  1.00  0.00     0.168 HD
HETATM   26  N16 UNL     1      16.345  27.427  -5.474  1.00  0.00    -0.321 N
HETATM   27  C13 UNL     1      16.816  26.308  -4.902  1.00  0.00     0.145 A
ATOM     28  H16 UNL     1      16.524  27.713  -6.437  1.00  0.00     0.169 HD
HETATM   29  N15 UNL     1      17.558  25.342  -5.615  1.00  0.00    -0.080 NA
BRANCH  24  30
HETATM   30  S1  UNL     1      14.590  29.523  -4.877  1.00  0.00     0.103 S
HETATM   31  C1  UNL     1      12.951  29.007  -5.158  1.00  0.00     0.147 C
HETATM   32  O1  UNL     1      15.200  30.388  -5.898  1.00  0.00    -0.240 OA
BRANCH  30  33
HETATM   33  N1  UNL     1      14.675  30.353  -3.508  1.00  0.00    -0.221 N
ATOM     34  H1  UNL     1      15.051  31.300  -3.460  1.00  0.00     0.204 HD
BRANCH  33  35
HETATM   35  O2  UNL     1      14.196  29.678  -2.390  1.00  0.00    -0.282 OA
ATOM     36  H2  UNL     1      14.555  29.977  -1.562  1.00  0.00     0.245 HD
ENDBRANCH  33  35
ENDBRANCH  30  33
ENDBRANCH  24  30
ENDBRANCH  21  22
BRANCH  21  37
HETATM   37  O3  UNL     1      16.055  24.022  -3.139  1.00  0.00    -0.371 OA
ATOM     38  H3  UNL     1      15.780  23.487  -2.405  1.00  0.00     0.212 HD
ENDBRANCH  21  37
ENDBRANCH  19  21
ENDBRANCH  18  19
ENDBRANCH  17  18
ENDBRANCH  16  17
ENDBRANCH  14  16
ENDBRANCH  12  14
ENDBRANCH   1  12
BRANCH   2  39
HETATM   39  C8  UNL     1      22.838  24.745   0.668  1.00  0.00     0.305 C
HETATM   40  O5  UNL     1      22.838  24.552  -0.496  1.00  0.00    -0.263 OA
HETATM   41  N7  UNL     1      22.319  23.963   1.765  1.00  0.00    -0.270 N
ATOM     42  H7  UNL     1      22.462  24.390   2.681  1.00  0.00     0.189 HD
BRANCH  41  43
HETATM   43  N8  UNL     1      21.671  22.757   1.811  1.00  0.00    -0.342 N
ATOM     44  H82 UNL     1      20.678  22.838   1.593  1.00  0.00     0.176 HD
ATOM     45  H81 UNL     1      21.994  21.812   2.020  1.00  0.00     0.176 HD
ENDBRANCH  41  43
ENDBRANCH   2  39
BRANCH   6  46
HETATM   46  N10 UNL     1      24.936  27.200   4.993  1.00  0.00    -0.382 N
ATOM     47 2H10 UNL     1      25.925  27.187   5.241  1.00  0.00     0.157 HD
ATOM     48 1H10 UNL     1      24.259  26.637   5.508  1.00  0.00     0.157 HD
ENDBRANCH   6  46
BRANCH   8  49
HETATM   49  N13 UNL     1      23.675  31.312   3.478  1.00  0.00    -0.233 N
ATOM     50 2H13 UNL     1      24.188  31.802   4.211  1.00  0.00     0.174 HD
ATOM     51 1H13 UNL     1      23.052  31.856   2.882  1.00  0.00     0.174 HD
ENDBRANCH   8  49
BRANCH   7  52
HETATM   52  N12 UNL     1      24.662  29.831   5.468  1.00  0.00    -0.322 N
ATOM     53 2H12 UNL     1      25.401  30.532   5.493  1.00  0.00     0.178 HD
ATOM     54 1H12 UNL     1      24.119  29.599   6.300  1.00  0.00     0.178 HD
ENDBRANCH   7  52
TORSDOF 17
ENDMDL