MODEL 4
REMARK VINA RESULT: -5.493157588      2.923      3.494
REMARK  4 active torsions:
REMARK  status: ('A' for Active; 'I' for Inactive)
REMARK    1  A    between atoms: C2_2  and  C4_4
REMARK    2  A    between atoms: C8_8  and  N1_9
REMARK    3  A    between atoms: N1_9  and  O1_10
REMARK    4  A    between atoms: C9_12  and  N2_13
ROOT
HETATM    1  C4  UNL     1     101.536  99.186  79.780  1.00  0.00     0.020 C
HETATM    2  C5  UNL     1     101.091  98.493  78.544  1.00  0.00     0.007 C
HETATM    3  C6  UNL     1      99.648  98.084  78.738  1.00  0.00     0.002 C
HETATM    4  C7  UNL     1      99.369  97.336  79.986  1.00  0.00     0.026 C
HETATM    5  C8  UNL     1     100.043  97.871  81.210  1.00  0.00     0.135 C
HETATM    6  C9  UNL     1     101.470  98.303  80.967  1.00  0.00     0.181 C
ENDROOT
BRANCH   1   7
HETATM    7  C2  UNL     1     102.878  99.845  79.675  1.00  0.00    -0.016 C
HETATM    8  C1  UNL     1     103.256 100.500  80.984  1.00  0.00     0.010 C
HETATM    9  C3  UNL     1     102.994 100.845  78.581  1.00  0.00     0.010 C
ENDBRANCH   1   7
BRANCH   6  10
HETATM   10  N2  UNL     1     102.370  97.193  80.997  1.00  0.00    -0.148 N
HETATM   11  O2  UNL     1     103.271  97.016  80.152  1.00  0.00    -0.536 OA
HETATM   12  O3  UNL     1     102.280  96.250  81.988  1.00  0.00    -0.536 OA
ENDBRANCH   6  10
BRANCH   5  13
HETATM   13  N1  UNL     1      99.324  98.976  81.800  1.00  0.00    -0.097 NA
BRANCH  13  14
HETATM   14  O1  UNL     1      98.232  98.549  82.460  1.00  0.00    -0.296 OA
ATOM     15  H1  UNL     1      98.245  98.834  83.366  1.00  0.00     0.238 HD
ENDBRANCH  13  14
ENDBRANCH   5  13
TORSDOF 4
ENDMDL