MODEL 1
REMARK VINA RESULT: -6.199053898      0.000      0.000
REMARK  3 active torsions:
REMARK  status: ('A' for Active; 'I' for Inactive)
REMARK    1  A    between atoms: N1_3  and  N2_5
REMARK    2  A    between atoms: C3_7  and  C4_8
REMARK    3  A    between atoms: N3_9  and  N4_11
ROOT
HETATM    1  N4  UNL     1     101.686  99.490  79.524  1.00  0.00    -0.281 N
HETATM    2  C5  UNL     1     102.180  99.708  80.842  1.00  0.00     0.150 C
HETATM    3  C6  UNL     1     103.639 100.089  80.896  1.00  0.00     0.022 C
HETATM    4  C7  UNL     1     103.939 101.392  80.218  1.00  0.00     0.002 C
HETATM    5  C8  UNL     1     104.157 101.091  78.740  1.00  0.00     0.007 C
HETATM    6  C9  UNL     1     102.817 101.308  78.061  1.00  0.00     0.077 C
HETATM    7  C10 UNL     1     101.921 100.174  78.302  1.00  0.00     0.091 C
HETATM    8  N5  UNL     1     101.278  99.769  77.251  1.00  0.00    -0.388 N
ATOM      9  H51 UNL     1     101.447 100.260  76.373  1.00  0.00     0.157 HD
ATOM     10  H52 UNL     1     100.654  98.980  77.419  1.00  0.00     0.157 HD
ENDROOT
BRANCH   1  11
HETATM   11  N3  UNL     1     100.803  98.410  79.373  1.00  0.00    -0.307 N
HETATM   12  C4  UNL     1      99.888  98.126  80.231  1.00  0.00     0.126 C
ATOM     13  H3  UNL     1     100.890  97.823  78.544  1.00  0.00     0.186 HD
BRANCH  12  14
HETATM   14  C3  UNL     1      99.029  96.992  79.982  1.00  0.00     0.125 C
HETATM   15  N2  UNL     1      99.343  95.823  80.433  1.00  0.00    -0.311 N
ATOM     16  H2  UNL     1      98.714  95.044  80.239  1.00  0.00     0.186 HD
BRANCH  15  17
HETATM   17  N1  UNL     1     100.498  95.573  81.173  1.00  0.00    -0.317 N
HETATM   18  C2  UNL     1     100.464  94.691  82.098  1.00  0.00     0.075 C
HETATM   19  C1  UNL     1      99.232  93.955  82.377  1.00  0.00     0.056 C
ATOM     20  H1  UNL     1     101.358  96.086  80.979  1.00  0.00     0.185 HD
ENDBRANCH  15  17
ENDBRANCH  12  14
ENDBRANCH   1  11
TORSDOF 3
ENDMDL