MODEL 2
REMARK VINA RESULT: -5.408137026      2.531      4.626
REMARK  5 active torsions:
REMARK  status: ('A' for Active; 'I' for Inactive)
REMARK    1  A    between atoms: C2_2  and  C3_3
REMARK    2  A    between atoms: C3_3  and  O1_4
REMARK    3  A    between atoms: O1_4  and  N1_5
REMARK    4  A    between atoms: C7_12  and  C8_13
REMARK    5  A    between atoms: C8_13  and  O2_16
ROOT
HETATM    1  N1  UNL     1     101.435  98.695  81.762  1.00  0.00    -0.164 NA
HETATM    2  C4  UNL     1     100.627  99.622  81.105  1.00  0.00     0.114 C
HETATM    3  C5  UNL     1      99.490  98.954  80.434  1.00  0.00     0.017 C
HETATM    4  N2  UNL     1      98.601  99.550  79.817  1.00  0.00    -0.402 N
ATOM      5  H21 UNL     1      97.817  99.090  79.354  1.00  0.00     0.156 HD
ATOM      6  H22 UNL     1      98.413 100.543  79.677  1.00  0.00     0.156 HD
HETATM    7  C6  UNL     1      99.768  97.480  80.642  1.00  0.00     0.083 C
HETATM    8  C7  UNL     1     100.648  97.519  81.813  1.00  0.00     0.130 C
ENDROOT
BRANCH   8   9
HETATM    9  C8  UNL     1     101.089  96.298  82.471  1.00  0.00     0.069 C
HETATM   10  C9  UNL     1     100.535  96.252  83.855  1.00  0.00     0.047 C
HETATM   11  C10 UNL     1     100.478  95.028  81.751  1.00  0.00     0.047 C
BRANCH   9  12
HETATM   12  O2  UNL     1     102.433  95.987  82.386  1.00  0.00    -0.389 OA
ATOM     13  H2  UNL     1     102.797  95.870  81.516  1.00  0.00     0.210 HD
ENDBRANCH   9  12
ENDBRANCH   8   9
BRANCH   1  14
HETATM   14  O1  UNL     1     102.615  98.409  81.201  1.00  0.00    -0.299 OA
BRANCH  14  15
HETATM   15  C3  UNL     1     103.054  99.150  80.193  1.00  0.00     0.194 C
BRANCH  15  16
HETATM   16  C2  UNL     1     104.137 100.061  80.848  1.00  0.00     0.024 C
HETATM   17  C1  UNL     1     103.976 101.432  80.403  1.00  0.00     0.007 C
ENDBRANCH  15  16
ENDBRANCH  14  15
ENDBRANCH   1  14
TORSDOF 5
ENDMDL