MODEL 4
REMARK VINA RESULT: -6.335219975      1.618      1.618
REMARK  4 active torsions:
REMARK  status: ('A' for Active; 'I' for Inactive)
REMARK    1  A    between atoms: C2_2  and  C3_3
REMARK    2  A    between atoms: C3_3  and  C4_4
REMARK    3  A    between atoms: C3_3  and  C5_9
REMARK    4  A    between atoms: N1_5  and  O1_7
ROOT
HETATM    1  C5  UNL     1     102.155  99.994  79.985  1.00  0.00     0.025 C
HETATM    2  C6  UNL     1     103.254 100.065  81.004  1.00  0.00     0.034 C
HETATM    3  C7  UNL     1     104.418 100.873  80.668  1.00  0.00    -0.024 C
HETATM    4  C8  UNL     1     104.550 101.573  79.561  1.00  0.00     0.022 C
HETATM    5  C9  UNL     1     103.434 101.510  78.632  1.00  0.00     0.020 C
HETATM    6  N2  UNL     1     103.158 102.518  77.859  1.00  0.00    -0.401 N
ATOM      7  H21 UNL     1     102.375 102.473  77.208  1.00  0.00     0.156 HD
ATOM      8  H22 UNL     1     103.691 103.388  77.861  1.00  0.00     0.156 HD
HETATM    9  C10 UNL     1     102.658 100.243  78.630  1.00  0.00     0.147 C
HETATM   10  C11 UNL     1     101.628 100.410  77.604  1.00  0.00     0.070 C
HETATM   11  N3  UNL     1     100.824 100.559  76.777  1.00  0.00    -0.197 NA
ENDROOT
BRANCH   1  12
HETATM   12  C3  UNL     1     101.492  98.644  80.185  1.00  0.00     0.054 C
BRANCH  12  13
HETATM   13  C2  UNL     1     102.542  97.679  80.537  1.00  0.00    -0.026 C
HETATM   14  C1  UNL     1     102.497  96.549  81.163  1.00  0.00     0.007 C
ENDBRANCH  12  13
BRANCH  12  15
HETATM   15  C4  UNL     1     100.291  98.638  80.969  1.00  0.00     0.095 C
HETATM   16  N1  UNL     1      99.438  99.553  81.131  1.00  0.00    -0.284 N
ATOM     17  H1  UNL     1      99.609 100.433  80.644  1.00  0.00     0.192 HD
BRANCH  16  18
HETATM   18  O1  UNL     1      98.320  99.483  81.889  1.00  0.00    -0.291 OA
ATOM     19  H1  UNL     1      98.127 100.004  82.659  1.00  0.00     0.244 HD
ENDBRANCH  16  18
ENDBRANCH  12  15
ENDBRANCH   1  12
TORSDOF 4
ENDMDL