MODEL 5
REMARK VINA RESULT: -5.281635479      5.835      6.983
REMARK  3 active torsions:
REMARK  status: ('A' for Active; 'I' for Inactive)
REMARK    1  A    between atoms: C2_2  and  C3_3
REMARK    2  A    between atoms: C2_2  and  C4_5
REMARK       I    between atoms: C4_5  and  N1_7
REMARK    3  A    between atoms: N2_9  and  C5_11
ROOT
HETATM    1  C4  UNL     1      99.521  93.971  82.858  1.00  0.00     0.240 C
HETATM    2  O1  UNL     1     100.204  93.267  83.638  1.00  0.00    -0.271 OA
HETATM    3  N1  UNL     1      98.137  94.078  83.047  1.00  0.00    -0.272 N
ATOM      4  H1  UNL     1      97.658  94.892  82.664  1.00  0.00     0.189 HD
HETATM    5  N2  UNL     1      97.441  93.202  83.678  1.00  0.00    -0.303 N
ATOM      6  H2  UNL     1      97.885  92.374  84.075  1.00  0.00     0.182 HD
ENDROOT
BRANCH   5   7
HETATM    7  C5  UNL     1      96.018  93.409  83.817  1.00  0.00     0.298 C
HETATM    8  C6  UNL     1      95.375  92.455  84.783  1.00  0.00     0.057 C
HETATM    9  C7  UNL     1      94.231  91.858  84.005  1.00  0.00     0.031 C
HETATM   10  C8  UNL     1      93.986  92.953  82.968  1.00  0.00     0.235 C
HETATM   11  N3  UNL     1      95.363  93.172  82.520  1.00  0.00    -0.053 N
ATOM     12  H32 UNL     1      95.492  93.899  81.818  1.00  0.00     0.279 HD
ATOM     13  H31 UNL     1      95.767  92.431  81.946  1.00  0.00     0.279 HD
ENDBRANCH   5   7
BRANCH   1  14
HETATM   14  C2  UNL     1     100.189  94.678  81.747  1.00  0.00     0.085 C
HETATM   15  C1  UNL     1      99.193  95.577  81.016  1.00  0.00     0.020 C
BRANCH  14  16
HETATM   16  C3  UNL     1     101.292  95.574  82.310  1.00  0.00     0.099 C
HETATM   17  S1  UNL     1     100.528  96.961  83.198  1.00  0.00    -0.097 SA
ENDBRANCH  14  16
ENDBRANCH   1  14
TORSDOF 3
ENDMDL