MODEL 1
REMARK VINA RESULT: -4.764476539      0.000      0.000
REMARK  4 active torsions:
REMARK  status: ('A' for Active; 'I' for Inactive)
REMARK    1  A    between atoms: C2_2  and  C3_3
REMARK    2  A    between atoms: C3_3  and  N1_4
REMARK    3  A    between atoms: N2_8  and  O1_9
REMARK    4  A    between atoms: C7_12  and  O2_13
ROOT
HETATM    1  N1  UNL     1     101.611  98.202  80.342  1.00  0.00    -0.357 N
HETATM    2  C4  UNL     1     100.966  98.583  79.190  1.00  0.00     0.084 C
HETATM    3  C5  UNL     1      99.687  98.073  78.736  1.00  0.00     0.133 C
HETATM    4  C6  UNL     1      98.649  99.193  78.566  1.00  0.00     0.035 C
HETATM    5  N2  UNL     1      99.025  97.056  79.507  1.00  0.00    -0.125 NA
HETATM    6  S1  UNL     1      99.370  97.198  81.215  1.00  0.00    -0.001 SA
HETATM    7  C7  UNL     1     101.212  97.150  81.144  1.00  0.00     0.304 C
ENDROOT
BRANCH   1   8
HETATM    8  C3  UNL     1     102.115  99.319  81.124  1.00  0.00     0.125 C
BRANCH   8   9
HETATM    9  C2  UNL     1     103.516  99.702  80.700  1.00  0.00     0.015 C
HETATM   10  C1  UNL     1     103.497 101.166  80.285  1.00  0.00     0.006 C
ENDBRANCH   8   9
ENDBRANCH   1   8
BRANCH   7  11
HETATM   11  O2  UNL     1     101.625  97.111  82.437  1.00  0.00    -0.361 OA
HETATM   12  C8  UNL     1     100.544  96.702  83.243  1.00  0.00     0.205 C
ENDBRANCH   7  11
BRANCH   5  13
HETATM   13  O1  UNL     1      97.753  96.879  79.199  1.00  0.00    -0.302 OA
ATOM     14  H1  UNL     1      97.253  97.683  79.120  1.00  0.00     0.238 HD
ENDBRANCH   5  13
TORSDOF 4
ENDMDL