MODEL 2
REMARK VINA RESULT: -6.694398857      1.060      1.651
REMARK  4 active torsions:
REMARK  status: ('A' for Active; 'I' for Inactive)
REMARK    1  A    between atoms: N2_4  and  O1_5
REMARK    2  A    between atoms: N2_4  and  N3_7
REMARK    3  A    between atoms: N4_9  and  N5_11
REMARK       I    between atoms: N5_11  and  C1_13
REMARK       I    between atoms: C1_13  and  N6_15
REMARK    4  A    between atoms: N6_15  and  C2_17
ROOT
HETATM    1  N5  UNL     1     100.168  97.661  82.190  1.00  0.00    -0.236 N
ATOM      2  H5  UNL     1      99.456  98.392  82.228  1.00  0.00     0.193 HD
HETATM    3  C1  UNL     1     101.406  97.954  81.574  1.00  0.00     0.336 C
HETATM    4  O2  UNL     1     102.283  97.059  81.527  1.00  0.00    -0.246 OA
HETATM    5  N6  UNL     1     101.621  99.239  81.034  1.00  0.00    -0.337 N
ATOM      6  H6  UNL     1     100.870  99.926  81.104  1.00  0.00     0.164 HD
ENDROOT
BRANCH   1   7
HETATM    7  N4  UNL     1      99.877  96.414  82.748  1.00  0.00    -0.221 N
HETATM    8  N3  UNL     1     100.519  96.041  83.776  1.00  0.00    -0.186 N
ATOM      9  H3  UNL     1     101.227  96.665  84.164  1.00  0.00     0.214 HD
ATOM     10  H4  UNL     1      99.162  95.815  82.335  1.00  0.00     0.210 HD
BRANCH   8  11
HETATM   11  N2  UNL     1     100.297  94.818  84.395  1.00  0.00    -0.086 N
HETATM   12  N1  UNL     1      99.817  93.865  83.724  1.00  0.00    -0.302 N
ATOM     13  H12 UNL     1      99.654  92.966  84.180  1.00  0.00     0.181 HD
ATOM     14  H11 UNL     1      99.602  94.011  82.738  1.00  0.00     0.181 HD
BRANCH  11  15
HETATM   15  O1  UNL     1     100.588  94.620  85.728  1.00  0.00    -0.253 OA
ATOM     16  H1  UNL     1     100.961  95.335  86.231  1.00  0.00     0.248 HD
ENDBRANCH  11  15
ENDBRANCH   8  11
ENDBRANCH   1   7
BRANCH   5  17
HETATM   17  C2  UNL     1     102.856  99.631  80.386  1.00  0.00     0.086 C
HETATM   18  C3  UNL     1     103.687 100.527  81.296  1.00  0.00     0.025 C
HETATM   19  C4  UNL     1     105.001 100.689  80.520  1.00  0.00     0.002 C
HETATM   20  C5  UNL     1     104.704 101.644  79.401  1.00  0.00     0.000 C
HETATM   21  C6  UNL     1     103.407 101.448  78.728  1.00  0.00     0.002 C
HETATM   22  C7  UNL     1     102.613 100.258  79.069  1.00  0.00     0.025 C
ENDBRANCH   5  17
TORSDOF 4
ENDMDL