MODEL 3
REMARK VINA RESULT: -5.541726029      2.517      3.239
REMARK  4 active torsions:
REMARK  status: ('A' for Active; 'I' for Inactive)
REMARK    1  A    between atoms: S1_2  and  C2_3
REMARK    2  A    between atoms: C2_3  and  C3_4
REMARK    3  A    between atoms: C3_4  and  C4_5
REMARK    4  A    between atoms: C8_10  and  O2_11
ROOT
HETATM    1  C4  UNL     1     103.337  99.728  79.781  1.00  0.00     0.039 C
HETATM    2  C5  UNL     1     104.020  99.522  81.099  1.00  0.00     0.042 C
HETATM    3  C6  UNL     1     105.281 100.293  81.290  1.00  0.00     0.121 C
HETATM    4  C7  UNL     1     106.367  99.351  81.792  1.00  0.00     0.040 C
HETATM    5  O1  UNL     1     105.769 100.898  80.144  1.00  0.00    -0.351 OA
HETATM    6  C8  UNL     1     104.775 101.790  79.692  1.00  0.00     0.304 C
HETATM    7  C9  UNL     1     103.755 100.939  79.069  1.00  0.00     0.039 C
HETATM    8  N1  UNL     1     103.263 101.251  77.958  1.00  0.00    -0.401 N
ATOM      9  H11 UNL     1     103.554 102.093  77.462  1.00  0.00     0.155 HD
ATOM     10  H12 UNL     1     102.554 100.659  77.525  1.00  0.00     0.155 HD
ENDROOT
BRANCH   1  11
HETATM   11  C3  UNL     1     101.827  99.860  80.037  1.00  0.00     0.021 C
BRANCH  11  12
HETATM   12  C2  UNL     1     101.509  99.169  81.355  1.00  0.00     0.074 C
BRANCH  12  13
HETATM   13  S1  UNL     1     100.663  97.598  81.091  1.00  0.00    -0.173 SA
HETATM   14  C1  UNL     1     101.793  96.273  81.615  1.00  0.00     0.089 C
ENDBRANCH  12  13
ENDBRANCH  11  12
ENDBRANCH   1  11
BRANCH   6  15
HETATM   15  O2  UNL     1     105.295 102.696  78.775  1.00  0.00    -0.366 OA
ATOM     16  H2  UNL     1     105.780 103.386  79.213  1.00  0.00     0.213 HD
ENDBRANCH   6  15
TORSDOF 4
ENDMDL