MODEL 4
REMARK VINA RESULT: -4.337144037      1.895      2.490
REMARK  4 active torsions:
REMARK  status: ('A' for Active; 'I' for Inactive)
REMARK    1  A    between atoms: C2_2  and  N1_4
REMARK    2  A    between atoms: C2_2  and  C5_12
REMARK    3  A    between atoms: N1_4  and  C4_6
REMARK    4  A    between atoms: C4_6  and  N2_7
ROOT
HETATM    1  N1  UNL     1      -2.647   2.370  12.079  1.00  0.00    -0.374 N
ATOM      2  H1  UNL     1      -2.440   1.466  12.505  1.00  0.00     0.161 HD
ENDROOT
BRANCH   1   3
HETATM    3  C2  UNL     1      -3.985   2.902  11.927  1.00  0.00     0.051 C
HETATM    4  C1  UNL     1      -3.994   4.138  11.080  1.00  0.00     0.041 C
HETATM    5  C3  UNL     1      -4.793   1.834  11.263  1.00  0.00     0.041 C
BRANCH   3   6
HETATM    6  C5  UNL     1      -4.653   3.195  13.260  1.00  0.00     0.172 A
HETATM    7  C6  UNL     1      -4.507   2.432  14.445  1.00  0.00     0.202 A
HETATM    8  O1  UNL     1      -3.498   3.432  14.210  1.00  0.00    -0.379 OA
ENDBRANCH   3   6
ENDBRANCH   1   3
BRANCH   1   9
HETATM    9  C4  UNL     1      -1.640   3.267  11.559  1.00  0.00     0.193 C
BRANCH   9  10
HETATM   10  N2  UNL     1      -0.646   3.698  12.454  1.00  0.00    -0.303 N
HETATM   11  N3  UNL     1      -0.982   4.430  13.399  1.00  0.00    -0.344 N
ATOM     12  H32 UNL     1      -1.959   4.702  13.509  1.00  0.00     0.176 HD
ATOM     13  H31 UNL     1      -0.260   4.743  14.049  1.00  0.00     0.176 HD
ATOM     14  H2  UNL     1       0.326   3.417  12.330  1.00  0.00     0.187 HD
ENDBRANCH   9  10
ENDBRANCH   1   9
TORSDOF 4
ENDMDL