MODEL 4
REMARK VINA RESULT: -4.191408085      1.902      2.600
REMARK  4 active torsions:
REMARK  status: ('A' for Active; 'I' for Inactive)
REMARK       I    between atoms: C2_4  and  N3_6
REMARK    1  A    between atoms: N3_6  and  C3_8
REMARK    2  A    between atoms: C3_8  and  C4_9
REMARK    3  A    between atoms: C4_9  and  N4_10
REMARK    4  A    between atoms: C6_12  and  N5_13
ROOT
HETATM    1  C3  UNL     1      -4.497   2.244  11.635  1.00  0.00     0.152 C
ENDROOT
BRANCH   1   2
HETATM    2  N3  UNL     1      -3.743   1.550  12.659  1.00  0.00    -0.363 N
HETATM    3  C2  UNL     1      -4.062   1.758  14.021  1.00  0.00     0.183 C
HETATM    4  N1  UNL     1      -4.378   0.711  14.730  1.00  0.00    -0.369 N
HETATM    5  N2  UNL     1      -4.036   3.049  14.575  1.00  0.00    -0.064 NA
HETATM    6  C1  UNL     1      -4.703   0.919  16.125  1.00  0.00     0.148 C
ATOM      7  H1  UNL     1      -4.395  -0.221  14.317  1.00  0.00     0.161 HD
ATOM      8  H3  UNL     1      -2.986   0.917  12.399  1.00  0.00     0.162 HD
ENDBRANCH   1   2
BRANCH   1   9
HETATM    9  C4  UNL     1      -3.572   3.144  10.874  1.00  0.00     0.295 C
BRANCH   9  10
HETATM   10  N4  UNL     1      -2.258   3.228  11.434  1.00  0.00     0.126 N
HETATM   11  C5  UNL     1      -1.194   3.932  10.793  1.00  0.00     0.340 A
HETATM   12  C6  UNL     1      -1.774   4.436  12.057  1.00  0.00     0.445 A
BRANCH  12  13
HETATM   13  N5  UNL     1      -1.149   4.215  13.338  1.00  0.00    -0.046 N
ATOM     14  H53 UNL     1      -1.780   3.717  13.966  1.00  0.00     0.277 HD
ATOM     15  H52 UNL     1      -0.404   3.523  13.261  1.00  0.00     0.277 HD
ATOM     16  H51 UNL     1      -0.804   5.069  13.777  1.00  0.00     0.277 HD
ENDBRANCH  12  13
ENDBRANCH   9  10
ENDBRANCH   1   9
TORSDOF 4
ENDMDL