MODEL 2
REMARK VINA RESULT: -4.671468137      2.562      3.281
REMARK  3 active torsions:
REMARK  status: ('A' for Active; 'I' for Inactive)
REMARK    1  A    between atoms: C2_2  and  C4_4
REMARK    2  A    between atoms: C4_4  and  N2_8
REMARK       I    between atoms: N2_8  and  C5_10
REMARK    3  A    between atoms: N4_12  and  O1_14
ROOT
HETATM    1  N2  UNL     1      -1.148   4.801  12.793  1.00  0.00    -0.315 N
ATOM      2  H2  UNL     1      -0.569   5.390  12.194  1.00  0.00     0.170 HD
HETATM    3  C5  UNL     1      -1.566   3.563  12.286  1.00  0.00     0.213 C
HETATM    4  N3  UNL     1      -0.628   2.730  11.660  1.00  0.00    -0.061 NA
HETATM    5  N4  UNL     1      -2.775   3.197  12.387  1.00  0.00    -0.239 N
ATOM      6  H4  UNL     1      -3.405   3.850  12.853  1.00  0.00     0.197 HD
ENDROOT
BRANCH   1   7
HETATM    7  C4  UNL     1      -1.478   5.294  14.092  1.00  0.00     0.106 C
HETATM    8  N1  UNL     1      -1.132   4.522  15.062  1.00  0.00    -0.385 N
ATOM      9  H12 UNL     1      -1.367   4.874  15.990  1.00  0.00     0.157 HD
ATOM     10  H11 UNL     1      -0.659   3.630  14.917  1.00  0.00     0.157 HD
BRANCH   7  11
HETATM   11  C2  UNL     1      -2.148   6.557  14.297  1.00  0.00    -0.028 C
HETATM   12  C1  UNL     1      -3.292   6.799  13.712  1.00  0.00     0.022 C
HETATM   13  C3  UNL     1      -1.526   7.568  15.175  1.00  0.00     0.051 C
ENDBRANCH   7  11
ENDBRANCH   1   7
BRANCH   5  14
HETATM   14  O1  UNL     1      -3.324   2.045  11.952  1.00  0.00    -0.283 OA
HETATM   15  C6  UNL     1      -4.529   1.901  11.265  1.00  0.00     0.237 C
ENDBRANCH   5  14
TORSDOF 3
ENDMDL