MODEL 1
REMARK VINA RESULT: -4.406208418      0.000      0.000
REMARK  4 active torsions:
REMARK  status: ('A' for Active; 'I' for Inactive)
REMARK    1  A    between atoms: N2_5  and  C2_6
REMARK    2  A    between atoms: C2_6  and  C3_7
REMARK    3  A    between atoms: C3_7  and  N3_8
REMARK    4  A    between atoms: C5_13  and  N4_14
ROOT
HETATM    1  N1  UNL     1      -3.388   3.735   9.283  1.00  0.00    -0.235 N
ATOM      2  H11 UNL     1      -3.135   4.481   8.635  1.00  0.00     0.174 HD
ATOM      3  H12 UNL     1      -3.225   3.094   8.506  1.00  0.00     0.174 HD
HETATM    4  C1  UNL     1      -3.745   3.657  10.522  1.00  0.00     0.675 C
HETATM    5  N2  UNL     1      -4.101   2.610  11.432  1.00  0.00    -0.193 N
HETATM    6  C4  UNL     1      -3.570   3.416  12.479  1.00  0.00     0.252 C
HETATM    7  C5  UNL     1      -4.410   3.700  13.695  1.00  0.00     0.228 C
HETATM    8  C6  UNL     1      -4.153   5.218  13.818  1.00  0.00     0.057 C
HETATM    9  C7  UNL     1      -4.292   5.681  12.409  1.00  0.00     0.146 C
HETATM   10  N5  UNL     1      -3.970   4.542  11.598  1.00  0.00    -0.194 N
ENDROOT
BRANCH   5  11
HETATM   11  C2  UNL     1      -4.723   1.336  11.220  1.00  0.00     0.170 C
BRANCH  11  12
HETATM   12  C3  UNL     1      -4.098   0.368  12.232  1.00  0.00     0.250 C
BRANCH  12  13
HETATM   13  N3  UNL     1      -4.101  -0.984  11.772  1.00  0.00    -0.078 N
ATOM     14  H33 UNL     1      -4.481  -1.049  10.828  1.00  0.00     0.274 HD
ATOM     15  H32 UNL     1      -3.152  -1.311  11.588  1.00  0.00     0.274 HD
ATOM     16  H31 UNL     1      -4.590  -1.614  12.408  1.00  0.00     0.274 HD
ENDBRANCH  12  13
ENDBRANCH  11  12
ENDBRANCH   5  11
BRANCH   7  17
HETATM   17  N4  UNL     1      -3.828   3.129  14.900  1.00  0.00    -0.071 N
ATOM     18  H43 UNL     1      -4.451   3.237  15.700  1.00  0.00     0.274 HD
ATOM     19  H42 UNL     1      -3.803   2.110  14.854  1.00  0.00     0.274 HD
ATOM     20  H41 UNL     1      -2.904   3.514  15.093  1.00  0.00     0.274 HD
ENDBRANCH   7  17
TORSDOF 4
ENDMDL