MODEL 1
REMARK VINA RESULT: -4.890960204      0.000      0.000
REMARK  4 active torsions:
REMARK  status: ('A' for Active; 'I' for Inactive)
REMARK    1  A    between atoms: N3_4  and  C2_6
REMARK    2  A    between atoms: C2_6  and  C3_7
REMARK    3  A    between atoms: C3_7  and  N4_8
REMARK    4  A    between atoms: C6_11  and  N5_12
ROOT
HETATM    1  N4  UNL     1      -1.749   4.975  12.617  1.00  0.00     0.121 N
HETATM    2  C4  UNL     1      -2.761   6.036  12.477  1.00  0.00     0.279 C
HETATM    3  C5  UNL     1      -2.516   6.327  13.946  1.00  0.00     0.095 C
HETATM    4  C6  UNL     1      -2.202   4.833  13.984  1.00  0.00     0.418 C
ENDROOT
BRANCH   1   5
HETATM    5  C3  UNL     1      -1.991   3.837  11.759  1.00  0.00     0.294 C
BRANCH   5   6
HETATM    6  C2  UNL     1      -3.353   3.296  12.111  1.00  0.00     0.152 C
BRANCH   6   7
HETATM    7  N3  UNL     1      -3.370   1.892  12.340  1.00  0.00    -0.365 N
HETATM    8  C1  UNL     1      -4.304   1.181  11.842  1.00  0.00     0.197 C
HETATM    9  N1  UNL     1      -5.315   1.774  11.070  1.00  0.00    -0.067 NA
HETATM   10  N2  UNL     1      -4.314  -0.215  12.073  1.00  0.00    -0.067 NA
ATOM     11  H3  UNL     1      -2.637   1.456  12.900  1.00  0.00     0.161 HD
ENDBRANCH   6   7
ENDBRANCH   5   6
ENDBRANCH   1   5
BRANCH   4  12
HETATM   12  N5  UNL     1      -1.228   4.443  14.947  1.00  0.00    -0.048 N
ATOM     13  H53 UNL     1      -0.613   3.736  14.544  1.00  0.00     0.276 HD
ATOM     14  H52 UNL     1      -0.566   5.206  15.092  1.00  0.00     0.276 HD
ATOM     15  H51 UNL     1      -1.577   4.119  15.850  1.00  0.00     0.276 HD
ENDBRANCH   4  12
TORSDOF 4
ENDMDL