MODEL 2
REMARK VINA RESULT: -4.442566138      1.832      2.232
REMARK  3 active torsions:
REMARK  status: ('A' for Active; 'I' for Inactive)
REMARK    1  A    between atoms: C1_2  and  N1_3
REMARK    2  A    between atoms: C2_5  and  N2_6
REMARK    3  A    between atoms: N2_6  and  C3_8
ROOT
HETATM    1  C3  UNL     1      -3.051   4.188  13.074  1.00  0.00     0.284 C
HETATM    2  C4  UNL     1      -4.231   3.695  12.264  1.00  0.00     0.056 C
HETATM    3  C5  UNL     1      -3.581   2.849  11.182  1.00  0.00     0.031 C
HETATM    4  C6  UNL     1      -2.255   3.610  11.042  1.00  0.00     0.235 C
HETATM    5  N3  UNL     1      -1.862   3.649  12.456  1.00  0.00    -0.054 N
ATOM      6  H31 UNL     1      -1.537   2.762  12.841  1.00  0.00     0.279 HD
ATOM      7  H32 UNL     1      -1.001   4.158  12.654  1.00  0.00     0.279 HD
ENDROOT
BRANCH   1   8
HETATM    8  N2  UNL     1      -3.180   3.814  14.464  1.00  0.00    -0.359 N
ATOM      9  H2  UNL     1      -2.599   4.255  15.176  1.00  0.00     0.162 HD
BRANCH   8  10
HETATM   10  C2  UNL     1      -4.130   2.824  14.822  1.00  0.00     0.179 C
HETATM   11  N1  UNL     1      -3.819   1.801  15.532  1.00  0.00    -0.331 N
ATOM     12  H1  UNL     1      -2.851   1.710  15.843  1.00  0.00     0.168 HD
BRANCH  11  13
HETATM   13  C1  UNL     1      -4.734   0.794  15.909  1.00  0.00     0.353 C
HETATM   14  O1  UNL     1      -4.637  -0.372  15.468  1.00  0.00    -0.283 OA
ENDBRANCH  11  13
ENDBRANCH   8  10
ENDBRANCH   1   8
TORSDOF 3
ENDMDL