MODEL 2
REMARK VINA RESULT: -3.873196030      5.783      7.084
REMARK  4 active torsions:
REMARK  status: ('A' for Active; 'I' for Inactive)
REMARK    1  A    between atoms: N1_1  and  N2_4
REMARK    2  A    between atoms: C1_6  and  C2_7
REMARK    3  A    between atoms: C2_7  and  C3_8
REMARK    4  A    between atoms: C3_8  and  C4_9
ROOT
HETATM    1  C2  UNL     1      -5.036   3.801  14.295  1.00  0.00     0.048 C
ENDROOT
BRANCH   1   2
HETATM    2  C1  UNL     1      -4.509   2.723  13.427  1.00  0.00     0.079 C
HETATM    3  N2  UNL     1      -4.130   1.607  13.907  1.00  0.00    -0.322 N
ATOM      4  H2  UNL     1      -3.769   0.874  13.296  1.00  0.00     0.185 HD
BRANCH   3   5
HETATM    5  N1  UNL     1      -4.219   1.403  15.285  1.00  0.00    -0.346 N
ATOM      6  H12 UNL     1      -3.384   1.497  15.864  1.00  0.00     0.176 HD
ATOM      7  H11 UNL     1      -5.124   1.162  15.690  1.00  0.00     0.176 HD
ENDBRANCH   3   5
ENDBRANCH   1   2
BRANCH   1   8
HETATM    8  C3  UNL     1      -4.447   5.155  13.877  1.00  0.00     0.041 C
BRANCH   8   9
HETATM    9  C4  UNL     1      -3.047   4.903  13.441  1.00  0.00     0.229 C
HETATM   10  C5  UNL     1      -1.947   5.482  14.281  1.00  0.00     0.049 C
HETATM   11  C6  UNL     1      -2.331   6.925  14.365  1.00  0.00     0.038 C
HETATM   12  C8  UNL     1      -1.214   5.462  12.934  1.00  0.00     0.279 C
HETATM   13  C7  UNL     1      -2.690   7.145  12.885  1.00  0.00     0.273 C
HETATM   14  N3  UNL     1      -2.550   5.787  12.387  1.00  0.00     0.093 N
ENDBRANCH   8   9
ENDBRANCH   1   8
TORSDOF 4
ENDMDL