MODEL 4
REMARK VINA RESULT: -5.005488634      2.183      3.046
REMARK  3 active torsions:
REMARK  status: ('A' for Active; 'I' for Inactive)
REMARK       I    between atoms: N3_4  and  C2_6
REMARK    1  A    between atoms: N5_8  and  N6_10
REMARK    2  A    between atoms: N6_10  and  C3_12
REMARK    3  A    between atoms: C3_12  and  C4_13
ROOT
HETATM    1  N1  UNL     1      -5.283   1.766  11.099  1.00  0.00    -0.066 NA
HETATM    2  C1  UNL     1      -4.265   1.075  11.804  1.00  0.00     0.203 C
HETATM    3  N2  UNL     1      -4.367  -0.326  12.008  1.00  0.00    -0.066 NA
HETATM    4  N3  UNL     1      -3.266   1.736  12.245  1.00  0.00    -0.306 N
ATOM      5  H3  UNL     1      -2.535   1.240  12.753  1.00  0.00     0.170 HD
HETATM    6  C2  UNL     1      -3.139   3.124  12.056  1.00  0.00     0.208 C
HETATM    7  N4  UNL     1      -3.059   3.650  10.743  1.00  0.00    -0.062 NA
HETATM    8  N5  UNL     1      -3.098   3.903  13.064  1.00  0.00    -0.278 N
ATOM      9  H5  UNL     1      -3.160   3.486  13.993  1.00  0.00     0.189 HD
ENDROOT
BRANCH   8  10
HETATM   10  N6  UNL     1      -2.975   5.290  12.977  1.00  0.00    -0.334 N
ATOM     11  H6  UNL     1      -2.146   5.709  12.555  1.00  0.00     0.180 HD
BRANCH  10  12
HETATM   12  C3  UNL     1      -4.021   6.114  13.485  1.00  0.00     0.144 C
BRANCH  12  13
HETATM   13  C4  UNL     1      -5.342   5.384  13.628  1.00  0.00     0.005 A
HETATM   14  C5  UNL     1      -6.548   6.279  13.382  1.00  0.00     0.007 A
HETATM   15  C6  UNL     1      -6.280   5.678  14.713  1.00  0.00     0.007 A
ENDBRANCH  12  13
ENDBRANCH  10  12
ENDBRANCH   8  10
TORSDOF 3
ENDMDL