MODEL 3
REMARK VINA RESULT: -4.764586467      2.431      2.665
REMARK  3 active torsions:
REMARK  status: ('A' for Active; 'I' for Inactive)
REMARK    1  A    between atoms: C2_2  and  N1_3
REMARK       I    between atoms: C3_5  and  N3_7
REMARK    2  A    between atoms: N3_7  and  C4_9
REMARK    3  A    between atoms: C4_9  and  C5_10
ROOT
HETATM    1  N1  UNL     1      -3.275   3.514  14.222  1.00  0.00    -0.365 N
ATOM      2  H1  UNL     1      -2.421   2.998  14.433  1.00  0.00     0.162 HD
HETATM    3  C3  UNL     1      -4.423   2.934  14.255  1.00  0.00     0.184 C
HETATM    4  N2  UNL     1      -5.612   3.628  13.967  1.00  0.00    -0.064 NA
HETATM    5  N3  UNL     1      -4.484   1.555  14.591  1.00  0.00    -0.358 N
ATOM      6  H3  UNL     1      -4.699   0.879  13.859  1.00  0.00     0.162 HD
ENDROOT
BRANCH   5   7
HETATM    7  C4  UNL     1      -4.251   1.074  15.941  1.00  0.00     0.195 C
BRANCH   7   8
HETATM    8  C5  UNL     1      -5.536   0.778  16.635  1.00  0.00     0.106 C
HETATM    9  N4  UNL     1      -5.661  -0.297  17.534  1.00  0.00    -0.086 NA
HETATM   10  N5  UNL     1      -6.558   1.519  16.408  1.00  0.00    -0.385 N
HETATM   11  C6  UNL     1      -7.799   1.226  17.084  1.00  0.00     0.147 C
ATOM     12  H5  UNL     1      -6.494   2.304  15.760  1.00  0.00     0.159 HD
ENDBRANCH   7   8
ENDBRANCH   5   7
BRANCH   1  13
HETATM   13  C2  UNL     1      -3.227   4.920  13.878  1.00  0.00     0.118 C
HETATM   14  C1  UNL     1      -1.911   5.545  14.269  1.00  0.00     0.026 C
ENDBRANCH   1  13
TORSDOF 3
ENDMDL