MODEL 4
REMARK VINA RESULT: -5.181052718      2.065      2.433
REMARK  3 active torsions:
REMARK  status: ('A' for Active; 'I' for Inactive)
REMARK    1  A    between atoms: N3_4  and  N4_6
REMARK       I    between atoms: C2_8  and  N6_10
REMARK    2  A    between atoms: N6_10  and  C3_12
REMARK    3  A    between atoms: C3_12  and  C4_13
ROOT
HETATM    1  N4  UNL     1      -3.710   2.057  12.672  1.00  0.00    -0.272 N
ATOM      2  H4  UNL     1      -2.889   2.556  13.015  1.00  0.00     0.189 HD
HETATM    3  C2  UNL     1      -4.226   2.465  11.585  1.00  0.00     0.203 C
HETATM    4  N5  UNL     1      -5.358   1.812  11.072  1.00  0.00    -0.062 NA
HETATM    5  N6  UNL     1      -3.696   3.557  10.874  1.00  0.00    -0.363 N
ATOM      6  H6  UNL     1      -3.623   3.467   9.861  1.00  0.00     0.162 HD
ENDROOT
BRANCH   1   7
HETATM    7  N3  UNL     1      -4.166   0.989  13.437  1.00  0.00    -0.274 N
HETATM    8  C1  UNL     1      -4.225   0.935  14.709  1.00  0.00     0.215 C
HETATM    9  N1  UNL     1      -3.806   2.028  15.558  1.00  0.00    -0.065 NA
HETATM   10  N2  UNL     1      -4.706  -0.196  15.410  1.00  0.00    -0.065 NA
ATOM     11  H3  UNL     1      -4.487   0.165  12.928  1.00  0.00     0.189 HD
ENDBRANCH   1   7
BRANCH   5  12
HETATM   12  C3  UNL     1      -3.250   4.785  11.463  1.00  0.00     0.127 C
BRANCH  12  13
HETATM   13  C4  UNL     1      -4.336   5.534  12.183  1.00  0.00     0.003 A
HETATM   14  C5  UNL     1      -3.830   6.733  12.970  1.00  0.00     0.007 A
HETATM   15  C6  UNL     1      -4.457   5.534  13.648  1.00  0.00     0.007 A
ENDBRANCH  12  13
ENDBRANCH   5  12
TORSDOF 3
ENDMDL