MODEL 3
REMARK VINA RESULT: -6.866994879      1.065      1.436
REMARK  12 active torsions:
REMARK  status: ('A' for Active; 'I' for Inactive)
REMARK    1  A    between atoms: C2_2  and  C3_3
REMARK    2  A    between atoms: C3_3  and  C4_4
REMARK    3  A    between atoms: C4_4  and  C5_5
REMARK    4  A    between atoms: C8_8  and  S1_9
REMARK    5  A    between atoms: S1_9  and  C9_10
REMARK    6  A    between atoms: C9_10  and  C10_11
REMARK    7  A    between atoms: C10_11  and  C11_12
REMARK    8  A    between atoms: C11_12  and  C12_13
REMARK    9  A    between atoms: C12_13  and  O1_14
REMARK   10  A    between atoms: C13_18  and  N2_19
REMARK   11  A    between atoms: N2_19  and  C14_21
REMARK   12  A    between atoms: N5_33  and  C23_34
ROOT
HETATM    1  C5  UNL     1      23.249  28.573  16.745  1.00  0.00     0.014 A
HETATM    2  C6  UNL     1      24.459  28.548  16.048  1.00  0.00     0.043 A
HETATM    3  C7  UNL     1      24.299  29.312  14.934  1.00  0.00     0.045 A
HETATM    4  C8  UNL     1      25.142  29.649  13.886  1.00  0.00     0.100 A
HETATM    5  N1  UNL     1      24.694  30.431  12.917  1.00  0.00    -0.184 N
ATOM      6  H1  UNL     1      25.328  30.668  12.153  1.00  0.00     0.185 HD
HETATM    7  C13 UNL     1      23.429  30.934  12.890  1.00  0.00     0.685 A
HETATM    8  N4  UNL     1      22.620  30.603  13.907  1.00  0.00    -0.175 N
ATOM      9  H4  UNL     1      21.666  30.965  13.915  1.00  0.00     0.186 HD
HETATM   10  C22 UNL     1      23.023  29.808  14.922  1.00  0.00     0.136 A
HETATM   11  N5  UNL     1      22.398  29.335  16.054  1.00  0.00    -0.336 N
ENDROOT
BRANCH   7  12
HETATM   12  N2  UNL     1      23.114  31.666  11.913  1.00  0.00    -0.191 N
ATOM     13  H2  UNL     1      23.280  31.251  10.996  1.00  0.00     0.184 HD
BRANCH  12  14
HETATM   14  C14 UNL     1      22.577  32.948  11.883  1.00  0.00     0.062 A
HETATM   15  C15 UNL     1      21.216  33.168  11.871  1.00  0.00    -0.034 A
HETATM   16  C16 UNL     1      20.336  31.978  11.892  1.00  0.00     0.050 C
HETATM   17  C17 UNL     1      20.695  34.468  11.840  1.00  0.00     0.011 A
HETATM   18  C18 UNL     1      21.537  35.549  11.822  1.00  0.00     0.028 A
HETATM   19  C19 UNL     1      22.896  35.346  11.833  1.00  0.00     0.054 A
HETATM   20  N3  UNL     1      23.754  36.465  11.813  1.00  0.00    -0.102 NA
HETATM   21  C20 UNL     1      23.407  34.048  11.863  1.00  0.00    -0.010 A
HETATM   22  C21 UNL     1      24.898  33.943  11.874  1.00  0.00     0.052 C
ENDBRANCH  12  14
ENDBRANCH   7  12
BRANCH   4  23
HETATM   23  S1  UNL     1      26.810  29.020  13.871  1.00  0.00    -0.111 SA
BRANCH  23  24
HETATM   24  C9  UNL     1      27.834  29.900  12.663  1.00  0.00     0.081 C
BRANCH  24  25
HETATM   25  C10 UNL     1      28.134  29.030  11.459  1.00  0.00     0.013 C
BRANCH  25  26
HETATM   26  C11 UNL     1      27.240  27.804  11.448  1.00  0.00     0.027 C
BRANCH  26  27
HETATM   27  C12 UNL     1      26.292  27.819  10.287  1.00  0.00     0.164 C
BRANCH  27  28
HETATM   28  O1  UNL     1      25.594  29.011  10.149  1.00  0.00    -0.401 OA
ATOM     29  H1  UNL     1      24.886  28.970   9.517  1.00  0.00     0.209 HD
ENDBRANCH  27  28
ENDBRANCH  26  27
ENDBRANCH  25  26
ENDBRANCH  24  25
ENDBRANCH  23  24
ENDBRANCH   4  23
BRANCH  11  30
HETATM   30  C23 UNL     1      21.030  29.666  16.324  1.00  0.00     0.126 C
HETATM   31  C24 UNL     1      20.795  30.542  17.517  1.00  0.00     0.027 C
ENDBRANCH  11  30
BRANCH   1  32
HETATM   32  C4  UNL     1      23.041  27.776  17.953  1.00  0.00     0.057 C
BRANCH  32  33
HETATM   33  C3  UNL     1      23.782  28.202  19.166  1.00  0.00     0.006 C
BRANCH  33  34
HETATM   34  C2  UNL     1      23.837  29.681  19.334  1.00  0.00    -0.004 C
HETATM   35  C1  UNL     1      25.295  30.121  19.417  1.00  0.00     0.005 C
ENDBRANCH  33  34
ENDBRANCH  32  33
ENDBRANCH   1  32
TORSDOF 12
ENDMDL