MODEL 5
REMARK VINA RESULT: -8.058633096      4.276      5.950
REMARK  13 active torsions:
REMARK  status: ('A' for Active; 'I' for Inactive)
REMARK    1  A    between atoms: C7_7  and  O1_8
REMARK    2  A    between atoms: C11_14  and  C12_15
REMARK    3  A    between atoms: C12_15  and  C14_17
REMARK    4  A    between atoms: C14_17  and  C15_18
REMARK    5  A    between atoms: C15_18  and  C16_19
REMARK    6  A    between atoms: C16_19  and  C17_20
REMARK    7  A    between atoms: C17_20  and  C18_21
REMARK    8  A    between atoms: C18_21  and  C19_22
REMARK    9  A    between atoms: C19_22  and  C20_23
REMARK   10  A    between atoms: C20_23  and  C21_24
REMARK   11  A    between atoms: C21_24  and  C22_25
REMARK   12  A    between atoms: C24_27  and  O3_28
REMARK   13  A    between atoms: C25_30  and  O4_31
ROOT
HETATM    1  C14 UNL     1      20.094  33.497  13.054  1.00  0.00     0.007 C
ENDROOT
BRANCH   1   2
HETATM    2  C12 UNL     1      20.304  32.014  12.906  1.00  0.00     0.011 C
HETATM    3  C13 UNL     1      20.953  31.782  11.524  1.00  0.00     0.012 C
BRANCH   2   4
HETATM    4  C11 UNL     1      21.285  31.520  13.898  1.00  0.00     0.137 C
HETATM    5  C10 UNL     1      22.245  30.492  13.309  1.00  0.00     0.074 C
HETATM    6  C4  UNL     1      22.811  29.890  14.542  1.00  0.00    -0.021 A
HETATM    7  C3  UNL     1      21.873  30.091  15.533  1.00  0.00     0.084 A
HETATM    8  C5  UNL     1      23.984  29.233  14.840  1.00  0.00     0.027 A
HETATM    9  C2  UNL     1      22.161  29.617  16.794  1.00  0.00     0.007 A
HETATM   10  O6  UNL     1      20.773  30.779  14.980  1.00  0.00    -0.344 OA
HETATM   11  C1  UNL     1      21.172  29.816  17.890  1.00  0.00     0.054 C
HETATM   12  C9  UNL     1      23.329  28.956  17.116  1.00  0.00     0.096 A
HETATM   13  C6  UNL     1      24.263  28.759  16.112  1.00  0.00     0.034 A
HETATM   14  O2  UNL     1      23.838  28.421  18.193  1.00  0.00    -0.318 OA
HETATM   15  C7  UNL     1      25.342  28.087  16.647  1.00  0.00     0.101 A
HETATM   16  C8  UNL     1      25.014  27.899  17.973  1.00  0.00     0.179 A
BRANCH  15  17
HETATM   17  O1  UNL     1      26.507  27.680  16.015  1.00  0.00    -0.358 OA
ATOM     18  H1  UNL     1      27.358  27.501  16.399  1.00  0.00     0.217 HD
ENDBRANCH  15  17
ENDBRANCH   2   4
ENDBRANCH   1   2
BRANCH   1  19
HETATM   19  C15 UNL     1      20.485  34.335  11.887  1.00  0.00     0.000 C
BRANCH  19  20
HETATM   20  C16 UNL     1      21.440  35.452  12.255  1.00  0.00     0.000 C
BRANCH  20  21
HETATM   21  C17 UNL     1      22.811  35.095  11.768  1.00  0.00     0.000 C
BRANCH  21  22
HETATM   22  C18 UNL     1      23.637  34.496  12.875  1.00  0.00     0.000 C
BRANCH  22  23
HETATM   23  C19 UNL     1      24.359  33.268  12.407  1.00  0.00     0.000 C
BRANCH  23  24
HETATM   24  C20 UNL     1      25.671  33.071  13.150  1.00  0.00     0.002 C
BRANCH  24  25
HETATM   25  C21 UNL     1      26.116  31.631  13.168  1.00  0.00     0.032 C
BRANCH  25  26
HETATM   26  C22 UNL     1      26.373  31.224  11.730  1.00  0.00     0.124 C
HETATM   27  C23 UNL     1      27.108  29.903  11.679  1.00  0.00     0.066 C
HETATM   28  C24 UNL     1      27.036  29.435  10.223  1.00  0.00     0.151 C
HETATM   29  C25 UNL     1      27.501  30.522   9.297  1.00  0.00     0.170 C
HETATM   30  C26 UNL     1      27.054  31.891   9.692  1.00  0.00     0.202 C
HETATM   31  O5  UNL     1      27.151  32.151  11.048  1.00  0.00    -0.383 OA
BRANCH  28  32
HETATM   32  O3  UNL     1      25.714  29.074   9.997  1.00  0.00    -0.393 OA
ATOM     33  H3  UNL     1      25.573  29.160   9.062  1.00  0.00     0.210 HD
ENDBRANCH  28  32
BRANCH  29  34
HETATM   34  O4  UNL     1      26.929  30.249   8.035  1.00  0.00    -0.391 OA
ATOM     35  H4  UNL     1      27.615  29.864   7.504  1.00  0.00     0.210 HD
ENDBRANCH  29  34
ENDBRANCH  25  26
ENDBRANCH  24  25
ENDBRANCH  23  24
ENDBRANCH  22  23
ENDBRANCH  21  22
ENDBRANCH  20  21
ENDBRANCH  19  20
ENDBRANCH   1  19
TORSDOF 13
ENDMDL