MODEL 1
REMARK VINA RESULT: -7.500123513      0.000      0.000
REMARK  12 active torsions:
REMARK  status: ('A' for Active; 'I' for Inactive)
REMARK    1  A    between atoms: C2_2  and  C3_3
REMARK    2  A    between atoms: C2_2  and  C9_11
REMARK    3  A    between atoms: C3_3  and  C4_4
REMARK    4  A    between atoms: C4_4  and  C6_6
REMARK    5  A    between atoms: C6_6  and  O1_9
REMARK    6  A    between atoms: C9_11  and  C10_13
REMARK    7  A    between atoms: C10_13  and  C11_15
REMARK    8  A    between atoms: C11_15  and  C12_16
REMARK    9  A    between atoms: C12_16  and  O4_17
REMARK   10  A    between atoms: C12_16  and  C13_19
REMARK   11  A    between atoms: C13_19  and  C14_20
REMARK   12  A    between atoms: C14_20  and  C15_22
ROOT
HETATM    1  C12 UNL     1      20.958  34.551  12.363  1.00  0.00     0.132 C
ENDROOT
BRANCH   1   2
HETATM    2  C11 UNL     1      20.294  33.446  13.101  1.00  0.00     0.119 C
BRANCH   2   3
HETATM    3  C10 UNL     1      20.487  32.112  12.528  1.00  0.00     0.197 C
HETATM    4  O3  UNL     1      20.241  31.952  11.307  1.00  0.00    -0.289 OA
BRANCH   3   5
HETATM    5  C9  UNL     1      20.948  30.959  13.287  1.00  0.00     0.198 C
HETATM    6  O2  UNL     1      20.107  30.045  13.480  1.00  0.00    -0.289 OA
BRANCH   5   7
HETATM    7  C2  UNL     1      22.321  30.814  13.828  1.00  0.00     0.060 C
HETATM    8  C1  UNL     1      23.292  30.903  12.682  1.00  0.00     0.018 C
BRANCH   7   9
HETATM    9  C3  UNL     1      22.402  29.578  14.625  1.00  0.00     0.019 C
BRANCH   9  10
HETATM   10  C4  UNL     1      22.561  29.674  16.089  1.00  0.00     0.016 C
HETATM   11  C5  UNL     1      23.716  28.721  16.455  1.00  0.00     0.013 C
BRANCH  10  12
HETATM   12  C6  UNL     1      21.407  29.248  16.931  1.00  0.00     0.054 C
HETATM   13  C7  UNL     1      20.994  30.394  17.871  1.00  0.00     0.045 C
HETATM   14  C8  UNL     1      21.726  28.079  17.834  1.00  0.00     0.045 C
BRANCH  12  15
HETATM   15  O1  UNL     1      20.249  28.933  16.230  1.00  0.00    -0.390 OA
ATOM     16  H1  UNL     1      19.959  28.032  16.314  1.00  0.00     0.210 HD
ENDBRANCH  12  15
ENDBRANCH  10  12
ENDBRANCH   9  10
ENDBRANCH   7   9
ENDBRANCH   5   7
ENDBRANCH   3   5
ENDBRANCH   2   3
ENDBRANCH   1   2
BRANCH   1  17
HETATM   17  O4  UNL     1      20.234  34.819  11.204  1.00  0.00    -0.395 OA
ATOM     18  H4  UNL     1      19.873  35.696  11.262  1.00  0.00     0.210 HD
ENDBRANCH   1  17
BRANCH   1  19
HETATM   19  C13 UNL     1      22.416  34.334  12.103  1.00  0.00     0.111 C
BRANCH  19  20
HETATM   20  C14 UNL     1      23.240  35.410  12.637  1.00  0.00     0.139 C
HETATM   21  O5  UNL     1      22.649  36.476  12.729  1.00  0.00    -0.297 OA
BRANCH  20  22
HETATM   22  C15 UNL     1      24.639  35.363  13.058  1.00  0.00     0.034 C
HETATM   23  C16 UNL     1      24.959  33.967  13.531  1.00  0.00     0.025 C
HETATM   24  C17 UNL     1      24.920  36.293  14.246  1.00  0.00     0.019 C
HETATM   25  C18 UNL     1      26.284  36.048  14.781  1.00  0.00     0.010 C
HETATM   26  C19 UNL     1      27.381  36.028  13.797  1.00  0.00    -0.046 C
HETATM   27  C20 UNL     1      28.457  35.062  14.329  1.00  0.00     0.015 C
HETATM   28  C21 UNL     1      28.112  37.378  13.781  1.00  0.00     0.015 C
HETATM   29  C22 UNL     1      27.038  35.556  12.425  1.00  0.00     0.030 C
HETATM   30  C23 UNL     1      25.629  35.783  12.005  1.00  0.00     0.030 C
HETATM   31  C24 UNL     1      25.356  35.012  10.736  1.00  0.00     0.029 C
HETATM   32  S1  UNL     1      25.520  37.589  11.688  1.00  0.00    -0.086 SA
ENDBRANCH  20  22
ENDBRANCH  19  20
ENDBRANCH   1  19
TORSDOF 12
ENDMDL