MODEL 5
REMARK VINA RESULT: -6.860359833      2.691      4.479
REMARK  15 active torsions:
REMARK  status: ('A' for Active; 'I' for Inactive)
REMARK    1  A    between atoms: C2_2  and  O2_4
REMARK    2  A    between atoms: O2_4  and  C3_5
REMARK    3  A    between atoms: C3_5  and  C4_6
REMARK    4  A    between atoms: C4_6  and  C21_30
REMARK    5  A    between atoms: C5_7  and  C6_8
REMARK    6  A    between atoms: C6_8  and  C7_9
REMARK    7  A    between atoms: C6_8  and  C8_11
REMARK    8  A    between atoms: C8_11  and  O4_12
REMARK    9  A    between atoms: C8_11  and  C9_14
REMARK   10  A    between atoms: C10_15  and  C11_16
REMARK   11  A    between atoms: C13_18  and  O5_19
REMARK   12  A    between atoms: C14_21  and  O6_22
REMARK   13  A    between atoms: C15_24  and  C16_25
REMARK   14  A    between atoms: C21_30  and  C22_31
REMARK   15  A    between atoms: C22_31  and  C23_32
ROOT
HETATM    1  C8  UNL     1      21.720  32.467  11.530  1.00  0.00     0.155 C
ENDROOT
BRANCH   1   2
HETATM    2  C6  UNL     1      21.367  33.902  11.928  1.00  0.00     0.102 C
BRANCH   2   3
HETATM    3  C5  UNL     1      22.604  34.556  12.381  1.00  0.00    -0.007 C
HETATM    4  C4  UNL     1      22.897  35.833  12.361  1.00  0.00    -0.059 C
BRANCH   4   5
HETATM    5  C3  UNL     1      24.208  36.305  12.867  1.00  0.00     0.212 C
BRANCH   5   6
HETATM    6  O2  UNL     1      24.316  36.173  14.270  1.00  0.00    -0.317 OA
BRANCH   6   7
HETATM    7  C2  UNL     1      25.470  36.520  14.943  1.00  0.00     0.255 C
HETATM    8  C1  UNL     1      26.799  35.929  14.596  1.00  0.00     0.126 C
HETATM    9  O1  UNL     1      25.398  37.351  15.868  1.00  0.00    -0.266 OA
ENDBRANCH   6   7
ENDBRANCH   5   6
ENDBRANCH   4   5
BRANCH   4  10
HETATM   10  C21 UNL     1      21.954  36.837  11.844  1.00  0.00     0.040 C
BRANCH  10  11
HETATM   11  C22 UNL     1      22.625  37.541  10.673  1.00  0.00     0.031 C
BRANCH  11  12
HETATM   12  C23 UNL     1      21.597  37.889   9.660  1.00  0.00    -0.024 C
HETATM   13  C24 UNL     1      21.393  39.137   9.326  1.00  0.00    -0.091 C
HETATM   14  C25 UNL     1      20.363  39.469   8.314  1.00  0.00     0.042 C
HETATM   15  C26 UNL     1      22.184  40.219   9.953  1.00  0.00     0.042 C
ENDBRANCH  11  12
ENDBRANCH  10  11
ENDBRANCH   4  10
ENDBRANCH   2   3
BRANCH   2  16
HETATM   16  C7  UNL     1      20.433  33.758  13.104  1.00  0.00     0.242 C
HETATM   17  O3  UNL     1      19.300  34.146  12.998  1.00  0.00    -0.306 OA
ENDBRANCH   2  16
ENDBRANCH   1   2
BRANCH   1  18
HETATM   18  O4  UNL     1      20.604  31.679  11.364  1.00  0.00    -0.391 OA
ATOM     19  H4  UNL     1      20.824  30.769  11.207  1.00  0.00     0.210 HD
ENDBRANCH   1  18
BRANCH   1  20
HETATM   20  C9  UNL     1      22.579  31.860  12.599  1.00  0.00     0.006 C
HETATM   21  C10 UNL     1      22.290  30.687  13.038  1.00  0.00     0.010 C
BRANCH  21  22
HETATM   22  C11 UNL     1      23.056  30.014  14.067  1.00  0.00    -0.033 A
HETATM   23  C12 UNL     1      24.287  29.471  13.818  1.00  0.00     0.051 A
HETATM   24  C13 UNL     1      24.969  28.843  14.841  1.00  0.00     0.100 A
HETATM   25  C14 UNL     1      24.416  28.764  16.088  1.00  0.00     0.105 A
HETATM   26  C15 UNL     1      23.182  29.292  16.400  1.00  0.00    -0.014 A
HETATM   27  C20 UNL     1      22.524  29.911  15.364  1.00  0.00     0.022 A
BRANCH  24  28
HETATM   28  O5  UNL     1      26.229  28.283  14.605  1.00  0.00    -0.358 OA
ATOM     29  H5  UNL     1      26.852  28.195  15.316  1.00  0.00     0.217 HD
ENDBRANCH  24  28
BRANCH  25  30
HETATM   30  O6  UNL     1      25.136  28.125  17.081  1.00  0.00    -0.357 OA
ATOM     31  H6  UNL     1      24.977  27.199  17.223  1.00  0.00     0.217 HD
ENDBRANCH  25  30
BRANCH  26  32
HETATM   32  C16 UNL     1      22.595  29.203  17.740  1.00  0.00    -0.021 C
HETATM   33  C17 UNL     1      23.497  29.738  18.824  1.00  0.00     0.019 C
HETATM   34  C18 UNL     1      22.148  27.786  18.028  1.00  0.00     0.019 C
HETATM   35  C19 UNL     1      21.323  30.060  17.793  1.00  0.00     0.019 C
ENDBRANCH  26  32
ENDBRANCH  21  22
ENDBRANCH   1  20
TORSDOF 15
ENDMDL