MODEL 4
REMARK VINA RESULT: -6.531127734      2.384      7.052
REMARK  15 active torsions:
REMARK  status: ('A' for Active; 'I' for Inactive)
REMARK    1  A    between atoms: C2_2  and  C3_3
REMARK    2  A    between atoms: C3_3  and  C4_4
REMARK    3  A    between atoms: C4_4  and  C5_5
REMARK    4  A    between atoms: C8_10  and  C9_11
REMARK    5  A    between atoms: C9_11  and  C10_12
REMARK    6  A    between atoms: C9_11  and  O6_35
REMARK    7  A    between atoms: C10_12  and  C11_13
REMARK    8  A    between atoms: C11_13  and  O1_14
REMARK    9  A    between atoms: C11_13  and  C12_16
REMARK   10  A    between atoms: C13_17  and  O2_18
REMARK   11  A    between atoms: C14_20  and  C15_21
REMARK   12  A    between atoms: C15_21  and  O3_23
REMARK   13  A    between atoms: C19_27  and  C20_28
REMARK   14  A    between atoms: C20_28  and  O4_30
REMARK   15  A    between atoms: C22_32  and  O5_33
ROOT
HETATM    1  C12 UNL     1      24.455  29.379  14.985  1.00  0.00     0.061 A
HETATM    2  C13 UNL     1      23.373  29.769  14.315  1.00  0.00     0.094 A
HETATM    3  C14 UNL     1      22.072  29.975  14.873  1.00  0.00     0.034 A
HETATM    4  C17 UNL     1      21.930  29.745  16.223  1.00  0.00    -0.031 A
HETATM    5  C18 UNL     1      20.669  30.186  16.880  1.00  0.00     0.050 C
HETATM    6  C19 UNL     1      23.001  29.320  16.970  1.00  0.00     0.034 A
HETATM    7  C22 UNL     1      24.283  29.130  16.372  1.00  0.00     0.094 A
ENDROOT
BRANCH   1   8
HETATM    8  C11 UNL     1      25.856  29.443  14.530  1.00  0.00     0.061 C
BRANCH   8   9
HETATM    9  C10 UNL     1      26.764  30.584  14.490  1.00  0.00     0.103 C
BRANCH   9  10
HETATM   10  C9  UNL     1      26.764  31.235  13.101  1.00  0.00     0.177 C
BRANCH  10  11
HETATM   11  C8  UNL     1      26.022  32.536  13.194  1.00  0.00     0.045 A
HETATM   12  N1  UNL     1      24.724  32.700  12.901  1.00  0.00    -0.360 N
HETATM   13  C6  UNL     1      24.350  33.997  13.029  1.00  0.00     0.012 A
ATOM     14  H1  UNL     1      24.098  31.947  12.619  1.00  0.00     0.165 HD
HETATM   15  C5  UNL     1      25.441  34.697  13.421  1.00  0.00    -0.028 A
HETATM   16  C7  UNL     1      22.994  34.553  12.719  1.00  0.00     0.068 C
HETATM   17  C24 UNL     1      26.505  33.768  13.525  1.00  0.00    -0.029 A
HETATM   18  C25 UNL     1      27.869  34.152  13.948  1.00  0.00     0.051 C
BRANCH  15  19
HETATM   19  C4  UNL     1      25.588  36.119  13.773  1.00  0.00     0.041 C
BRANCH  19  20
HETATM   20  C3  UNL     1      25.220  36.388  15.187  1.00  0.00     0.004 C
BRANCH  20  21
HETATM   21  C2  UNL     1      25.949  37.538  15.809  1.00  0.00    -0.004 C
HETATM   22  C1  UNL     1      27.359  37.074  16.188  1.00  0.00     0.005 C
ENDBRANCH  20  21
ENDBRANCH  19  20
ENDBRANCH  15  19
ENDBRANCH  10  11
BRANCH  10  23
HETATM   23  O6  UNL     1      26.187  30.401  12.185  1.00  0.00    -0.384 OA
HETATM   24  C23 UNL     1      26.789  30.168  11.000  1.00  0.00     0.202 C
ENDBRANCH  10  23
ENDBRANCH   9  10
ENDBRANCH   8   9
BRANCH   8  25
HETATM   25  O1  UNL     1      26.339  28.303  14.124  1.00  0.00    -0.364 OA
ATOM     26  H1  UNL     1      26.875  27.826  14.746  1.00  0.00     0.217 HD
ENDBRANCH   8  25
ENDBRANCH   1   8
BRANCH   2  27
HETATM   27  O2  UNL     1      23.415  30.001  12.905  1.00  0.00    -0.359 OA
ATOM     28  H2  UNL     1      23.571  30.869  12.552  1.00  0.00     0.217 HD
ENDBRANCH   2  27
BRANCH   7  29
HETATM   29  O5  UNL     1      25.277  28.725  17.134  1.00  0.00    -0.359 OA
ATOM     30  H5  UNL     1      25.140  28.136  17.866  1.00  0.00     0.217 HD
ENDBRANCH   7  29
BRANCH   3  31
HETATM   31  C15 UNL     1      21.017  30.323  13.963  1.00  0.00     0.053 C
HETATM   32  C16 UNL     1      20.547  31.608  13.489  1.00  0.00     0.077 C
BRANCH  31  33
HETATM   33  O3  UNL     1      20.339  29.307  13.472  1.00  0.00    -0.364 OA
ATOM     34  H3  UNL     1      19.984  29.439  12.600  1.00  0.00     0.217 HD
ENDBRANCH  31  33
ENDBRANCH   3  31
BRANCH   6  35
HETATM   35  C20 UNL     1      22.895  28.962  18.377  1.00  0.00     0.053 C
HETATM   36  C21 UNL     1      22.500  27.753  19.072  1.00  0.00     0.077 C
BRANCH  35  37
HETATM   37  O4  UNL     1      23.231  29.926  19.192  1.00  0.00    -0.364 OA
ATOM     38  H4  UNL     1      22.737  29.930  20.004  1.00  0.00     0.217 HD
ENDBRANCH  35  37
ENDBRANCH   6  35
TORSDOF 15
ENDMDL