MODEL 1
REMARK VINA RESULT: -7.185654015      0.000      0.000
REMARK  13 active torsions:
REMARK  status: ('A' for Active; 'I' for Inactive)
REMARK    1  A    between atoms: C2_2  and  C3_3
REMARK    2  A    between atoms: C7_7  and  C9_9
REMARK    3  A    between atoms: C9_9  and  C10_10
REMARK    4  A    between atoms: C10_10  and  C11_11
REMARK    5  A    between atoms: C11_11  and  C12_12
REMARK    6  A    between atoms: C12_12  and  O1_15
REMARK    7  A    between atoms: C17_19  and  C18_20
REMARK    8  A    between atoms: C18_20  and  O2_22
REMARK    9  A    between atoms: C18_20  and  C20_24
REMARK   10  A    between atoms: C20_24  and  C21_25
REMARK   11  A    between atoms: C21_25  and  C22_26
REMARK   12  A    between atoms: C22_26  and  C23_27
REMARK   13  A    between atoms: C23_27  and  O3_30
ROOT
HETATM    1  C3  UNL     1      22.481  32.018  13.116  1.00  0.00     0.071 C
HETATM    2  C4  UNL     1      21.339  32.752  13.791  1.00  0.00     0.024 C
HETATM    3  C5  UNL     1      21.280  32.457  15.267  1.00  0.00     0.003 C
HETATM    4  C6  UNL     1      21.182  30.999  15.576  1.00  0.00     0.014 C
HETATM    5  C7  UNL     1      21.984  30.087  14.717  1.00  0.00    -0.019 C
HETATM    6  C8  UNL     1      21.101  29.340  13.761  1.00  0.00     0.020 C
HETATM    7  C15 UNL     1      22.967  30.881  13.902  1.00  0.00    -0.054 C
HETATM    8  C16 UNL     1      24.265  30.590  13.892  1.00  0.00     0.013 C
HETATM    9  C17 UNL     1      25.311  31.304  13.159  1.00  0.00     0.189 C
HETATM   10  O4  UNL     1      24.820  32.467  12.521  1.00  0.00    -0.308 OA
HETATM   11  C26 UNL     1      23.591  33.003  12.936  1.00  0.00     0.272 C
HETATM   12  O5  UNL     1      23.433  34.229  13.143  1.00  0.00    -0.264 OA
ENDROOT
BRANCH   9  13
HETATM   13  C18 UNL     1      26.071  30.464  12.144  1.00  0.00     0.084 C
HETATM   14  C19 UNL     1      27.175  31.413  11.656  1.00  0.00     0.049 C
BRANCH  13  15
HETATM   15  O2  UNL     1      25.331  30.078  11.059  1.00  0.00    -0.387 OA
ATOM     16  H2  UNL     1      25.143  30.777  10.443  1.00  0.00     0.210 HD
ENDBRANCH  13  15
BRANCH  13  17
HETATM   17  C20 UNL     1      26.690  29.269  12.778  1.00  0.00     0.040 C
BRANCH  17  18
HETATM   18  C21 UNL     1      27.668  28.470  12.039  1.00  0.00     0.006 C
BRANCH  18  19
HETATM   19  C22 UNL     1      27.338  27.114  11.569  1.00  0.00     0.037 C
BRANCH  19  20
HETATM   20  C23 UNL     1      26.966  27.116  10.066  1.00  0.00     0.051 C
HETATM   21  C24 UNL     1      27.740  28.157   9.319  1.00  0.00     0.045 C
HETATM   22  C25 UNL     1      27.400  25.749   9.550  1.00  0.00     0.045 C
BRANCH  20  23
HETATM   23  O3  UNL     1      25.595  27.248   9.903  1.00  0.00    -0.391 OA
ATOM     24  H3  UNL     1      25.366  27.248   8.981  1.00  0.00     0.210 HD
ENDBRANCH  20  23
ENDBRANCH  19  20
ENDBRANCH  18  19
ENDBRANCH  17  18
ENDBRANCH  13  17
ENDBRANCH   9  13
BRANCH   1  25
HETATM   25  C2  UNL     1      21.962  31.666  11.732  1.00  0.00     0.020 C
HETATM   26  C1  UNL     1      20.532  32.251  11.705  1.00  0.00     0.006 C
ENDBRANCH   1  25
BRANCH   5  27
HETATM   27  C9  UNL     1      22.698  29.116  15.614  1.00  0.00     0.014 C
BRANCH  27  28
HETATM   28  C10 UNL     1      22.436  29.412  17.067  1.00  0.00     0.004 C
BRANCH  28  29
HETATM   29  C11 UNL     1      22.069  28.099  17.792  1.00  0.00     0.037 C
BRANCH  29  30
HETATM   30  C12 UNL     1      23.053  27.986  18.956  1.00  0.00     0.051 C
HETATM   31  C13 UNL     1      23.810  29.259  19.171  1.00  0.00     0.045 C
HETATM   32  C14 UNL     1      23.989  26.840  18.612  1.00  0.00     0.045 C
BRANCH  30  33
HETATM   33  O1  UNL     1      22.405  27.642  20.129  1.00  0.00    -0.391 OA
ATOM     34  H1  UNL     1      22.487  28.328  20.782  1.00  0.00     0.210 HD
ENDBRANCH  30  33
ENDBRANCH  29  30
ENDBRANCH  28  29
ENDBRANCH  27  28
ENDBRANCH   5  27
TORSDOF 13
ENDMDL