MODEL 5
REMARK VINA RESULT: -6.966219197      1.287      1.891
REMARK  14 active torsions:
REMARK  status: ('A' for Active; 'I' for Inactive)
REMARK    1  A    between atoms: C2_2  and  C3_3
REMARK    2  A    between atoms: C3_3  and  C4_4
REMARK    3  A    between atoms: C8_8  and  C9_9
REMARK    4  A    between atoms: C9_9  and  C10_10
REMARK    5  A    between atoms: C10_10  and  C11_11
REMARK    6  A    between atoms: C11_11  and  C13_13
REMARK    7  A    between atoms: C15_15  and  C16_16
REMARK    8  A    between atoms: C17_19  and  S1_20
REMARK    9  A    between atoms: S1_20  and  C18_21
REMARK   10  A    between atoms: C18_21  and  C19_22
REMARK   11  A    between atoms: C19_22  and  C20_23
REMARK   12  A    between atoms: C20_23  and  C21_24
REMARK   13  A    between atoms: C21_24  and  O1_25
REMARK   14  A    between atoms: C22_29  and  N3_30
ROOT
HETATM    1  C16 UNL     1      23.070  30.944  13.755  1.00  0.00     0.086 A
HETATM    2  N1  UNL     1      23.806  31.929  13.247  1.00  0.00    -0.334 N
ATOM      3  H1  UNL     1      24.727  32.055  13.667  1.00  0.00     0.168 HD
HETATM    4  C17 UNL     1      23.503  32.760  12.275  1.00  0.00     0.146 A
HETATM    5  N2  UNL     1      22.298  32.617  11.702  1.00  0.00    -0.322 N
ATOM      6  H2  UNL     1      22.024  33.241  10.943  1.00  0.00     0.169 HD
HETATM    7  C22 UNL     1      21.459  31.674  12.110  1.00  0.00     0.124 A
HETATM    8  C23 UNL     1      21.837  30.812  13.156  1.00  0.00     0.117 A
HETATM    9  C24 UNL     1      20.853  29.835  13.504  1.00  0.00     0.105 C
HETATM   10  N4  UNL     1      20.026  29.056  13.751  1.00  0.00    -0.191 NA
ENDROOT
BRANCH   1  11
HETATM   11  C15 UNL     1      23.444  30.044  14.839  1.00  0.00     0.072 A
HETATM   12  C8  UNL     1      24.604  29.320  14.877  1.00  0.00    -0.001 A
HETATM   13  C6  UNL     1      24.910  28.586  16.062  1.00  0.00    -0.048 A
HETATM   14  C5  UNL     1      24.050  28.621  17.102  1.00  0.00     0.032 A
HETATM   15  C7  UNL     1      26.189  27.787  16.129  1.00  0.00     0.049 C
HETATM   16  C4  UNL     1      22.882  29.348  17.047  1.00  0.00     0.010 A
HETATM   17  N5  UNL     1      22.624  30.020  15.943  1.00  0.00    -0.357 N
ATOM     18  H5  UNL     1      21.759  30.558  15.904  1.00  0.00     0.166 HD
BRANCH  12  19
HETATM   19  C9  UNL     1      25.598  29.188  13.873  1.00  0.00     0.011 C
BRANCH  19  20
HETATM   20  C10 UNL     1      26.593  29.860  13.425  1.00  0.00    -0.022 C
BRANCH  20  21
HETATM   21  C11 UNL     1      27.226  30.999  14.174  1.00  0.00     0.004 C
HETATM   22  C12 UNL     1      27.549  32.142  13.250  1.00  0.00     0.014 C
BRANCH  21  23
HETATM   23  C13 UNL     1      28.474  30.590  14.903  1.00  0.00     0.003 C
HETATM   24  C14 UNL     1      28.203  30.849  16.387  1.00  0.00     0.006 C
ENDBRANCH  21  23
ENDBRANCH  20  21
ENDBRANCH  19  20
ENDBRANCH  12  19
BRANCH  16  25
HETATM   25  C3  UNL     1      21.934  29.369  18.206  1.00  0.00     0.056 C
BRANCH  25  26
HETATM   26  C2  UNL     1      20.674  30.100  17.883  1.00  0.00     0.002 C
HETATM   27  C1  UNL     1      19.618  29.057  17.545  1.00  0.00     0.005 C
ENDBRANCH  25  26
ENDBRANCH  16  25
ENDBRANCH   1  11
BRANCH   7  28
HETATM   28  N3  UNL     1      20.316  31.572  11.537  1.00  0.00    -0.384 N
ATOM     29  H32 UNL     1      19.493  31.246  12.043  1.00  0.00     0.157 HD
ATOM     30  H31 UNL     1      20.236  31.825  10.552  1.00  0.00     0.157 HD
ENDBRANCH   7  28
BRANCH   4  31
HETATM   31  S1  UNL     1      24.627  34.044  11.735  1.00  0.00    -0.094 SA
BRANCH  31  32
HETATM   32  C18 UNL     1      23.988  35.674  12.077  1.00  0.00     0.082 C
BRANCH  32  33
HETATM   33  C19 UNL     1      22.792  36.073  11.268  1.00  0.00     0.013 C
BRANCH  33  34
HETATM   34  C20 UNL     1      21.701  36.680  12.165  1.00  0.00     0.027 C
BRANCH  34  35
HETATM   35  C21 UNL     1      20.690  35.599  12.485  1.00  0.00     0.164 C
BRANCH  35  36
HETATM   36  O1  UNL     1      20.495  34.812  11.336  1.00  0.00    -0.401 OA
ATOM     37  H1  UNL     1      20.564  35.370  10.571  1.00  0.00     0.209 HD
ENDBRANCH  35  36
ENDBRANCH  34  35
ENDBRANCH  33  34
ENDBRANCH  32  33
ENDBRANCH  31  32
ENDBRANCH   4  31
TORSDOF 14
ENDMDL