MODEL 3
REMARK VINA RESULT: -7.194152494      2.201      6.178
REMARK  13 active torsions:
REMARK  status: ('A' for Active; 'I' for Inactive)
REMARK    1  A    between atoms: O1_2  and  C2_3
REMARK    2  A    between atoms: C2_3  and  C3_5
REMARK    3  A    between atoms: C4_6  and  C5_7
REMARK    4  A    between atoms: C4_6  and  C11_13
REMARK    5  A    between atoms: C5_7  and  C6_8
REMARK    6  A    between atoms: C6_8  and  C7_9
REMARK    7  A    between atoms: C11_13  and  C12_14
REMARK    8  A    between atoms: C13_15  and  O3_16
REMARK    9  A    between atoms: C14_18  and  C15_19
REMARK   10  A    between atoms: C16_22  and  O6_23
REMARK   11  A    between atoms: C17_25  and  C18_26
REMARK   12  A    between atoms: C18_26  and  C19_27
REMARK   13  A    between atoms: C23_31  and  O7_32
ROOT
HETATM    1  C12 UNL     1      23.760  29.447  15.430  1.00  0.00     0.014 A
HETATM    2  C13 UNL     1      22.419  29.594  15.846  1.00  0.00     0.095 A
HETATM    3  C14 UNL     1      22.071  29.546  17.203  1.00  0.00     0.108 A
HETATM    4  C16 UNL     1      23.080  29.347  18.157  1.00  0.00     0.094 A
HETATM    5  C17 UNL     1      24.411  29.204  17.711  1.00  0.00     0.014 A
HETATM    6  C23 UNL     1      24.715  29.256  16.380  1.00  0.00     0.086 A
ENDROOT
BRANCH   1   7
HETATM    7  C11 UNL     1      24.086  29.499  14.009  1.00  0.00     0.082 C
BRANCH   7   8
HETATM    8  C4  UNL     1      24.627  30.824  13.544  1.00  0.00    -0.051 C
HETATM    9  C3  UNL     1      23.883  31.821  13.217  1.00  0.00     0.089 C
BRANCH   9  10
HETATM   10  C2  UNL     1      22.461  32.006  13.200  1.00  0.00     0.282 C
HETATM   11  O2  UNL     1      21.954  32.743  14.141  1.00  0.00    -0.260 OA
BRANCH  10  12
HETATM   12  O1  UNL     1      21.522  31.522  12.336  1.00  0.00    -0.323 OA
HETATM   13  C1  UNL     1      20.326  32.154  12.007  1.00  0.00     0.213 C
ENDBRANCH  10  12
ENDBRANCH   9  10
BRANCH   8  14
HETATM   14  C5  UNL     1      26.091  30.861  13.478  1.00  0.00    -0.015 C
BRANCH  14  15
HETATM   15  C6  UNL     1      26.873  30.445  12.328  1.00  0.00     0.055 C
BRANCH  15  16
HETATM   16  C7  UNL     1      27.494  29.107  12.354  1.00  0.00    -0.021 C
HETATM   17  C8  UNL     1      27.036  28.124  11.607  1.00  0.00    -0.091 C
HETATM   18  C9  UNL     1      25.874  28.330  10.704  1.00  0.00     0.042 C
HETATM   19  C10 UNL     1      27.684  26.782  11.657  1.00  0.00     0.042 C
ENDBRANCH  15  16
ENDBRANCH  14  15
ENDBRANCH   8  14
ENDBRANCH   7   8
ENDBRANCH   1   7
BRANCH   2  20
HETATM   20  O3  UNL     1      21.520  29.781  14.870  1.00  0.00    -0.359 OA
ATOM     21  H3  UNL     1      20.838  30.419  15.049  1.00  0.00     0.217 HD
ENDBRANCH   2  20
BRANCH   6  22
HETATM   22  O7  UNL     1      26.032  29.112  15.991  1.00  0.00    -0.355 OA
HETATM   23  C24 UNL     1      26.676  27.884  15.728  1.00  0.00     0.210 C
ENDBRANCH   6  22
BRANCH   3  24
HETATM   24  C15 UNL     1      20.695  29.695  17.637  1.00  0.00     0.215 C
HETATM   25  O4  UNL     1      20.374  30.639  18.395  1.00  0.00    -0.644 OA
HETATM   26  O5  UNL     1      19.675  28.853  17.268  1.00  0.00    -0.644 OA
ENDBRANCH   3  24
BRANCH   5  27
HETATM   27  C18 UNL     1      25.454  29.006  18.754  1.00  0.00     0.072 C
BRANCH  27  28
HETATM   28  C19 UNL     1      25.985  30.277  19.293  1.00  0.00    -0.020 C
HETATM   29  C20 UNL     1      25.939  30.696  20.528  1.00  0.00    -0.091 C
HETATM   30  C21 UNL     1      25.342  29.987  21.686  1.00  0.00     0.042 C
HETATM   31  C22 UNL     1      26.550  32.043  20.850  1.00  0.00     0.042 C
ENDBRANCH  27  28
ENDBRANCH   5  27
BRANCH   4  32
HETATM   32  O6  UNL     1      22.835  29.286  19.464  1.00  0.00    -0.359 OA
ATOM     33  H6  UNL     1      23.524  29.290  20.118  1.00  0.00     0.217 HD
ENDBRANCH   4  32
TORSDOF 13
ENDMDL