MODEL 5
REMARK VINA RESULT: -7.185828778      1.323      2.339
REMARK  14 active torsions:
REMARK  status: ('A' for Active; 'I' for Inactive)
REMARK    1  A    between atoms: C2_2  and  O2_4
REMARK    2  A    between atoms: O2_4  and  C3_5
REMARK    3  A    between atoms: C3_5  and  C4_6
REMARK    4  A    between atoms: C4_6  and  O4_8
REMARK    5  A    between atoms: O4_8  and  C5_9
REMARK    6  A    between atoms: C7_11  and  O5_12
REMARK    7  A    between atoms: C8_14  and  C9_15
REMARK    8  A    between atoms: C9_15  and  C10_16
REMARK    9  A    between atoms: C11_17  and  C13_19
REMARK   10  A    between atoms: C13_19  and  C14_20
REMARK   11  A    between atoms: C14_20  and  C15_21
REMARK   12  A    between atoms: C19_25  and  O6_26
REMARK   13  A    between atoms: C20_28  and  C21_29
REMARK   14  A    between atoms: C21_29  and  C22_30
ROOT
HETATM    1  C5  UNL     1      21.819  31.653  14.548  1.00  0.00     0.091 A
HETATM    2  C6  UNL     1      20.974  31.707  15.662  1.00  0.00     0.075 A
HETATM    3  C7  UNL     1      21.033  30.729  16.658  1.00  0.00     0.077 A
HETATM    4  C8  UNL     1      21.937  29.732  16.500  1.00  0.00     0.012 A
HETATM    5  C19 UNL     1      22.793  29.656  15.396  1.00  0.00     0.084 A
HETATM    6  C20 UNL     1      22.720  30.646  14.407  1.00  0.00     0.013 A
ENDROOT
BRANCH   4   7
HETATM    7  C9  UNL     1      22.006  28.616  17.521  1.00  0.00     0.072 C
BRANCH   7   8
HETATM    8  C10 UNL     1      22.885  28.976  18.646  1.00  0.00    -0.020 C
HETATM    9  C11 UNL     1      24.007  28.459  19.075  1.00  0.00    -0.087 C
HETATM   10  C12 UNL     1      24.672  29.087  20.285  1.00  0.00     0.043 C
BRANCH   9  11
HETATM   11  C13 UNL     1      24.597  27.260  18.455  1.00  0.00     0.037 C
BRANCH  11  12
HETATM   12  C14 UNL     1      26.059  27.261  18.218  1.00  0.00     0.031 C
BRANCH  12  13
HETATM   13  C15 UNL     1      26.526  27.256  16.832  1.00  0.00    -0.024 C
HETATM   14  C16 UNL     1      26.848  28.322  16.131  1.00  0.00    -0.091 C
HETATM   15  C17 UNL     1      27.308  28.190  14.733  1.00  0.00     0.042 C
HETATM   16  C18 UNL     1      26.752  29.665  16.737  1.00  0.00     0.042 C
ENDBRANCH  12  13
ENDBRANCH  11  12
ENDBRANCH   9  11
ENDBRANCH   7   8
ENDBRANCH   4   7
BRANCH   3  17
HETATM   17  O5  UNL     1      20.184  30.820  17.751  1.00  0.00    -0.360 OA
ATOM     18  H5  UNL     1      20.033  31.668  18.153  1.00  0.00     0.217 HD
ENDBRANCH   3  17
BRANCH   5  19
HETATM   19  O6  UNL     1      23.671  28.617  15.324  1.00  0.00    -0.359 OA
ATOM     20  H6  UNL     1      24.598  28.799  15.420  1.00  0.00     0.217 HD
ENDBRANCH   5  19
BRANCH   6  21
HETATM   21  C21 UNL     1      23.613  30.573  13.238  1.00  0.00     0.072 C
BRANCH  21  22
HETATM   22  C22 UNL     1      25.038  30.824  13.529  1.00  0.00    -0.020 C
HETATM   23  C23 UNL     1      25.679  31.971  13.449  1.00  0.00    -0.091 C
HETATM   24  C24 UNL     1      25.099  33.275  13.042  1.00  0.00     0.042 C
HETATM   25  C25 UNL     1      27.154  31.989  13.801  1.00  0.00     0.042 C
ENDBRANCH  21  22
ENDBRANCH   6  21
BRANCH   1  26
HETATM   26  O4  UNL     1      21.701  32.654  13.601  1.00  0.00    -0.277 OA
BRANCH  26  27
HETATM   27  C4  UNL     1      20.471  32.904  12.960  1.00  0.00     0.288 C
HETATM   28  O3  UNL     1      19.873  31.869  12.552  1.00  0.00    -0.262 OA
BRANCH  27  29
HETATM   29  C3  UNL     1      19.911  34.263  12.771  1.00  0.00     0.290 C
BRANCH  29  30
HETATM   30  O2  UNL     1      20.531  35.002  11.758  1.00  0.00    -0.312 OA
BRANCH  30  31
HETATM   31  C2  UNL     1      21.483  35.953  12.006  1.00  0.00     0.255 C
HETATM   32  C1  UNL     1      22.880  35.863  11.454  1.00  0.00     0.126 C
HETATM   33  O1  UNL     1      21.190  36.939  12.717  1.00  0.00    -0.266 OA
ENDBRANCH  30  31
ENDBRANCH  29  30
ENDBRANCH  27  29
ENDBRANCH  26  27
ENDBRANCH   1  26
TORSDOF 14
ENDMDL