MODEL 1
REMARK VINA RESULT: -7.856289024      0.000      0.000
REMARK  11 active torsions:
REMARK  status: ('A' for Active; 'I' for Inactive)
REMARK    1  A    between atoms: C5_5  and  C6_6
REMARK    2  A    between atoms: C6_6  and  C7_7
REMARK    3  A    between atoms: C7_7  and  C8_8
REMARK    4  A    between atoms: C10_10  and  C11_11
REMARK    5  A    between atoms: C11_11  and  C12_12
REMARK    6  A    between atoms: C11_11  and  C15_15
REMARK    7  A    between atoms: C12_12  and  C13_13
REMARK    8  A    between atoms: C16_19  and  C17_20
REMARK    9  A    between atoms: C18_21  and  O4_22
REMARK       I    between atoms: N1_26  and  C21_27
REMARK   10  A    between atoms: C21_27  and  C22_29
REMARK   11  A    between atoms: C24_31  and  O6_32
ROOT
HETATM    1  C1  UNL     1      24.801  35.756  14.568  1.00  0.00     0.017 C
HETATM    2  C2  UNL     1      24.271  35.256  13.478  1.00  0.00    -0.048 C
HETATM    3  C3  UNL     1      24.171  33.767  13.235  1.00  0.00     0.042 C
HETATM    4  C4  UNL     1      25.533  33.171  13.178  1.00  0.00     0.017 C
HETATM    5  C5  UNL     1      23.371  33.651  11.997  1.00  0.00     0.137 C
HETATM    6  O3  UNL     1      24.136  34.317  10.995  1.00  0.00    -0.344 OA
HETATM    7  C16 UNL     1      23.661  35.631  11.067  1.00  0.00     0.109 C
HETATM    8  C24 UNL     1      23.654  36.177  12.410  1.00  0.00     0.206 C
ENDROOT
BRANCH   5   9
HETATM    9  C6  UNL     1      22.805  32.408  11.492  1.00  0.00     0.037 C
BRANCH   9  10
HETATM   10  C7  UNL     1      21.327  32.241  11.765  1.00  0.00     0.036 C
BRANCH  10  11
HETATM   11  C8  UNL     1      20.864  32.608  13.092  1.00  0.00    -0.087 C
HETATM   12  C9  UNL     1      19.990  33.907  13.089  1.00  0.00     0.043 C
HETATM   13  C10 UNL     1      21.029  32.149  14.283  1.00  0.00    -0.009 C
BRANCH  13  14
HETATM   14  C11 UNL     1      21.748  31.038  14.864  1.00  0.00     0.109 C
BRANCH  14  15
HETATM   15  C12 UNL     1      22.148  29.960  13.928  1.00  0.00     0.019 C
BRANCH  15  16
HETATM   16  C13 UNL     1      23.664  29.760  13.808  1.00  0.00    -0.003 C
HETATM   17  C14 UNL     1      24.074  29.025  15.109  1.00  0.00     0.005 C
ENDBRANCH  15  16
ENDBRANCH  14  15
BRANCH  14  18
HETATM   18  C15 UNL     1      20.869  30.533  15.984  1.00  0.00     0.180 C
HETATM   19  O1  UNL     1      20.638  31.214  17.011  1.00  0.00    -0.647 OA
HETATM   20  O2  UNL     1      20.299  29.287  15.890  1.00  0.00    -0.647 OA
ENDBRANCH  14  18
ENDBRANCH  13  14
ENDBRANCH  10  11
ENDBRANCH   9  10
ENDBRANCH   5   9
BRANCH   7  21
HETATM   21  C17 UNL     1      23.849  36.431   9.859  1.00  0.00     0.107 A
HETATM   22  C18 UNL     1      24.859  36.159   8.929  1.00  0.00     0.096 A
HETATM   23  C19 UNL     1      24.692  36.955   7.840  1.00  0.00     0.056 A
HETATM   24  C20 UNL     1      23.593  37.710   8.096  1.00  0.00     0.103 A
HETATM   25  N1  UNL     1      23.069  37.392   9.329  1.00  0.00    -0.288 N
HETATM   26  C21 UNL     1      21.857  37.995   9.783  1.00  0.00     0.228 C
HETATM   27  O5  UNL     1      21.293  37.782  10.856  1.00  0.00    -0.273 OA
BRANCH  22  28
HETATM   28  O4  UNL     1      25.887  35.201   9.111  1.00  0.00    -0.358 OA
ATOM     29  H4  UNL     1      26.817  35.392   9.072  1.00  0.00     0.217 HD
ENDBRANCH  22  28
BRANCH  26  30
HETATM   30  C22 UNL     1      21.149  39.001   8.910  1.00  0.00     0.099 C
HETATM   31  C23 UNL     1      20.147  38.209   8.059  1.00  0.00     0.014 C
ENDBRANCH  26  30
ENDBRANCH   7  21
BRANCH   8  32
HETATM   32  O6  UNL     1      22.475  36.549  13.026  1.00  0.00    -0.384 OA
ATOM     33  H6  UNL     1      22.467  37.484  12.859  1.00  0.00     0.211 HD
ENDBRANCH   8  32
TORSDOF 11
ENDMDL