MODEL 1
REMARK VINA RESULT: -8.531604236      0.000      0.000
REMARK  10 active torsions:
REMARK  status: ('A' for Active; 'I' for Inactive)
REMARK    1  A    between atoms: C2_2  and  N1_3
REMARK       I    between atoms: N1_3  and  C3_5
REMARK    2  A    between atoms: C3_5  and  C4_7
REMARK    3  A    between atoms: C4_7  and  O2_8
REMARK    4  A    between atoms: C4_7  and  C5_10
REMARK    5  A    between atoms: C5_10  and  O3_11
REMARK    6  A    between atoms: C5_10  and  C6_13
REMARK    7  A    between atoms: C6_13  and  N2_14
REMARK    8  A    between atoms: C10_18  and  N3_19
REMARK    9  A    between atoms: C13_24  and  C14_25
REMARK   10  A    between atoms: C17_37  and  N10_38
ROOT
HETATM    1  N2  UNL     1     142.915  59.873 131.380  1.00  0.00    -0.340 N
HETATM    2  C7  UNL     1     141.884  60.714 131.194  1.00  0.00     0.094 A
HETATM    3  C8  UNL     1     142.279  61.958 131.678  1.00  0.00     0.036 A
HETATM    4  C9  UNL     1     143.561  61.864 132.162  1.00  0.00     0.057 A
HETATM    5  C10 UNL     1     144.428  62.762 132.743  1.00  0.00     0.160 A
HETATM    6  N9  UNL     1     145.643  62.315 133.106  1.00  0.00    -0.174 N
ATOM      7  H9  UNL     1     146.304  62.959 133.539  1.00  0.00     0.186 HD
HETATM    8  C17 UNL     1     146.008  61.015 132.906  1.00  0.00     0.679 A
HETATM    9  N11 UNL     1     145.150  60.153 132.339  1.00  0.00    -0.176 N
ATOM     10  H11 UNL     1     145.437  59.185 132.197  1.00  0.00     0.186 HD
HETATM   11  C18 UNL     1     143.934  60.532 131.958  1.00  0.00     0.137 A
ENDROOT
BRANCH   5  12
HETATM   12  N3  UNL     1     143.985  64.105 132.922  1.00  0.00    -0.201 N
HETATM   13  N4  UNL     1     143.362  64.840 132.018  1.00  0.00    -0.293 N
HETATM   14  C11 UNL     1     143.081  66.061 132.498  1.00  0.00     0.042 A
ATOM     15  H4  UNL     1     143.125  64.520 131.078  1.00  0.00     0.187 HD
HETATM   16  C12 UNL     1     142.383  67.184 131.787  1.00  0.00     0.071 C
HETATM   17  C13 UNL     1     143.554  66.115 133.794  1.00  0.00     0.104 A
HETATM   18  C16 UNL     1     144.106  64.885 134.015  1.00  0.00     0.284 A
HETATM   19  O4  UNL     1     144.651  64.528 135.089  1.00  0.00    -0.265 OA
BRANCH  17  20
HETATM   20  C14 UNL     1     143.475  67.247 134.712  1.00  0.00     0.152 A
HETATM   21  N5  UNL     1     142.345  67.914 135.007  1.00  0.00    -0.266 N
HETATM   22  N6  UNL     1     142.658  68.879 135.878  1.00  0.00    -0.003 NA
ATOM     23  H5  UNL     1     141.417  67.718 134.633  1.00  0.00     0.186 HD
HETATM   24  N7  UNL     1     143.952  68.837 136.137  1.00  0.00    -0.221 N
HETATM   25  C15 UNL     1     144.611  69.754 137.045  1.00  0.00     0.197 C
HETATM   26  N8  UNL     1     144.448  67.839 135.424  1.00  0.00    -0.269 N
ATOM     27  H8  UNL     1     145.429  67.560 135.417  1.00  0.00     0.190 HD
ENDBRANCH  17  20
ENDBRANCH   5  12
BRANCH   8  28
HETATM   28  N10 UNL     1     147.168  60.568 133.248  1.00  0.00    -0.234 N
ATOM     29 2H10 UNL     1     147.845  60.392 132.506  1.00  0.00     0.174 HD
ATOM     30 1H10 UNL     1     147.415  60.390 134.221  1.00  0.00     0.174 HD
ENDBRANCH   8  28
BRANCH   1  31
HETATM   31  C6  UNL     1     142.923  58.473 131.014  1.00  0.00     0.164 C
BRANCH  31  32
HETATM   32  C5  UNL     1     144.083  58.149 130.096  1.00  0.00     0.174 C
BRANCH  32  33
HETATM   33  C4  UNL     1     144.682  56.798 130.416  1.00  0.00     0.240 C
BRANCH  33  34
HETATM   34  C3  UNL     1     145.916  56.638 129.608  1.00  0.00     0.249 C
HETATM   35  N1  UNL     1     146.572  57.769 129.039  1.00  0.00    -0.359 N
ATOM     36  H1  UNL     1     146.174  58.694 129.199  1.00  0.00     0.162 HD
HETATM   37  O1  UNL     1     146.421  55.507 129.399  1.00  0.00    -0.271 OA
BRANCH  35  38
HETATM   38  C2  UNL     1     147.768  57.663 128.251  1.00  0.00     0.118 C
HETATM   39  C1  UNL     1     148.760  58.769 128.601  1.00  0.00     0.026 C
ENDBRANCH  35  38
ENDBRANCH  33  34
BRANCH  33  40
HETATM   40  O2  UNL     1     143.772  55.773 130.132  1.00  0.00    -0.383 OA
ATOM     41  H2  UNL     1     144.117  54.933 130.408  1.00  0.00     0.210 HD
ENDBRANCH  33  40
ENDBRANCH  32  33
BRANCH  32  42
HETATM   42  O3  UNL     1     143.707  58.138 128.757  1.00  0.00    -0.391 OA
ATOM     43  H3  UNL     1     144.302  57.559 128.295  1.00  0.00     0.210 HD
ENDBRANCH  32  42
ENDBRANCH  31  32
ENDBRANCH   1  31
TORSDOF 10
ENDMDL