MODEL 3
REMARK VINA RESULT: -9.015673605      4.983      9.134
REMARK  8 active torsions:
REMARK  status: ('A' for Active; 'I' for Inactive)
REMARK    1  A    between atoms: C2_2  and  N1_3
REMARK    2  A    between atoms: C2_2  and  C7_20
REMARK       I    between atoms: N1_3  and  C3_5
REMARK    3  A    between atoms: C3_5  and  C4_7
REMARK    4  A    between atoms: C5_12  and  N5_13
REMARK       I    between atoms: C7_20  and  N7_22
REMARK    5  A    between atoms: N7_22  and  C8_24
REMARK    6  A    between atoms: C11_27  and  C12_28
REMARK    7  A    between atoms: C12_28  and  C13_29
REMARK    8  A    between atoms: C14_34  and  C15_35
ROOT
HETATM    1  C7  UNL     1     141.727  60.431 130.814  1.00  0.00     0.245 C
HETATM    2  O3  UNL     1     141.854  61.429 130.032  1.00  0.00    -0.271 OA
HETATM    3  N7  UNL     1     141.659  60.725 132.186  1.00  0.00    -0.310 N
ATOM      4  H7  UNL     1     140.774  60.584 132.674  1.00  0.00     0.170 HD
ENDROOT
BRANCH   3   5
HETATM    5  C8  UNL     1     142.658  61.160 132.846  1.00  0.00     0.122 A
HETATM    6  C9  UNL     1     143.404  60.310 133.616  1.00  0.00     0.052 A
HETATM    7  C10 UNL     1     144.506  60.774 134.346  1.00  0.00     0.030 A
HETATM    8  C11 UNL     1     144.800  62.101 134.259  1.00  0.00     0.032 A
HETATM    9  N12 UNL     1     144.026  62.883 133.484  1.00  0.00    -0.303 N
HETATM   10  N13 UNL     1     142.985  62.453 132.791  1.00  0.00    -0.285 N
ATOM     11  H12 UNL     1     144.257  63.875 133.428  1.00  0.00     0.186 HD
ATOM     12  H13 UNL     1     142.440  63.101 132.223  1.00  0.00     0.188 HD
BRANCH   8  13
HETATM   13  C12 UNL     1     145.937  62.734 134.978  1.00  0.00     0.124 C
BRANCH  13  14
HETATM   14  C13 UNL     1     146.742  61.641 135.616  1.00  0.00     0.074 A
HETATM   15  N8  UNL     1     147.557  60.756 135.052  1.00  0.00    -0.297 N
HETATM   16  N9  UNL     1     148.155  59.901 135.764  1.00  0.00    -0.290 N
ATOM     17  H8  UNL     1     147.700  60.766 134.042  1.00  0.00     0.187 HD
HETATM   18  C14 UNL     1     147.968  59.887 137.078  1.00  0.00     0.131 A
ATOM     19  H9  UNL     1     148.781  59.223 135.330  1.00  0.00     0.187 HD
HETATM   20  S1  UNL     1     146.871  61.182 137.267  1.00  0.00    -0.053 SA
BRANCH  18  21
HETATM   21  C15 UNL     1     148.575  58.973 138.058  1.00  0.00     0.145 C
HETATM   22  N10 UNL     1     148.107  58.907 139.256  1.00  0.00    -0.385 N
ATOM     23 2H10 UNL     1     147.315  59.492 139.519  1.00  0.00     0.157 HD
ATOM     24 1H10 UNL     1     148.528  58.272 139.936  1.00  0.00     0.157 HD
HETATM   25  N11 UNL     1     149.666  58.165 137.695  1.00  0.00    -0.080 NA
ENDBRANCH  18  21
ENDBRANCH  13  14
ENDBRANCH   8  13
ENDBRANCH   3   5
BRANCH   1  26
HETATM   26  C2  UNL     1     141.657  59.053 130.266  1.00  0.00     0.173 C
HETATM   27  C1  UNL     1     140.978  58.140 131.296  1.00  0.00     0.042 C
BRANCH  26  28
HETATM   28  N1  UNL     1     143.012  58.562 130.103  1.00  0.00    -0.343 N
HETATM   29  C3  UNL     1     143.271  57.324 129.468  1.00  0.00     0.274 C
HETATM   30  O1  UNL     1     142.291  56.652 129.043  1.00  0.00    -0.266 OA
ATOM     31  H1  UNL     1     143.792  59.119 130.452  1.00  0.00     0.163 HD
BRANCH  29  32
HETATM   32  C4  UNL     1     144.641  56.851 129.315  1.00  0.00     0.170 A
HETATM   33  N2  UNL     1     145.131  55.652 129.674  1.00  0.00    -0.274 N
HETATM   34  N3  UNL     1     146.436  55.605 129.369  1.00  0.00     0.003 NA
ATOM     35  H2  UNL     1     144.596  54.900 130.108  1.00  0.00     0.184 HD
HETATM   36  N4  UNL     1     146.803  56.761 128.814  1.00  0.00    -0.042 N
HETATM   37  C5  UNL     1     147.846  57.428 128.288  1.00  0.00     0.718 A
HETATM   38  C6  UNL     1     145.701  57.546 128.775  1.00  0.00     0.241 A
HETATM   39  N6  UNL     1     147.356  58.628 127.929  1.00  0.00    -0.088 N
HETATM   40  O2  UNL     1     146.077  58.671 128.231  1.00  0.00    -0.200 OA
ATOM     41  H6  UNL     1     147.888  59.381 127.495  1.00  0.00     0.214 HD
BRANCH  37  42
HETATM   42  N5  UNL     1     149.069  57.046 128.137  1.00  0.00    -0.231 N
ATOM     43  H52 UNL     1     149.837  57.258 128.774  1.00  0.00     0.174 HD
ATOM     44  H51 UNL     1     149.484  56.488 127.391  1.00  0.00     0.174 HD
ENDBRANCH  37  42
ENDBRANCH  29  32
ENDBRANCH  26  28
ENDBRANCH   1  26
TORSDOF 8
ENDMDL