MODEL 3
REMARK VINA RESULT: -7.798791397      1.979      2.421
REMARK  9 active torsions:
REMARK  status: ('A' for Active; 'I' for Inactive)
REMARK    1  A    between atoms: C3_5  and  O1_6
REMARK    2  A    between atoms: C4_8  and  C5_9
REMARK    3  A    between atoms: C6_12  and  C7_13
REMARK    4  A    between atoms: C7_13  and  O3_14
REMARK    5  A    between atoms: C7_13  and  C8_16
REMARK    6  A    between atoms: C8_16  and  N3_17
REMARK    7  A    between atoms: C9_18  and  N4_19
REMARK    8  A    between atoms: C10_20  and  C11_21
REMARK    9  A    between atoms: C11_21  and  O4_22
ROOT
HETATM    1  N3  UNL     1     142.133  60.957 131.566  1.00  0.00    -0.149 N
HETATM    2  C9  UNL     1     141.414  62.096 131.297  1.00  0.00     0.699 A
HETATM    3  N6  UNL     1     142.153  63.187 131.653  1.00  0.00    -0.173 N
ATOM      4  H6  UNL     1     141.855  64.159 131.564  1.00  0.00     0.186 HD
HETATM    5  C15 UNL     1     143.304  62.788 132.125  1.00  0.00     0.160 A
HETATM    6  C16 UNL     1     143.322  61.424 132.085  1.00  0.00     0.169 A
HETATM    7  C17 UNL     1     144.455  60.751 132.521  1.00  0.00     0.281 A
HETATM    8  O5  UNL     1     144.556  59.510 132.518  1.00  0.00    -0.265 OA
HETATM    9  N7  UNL     1     145.491  61.516 132.973  1.00  0.00    -0.273 N
ATOM     10  H7  UNL     1     146.337  61.050 133.302  1.00  0.00     0.173 HD
HETATM   11  C18 UNL     1     145.443  62.858 133.001  1.00  0.00     0.330 A
HETATM   12  O6  UNL     1     146.416  63.549 133.425  1.00  0.00    -0.246 OA
HETATM   13  N8  UNL     1     144.361  63.526 132.583  1.00  0.00    -0.287 N
HETATM   14  C19 UNL     1     144.313  64.979 132.615  1.00  0.00     0.163 C
ENDROOT
BRANCH   1  15
HETATM   15  C8  UNL     1     141.794  59.647 131.367  1.00  0.00     0.125 C
BRANCH  15  16
HETATM   16  C7  UNL     1     141.654  58.747 130.238  1.00  0.00     0.194 C
BRANCH  16  17
HETATM   17  C6  UNL     1     142.627  57.793 129.752  1.00  0.00     0.017 A
HETATM   18  C2  UNL     1     143.187  57.915 128.431  1.00  0.00     0.017 A
HETATM   19  C1  UNL     1     142.923  59.063 127.540  1.00  0.00     0.069 C
HETATM   20  N1  UNL     1     143.979  56.888 128.165  1.00  0.00    -0.340 N
HETATM   21  C3  UNL     1     144.011  56.065 129.195  1.00  0.00     0.156 A
ATOM     22  H1  UNL     1     144.489  56.753 127.292  1.00  0.00     0.168 HD
HETATM   23  C4  UNL     1     143.157  56.623 130.201  1.00  0.00     0.091 A
BRANCH  21  24
HETATM   24  O1  UNL     1     144.710  54.873 129.351  1.00  0.00    -0.345 OA
ATOM     25  H1  UNL     1     145.122  54.325 128.693  1.00  0.00     0.219 HD
ENDBRANCH  21  24
BRANCH  23  26
HETATM   26  C5  UNL     1     142.892  55.891 131.421  1.00  0.00     0.270 C
HETATM   27  N2  UNL     1     141.877  54.982 131.667  1.00  0.00    -0.057 NA
HETATM   28  O2  UNL     1     143.678  56.074 132.430  1.00  0.00    -0.271 OA
ENDBRANCH  23  26
ENDBRANCH  16  17
BRANCH  16  29
HETATM   29  O3  UNL     1     140.389  57.999 130.406  1.00  0.00    -0.386 OA
ATOM     30  H3  UNL     1     139.899  58.454 131.081  1.00  0.00     0.210 HD
ENDBRANCH  16  29
ENDBRANCH  15  16
ENDBRANCH   1  15
BRANCH   2  31
HETATM   31  N4  UNL     1     140.150  62.285 130.677  1.00  0.00    -0.136 N
HETATM   32  C10 UNL     1     138.965  61.997 131.236  1.00  0.00     0.074 A
HETATM   33  C12 UNL     1     137.969  62.287 130.295  1.00  0.00     0.117 A
HETATM   34  N5  UNL     1     138.584  62.733 129.211  1.00  0.00    -0.353 N
HETATM   35  C13 UNL     1     139.911  62.726 129.449  1.00  0.00     0.101 A
ATOM     36  H5  UNL     1     138.132  63.030 128.346  1.00  0.00     0.166 HD
HETATM   37  C14 UNL     1     140.898  63.109 128.365  1.00  0.00     0.090 C
BRANCH  32  38
HETATM   38  C11 UNL     1     138.648  61.405 132.582  1.00  0.00     0.223 C
BRANCH  38  39
HETATM   39  O4  UNL     1     137.380  60.823 132.531  1.00  0.00    -0.395 OA
ATOM     40  H4  UNL     1     137.078  60.668 133.418  1.00  0.00     0.209 HD
ENDBRANCH  38  39
ENDBRANCH  32  38
ENDBRANCH   2  31
TORSDOF 9
ENDMDL