MODEL 2
REMARK VINA RESULT: -8.460538057      2.319      3.198
REMARK  7 active torsions:
REMARK  status: ('A' for Active; 'I' for Inactive)
REMARK    1  A    between atoms: C2_2  and  C3_3
REMARK    2  A    between atoms: C2_2  and  N6_19
REMARK    3  A    between atoms: C3_3  and  S1_4
REMARK    4  A    between atoms: S1_4  and  C4_5
REMARK    5  A    between atoms: C8_13  and  N4_14
REMARK    6  A    between atoms: N6_19  and  C9_21
REMARK    7  A    between atoms: C11_26  and  C12_27
ROOT
HETATM    1  C4  UNL     1     141.133  58.422 130.079  1.00  0.00     0.147 A
HETATM    2  N1  UNL     1     142.016  57.492 129.674  1.00  0.00    -0.324 N
ATOM      3  H1  UNL     1     142.285  57.463 128.690  1.00  0.00     0.169 HD
HETATM    4  C5  UNL     1     142.563  56.588 130.532  1.00  0.00     0.142 A
HETATM    5  N2  UNL     1     143.486  55.615 130.100  1.00  0.00    -0.081 NA
HETATM    6  C6  UNL     1     142.211  56.622 131.843  1.00  0.00     0.129 A
HETATM    7  C7  UNL     1     142.734  55.708 132.829  1.00  0.00     0.106 C
HETATM    8  N3  UNL     1     143.167  54.983 133.612  1.00  0.00    -0.191 NA
HETATM    9  C8  UNL     1     141.306  57.570 132.284  1.00  0.00     0.125 A
HETATM   10  N5  UNL     1     140.812  58.422 131.380  1.00  0.00    -0.322 N
ATOM     11  H5  UNL     1     140.144  59.122 131.703  1.00  0.00     0.169 HD
ENDROOT
BRANCH   9  12
HETATM   12  N4  UNL     1     140.939  57.644 133.518  1.00  0.00    -0.384 N
ATOM     13  H42 UNL     1     140.390  56.894 133.938  1.00  0.00     0.157 HD
ATOM     14  H41 UNL     1     141.181  58.440 134.108  1.00  0.00     0.157 HD
ENDBRANCH   9  12
BRANCH   1  15
HETATM   15  S1  UNL     1     140.427  59.603 128.927  1.00  0.00    -0.092 SA
BRANCH  15  16
HETATM   16  C3  UNL     1     139.133  60.537 129.786  1.00  0.00     0.107 C
BRANCH  16  17
HETATM   17  C2  UNL     1     139.744  61.214 130.990  1.00  0.00     0.088 C
HETATM   18  C1  UNL     1     138.635  61.615 131.926  1.00  0.00     0.033 C
BRANCH  17  19
HETATM   19  N6  UNL     1     140.446  62.416 130.586  1.00  0.00    -0.367 N
ATOM     20  H6  UNL     1     139.949  63.132 130.058  1.00  0.00     0.161 HD
BRANCH  19  21
HETATM   21  C9  UNL     1     141.834  62.615 130.917  1.00  0.00     0.174 C
HETATM   22  N7  UNL     1     142.504  61.455 131.098  1.00  0.00    -0.305 N
HETATM   23  C10 UNL     1     143.569  61.145 131.893  1.00  0.00     0.256 C
ATOM     24  H7  UNL     1     142.153  60.675 130.542  1.00  0.00     0.171 HD
HETATM   25  O1  UNL     1     143.801  59.920 131.958  1.00  0.00    -0.268 OA
HETATM   26  C11 UNL     1     144.477  61.845 132.660  1.00  0.00     0.046 C
HETATM   27  C15 UNL     1     144.762  63.194 132.694  1.00  0.00     0.089 C
HETATM   28  C16 UNL     1     144.103  64.383 132.447  1.00  0.00     0.248 C
HETATM   29  O4  UNL     1     144.575  65.378 133.041  1.00  0.00    -0.268 OA
HETATM   30  N9  UNL     1     143.043  64.673 131.683  1.00  0.00    -0.287 N
HETATM   31  C17 UNL     1     142.129  63.959 130.966  1.00  0.00     0.292 C
ATOM     32  H9  UNL     1     142.879  65.678 131.622  1.00  0.00     0.172 HD
HETATM   33  O5  UNL     1     141.413  64.650 130.202  1.00  0.00    -0.264 OA
BRANCH  26  34
HETATM   34  C12 UNL     1     145.237  60.994 133.555  1.00  0.00     0.190 C
HETATM   35  C13 UNL     1     146.723  61.097 133.482  1.00  0.00     0.162 C
HETATM   36  N8  UNL     1     147.140  60.722 134.825  1.00  0.00    -0.334 N
HETATM   37  C14 UNL     1     145.984  60.569 135.604  1.00  0.00     0.361 C
ATOM     38  H8  UNL     1     148.101  60.594 135.142  1.00  0.00     0.164 HD
HETATM   39  O2  UNL     1     145.935  60.035 136.736  1.00  0.00    -0.238 OA
HETATM   40  O3  UNL     1     144.911  61.102 134.928  1.00  0.00    -0.292 OA
ENDBRANCH  26  34
ENDBRANCH  19  21
ENDBRANCH  17  19
ENDBRANCH  16  17
ENDBRANCH  15  16
ENDBRANCH   1  15
TORSDOF 7
ENDMDL