MODEL 4
REMARK VINA RESULT: -8.412273890      2.323      5.844
REMARK  7 active torsions:
REMARK  status: ('A' for Active; 'I' for Inactive)
REMARK    1  A    between atoms: C3_5  and  C4_6
REMARK    2  A    between atoms: C5_9  and  N3_10
REMARK    3  A    between atoms: C8_15  and  N5_16
REMARK    4  A    between atoms: C9_22  and  N8_23
REMARK    5  A    between atoms: C11_25  and  C12_26
REMARK    6  A    between atoms: C12_26  and  N9_27
REMARK    7  A    between atoms: C18_40  and  N13_41
ROOT
HETATM    1  C1  UNL     1     144.262  65.519 134.386  1.00  0.00     0.072 C
HETATM    2  C2  UNL     1     143.937  64.186 133.792  1.00  0.00     0.052 A
HETATM    3  N1  UNL     1     142.903  63.882 133.060  1.00  0.00    -0.339 N
ATOM      4  H1  UNL     1     142.165  64.534 132.797  1.00  0.00     0.167 HD
HETATM    5  C3  UNL     1     142.946  62.514 132.678  1.00  0.00     0.161 A
HETATM    6  N7  UNL     1     144.037  62.013 133.217  1.00  0.00    -0.262 N
HETATM    7  C9  UNL     1     144.584  60.807 133.259  1.00  0.00     0.141 A
HETATM    8  C17 UNL     1     145.788  60.602 133.978  1.00  0.00     0.099 A
HETATM    9  C18 UNL     1     146.379  61.614 134.625  1.00  0.00     0.103 A
HETATM   10  N14 UNL     1     145.819  62.817 134.587  1.00  0.00    -0.327 N
ATOM     11  H14 UNL     1     146.264  63.591 135.080  1.00  0.00     0.169 HD
HETATM   12  C19 UNL     1     144.685  63.035 133.917  1.00  0.00     0.139 A
ENDROOT
BRANCH   7  13
HETATM   13  N8  UNL     1     143.994  59.619 132.801  1.00  0.00    -0.234 N
HETATM   14  C10 UNL     1     144.373  59.004 131.656  1.00  0.00     0.148 A
HETATM   15  C11 UNL     1     143.493  57.982 131.386  1.00  0.00     0.073 A
HETATM   16  N11 UNL     1     142.609  58.020 132.391  1.00  0.00    -0.287 N
HETATM   17  N12 UNL     1     142.923  58.998 133.222  1.00  0.00    -0.235 N
ATOM     18  H11 UNL     1     141.814  57.390 132.499  1.00  0.00     0.188 HD
ATOM     19  H12 UNL     1     142.406  59.235 134.069  1.00  0.00     0.209 HD
BRANCH  15  20
HETATM   20  C12 UNL     1     143.565  57.083 130.226  1.00  0.00     0.332 C
BRANCH  20  21
HETATM   21  N9  UNL     1     144.657  57.395 129.336  1.00  0.00     0.097 N
HETATM   22  C13 UNL     1     145.760  56.475 129.545  1.00  0.00     0.300 C
HETATM   23  C14 UNL     1     146.801  56.624 128.452  1.00  0.00     0.262 C
HETATM   24  N10 UNL     1     146.206  56.413 127.145  1.00  0.00    -0.072 N
HETATM   25  C15 UNL     1     145.213  57.452 126.949  1.00  0.00     0.262 C
ATOM     26 2H10 UNL     1     146.896  56.376 126.394  1.00  0.00     0.277 HD
ATOM     27 1H10 UNL     1     145.829  55.473 127.026  1.00  0.00     0.277 HD
HETATM   28  C16 UNL     1     144.124  57.247 127.971  1.00  0.00     0.300 C
ENDBRANCH  20  21
ENDBRANCH  15  20
ENDBRANCH   7  13
BRANCH   5  29
HETATM   29  C4  UNL     1     141.876  62.004 131.866  1.00  0.00     0.181 A
HETATM   30  N2  UNL     1     141.873  61.433 130.702  1.00  0.00    -0.172 N
HETATM   31  C5  UNL     1     140.864  60.906 130.008  1.00  0.00     0.695 A
ATOM     32  H2  UNL     1     142.784  61.379 130.246  1.00  0.00     0.186 HD
HETATM   33  N4  UNL     1     139.646  60.983 130.644  1.00  0.00    -0.022 N
HETATM   34  C8  UNL     1     139.539  61.549 131.843  1.00  0.00     0.692 A
ATOM     35  H4  UNL     1     138.816  60.602 130.190  1.00  0.00     0.203 HD
HETATM   36  N6  UNL     1     140.602  62.047 132.447  1.00  0.00    -0.172 N
ATOM     37  H6  UNL     1     140.492  62.477 133.365  1.00  0.00     0.186 HD
BRANCH  31  38
HETATM   38  N3  UNL     1     140.906  60.387 128.696  1.00  0.00    -0.226 N
HETATM   39  C6  UNL     1     141.254  61.267 127.598  1.00  0.00     0.168 C
HETATM   40  C7  UNL     1     140.680  59.009 128.403  1.00  0.00     0.168 C
ENDBRANCH  31  38
BRANCH  34  41
HETATM   41  N5  UNL     1     138.354  61.585 132.386  1.00  0.00    -0.234 N
ATOM     42  H52 UNL     1     137.530  61.212 131.914  1.00  0.00     0.174 HD
ATOM     43  H51 UNL     1     138.274  62.007 133.311  1.00  0.00     0.174 HD
ENDBRANCH  34  41
ENDBRANCH   5  29
BRANCH   9  44
HETATM   44  N13 UNL     1     147.470  61.475 135.284  1.00  0.00    -0.385 N
ATOM     45 2H13 UNL     1     147.666  60.567 135.705  1.00  0.00     0.157 HD
ATOM     46 1H13 UNL     1     148.144  62.232 135.406  1.00  0.00     0.157 HD
ENDBRANCH   9  44
TORSDOF 7
ENDMDL