MODEL 5
REMARK VINA RESULT: -9.069409342      3.773      7.218
REMARK  9 active torsions:
REMARK  status: ('A' for Active; 'I' for Inactive)
REMARK       I    between atoms: C2_2  and  N1_4
REMARK       I    between atoms: N1_4  and  C3_6
REMARK    1  A    between atoms: C3_6  and  C4_8
REMARK    2  A    between atoms: C4_8  and  C5_9
REMARK    3  A    between atoms: C5_9  and  N2_10
REMARK    4  A    between atoms: C5_9  and  C6_14
REMARK    5  A    between atoms: C6_14  and  N3_15
REMARK    6  A    between atoms: C6_14  and  C14_38
REMARK    7  A    between atoms: N3_15  and  N4_17
REMARK       I    between atoms: N4_17  and  C7_19
REMARK    8  A    between atoms: C7_19  and  C8_21
REMARK       I    between atoms: C8_21  and  N5_23
REMARK    9  A    between atoms: C11_26  and  N6_27
ROOT
HETATM    1  N3  UNL     1     144.390  64.446 133.483  1.00  0.00    -0.320 N
ATOM      2  H3  UNL     1     144.803  64.850 134.323  1.00  0.00     0.181 HD
ENDROOT
BRANCH   1   3
HETATM    3  C6  UNL     1     144.975  63.306 132.909  1.00  0.00     0.188 C
BRANCH   3   4
HETATM    4  C5  UNL     1     146.279  62.819 133.445  1.00  0.00     0.222 C
BRANCH   4   5
HETATM    5  C4  UNL     1     146.366  63.013 134.913  1.00  0.00     0.138 C
BRANCH   5   6
HETATM    6  C3  UNL     1     146.692  61.739 135.647  1.00  0.00     0.226 C
HETATM    7  N1  UNL     1     148.021  61.509 136.093  1.00  0.00    -0.298 N
HETATM    8  C2  UNL     1     148.343  60.338 136.784  1.00  0.00     0.220 C
ATOM      9  H1  UNL     1     148.745  62.203 135.907  1.00  0.00     0.171 HD
HETATM   10  C1  UNL     1     147.358  59.265 137.094  1.00  0.00     0.117 C
HETATM   11  O1  UNL     1     149.547  60.187 137.166  1.00  0.00    -0.274 OA
HETATM   12  O2  UNL     1     145.753  60.945 135.822  1.00  0.00    -0.273 OA
ENDBRANCH   5   6
ENDBRANCH   4   5
BRANCH   4  13
HETATM   13  N2  UNL     1     146.637  61.477 133.019  1.00  0.00    -0.072 N
ATOM     14  H23 UNL     1     146.700  61.425 132.002  1.00  0.00     0.274 HD
ATOM     15  H22 UNL     1     147.606  61.268 133.258  1.00  0.00     0.274 HD
ATOM     16  H21 UNL     1     146.011  60.758 133.380  1.00  0.00     0.274 HD
ENDBRANCH   4  13
ENDBRANCH   3   4
BRANCH   3  17
HETATM   17  C14 UNL     1     144.012  62.142 132.860  1.00  0.00     0.094 A
HETATM   18  N10 UNL     1     143.728  61.329 133.863  1.00  0.00    -0.295 N
HETATM   19  N11 UNL     1     142.903  60.388 133.692  1.00  0.00    -0.298 N
ATOM     20  H10 UNL     1     144.173  61.461 134.772  1.00  0.00     0.187 HD
HETATM   21  C15 UNL     1     142.321  60.212 132.514  1.00  0.00     0.064 A
ATOM     22  H11 UNL     1     142.684  59.760 134.465  1.00  0.00     0.187 HD
HETATM   23  C16 UNL     1     141.326  59.170 132.095  1.00  0.00     0.078 C
HETATM   24  S1  UNL     1     143.036  61.509 131.620  1.00  0.00    -0.059 SA
ENDBRANCH   3  17
ENDBRANCH   1   3
BRANCH   1  25
HETATM   25  N4  UNL     1     143.293  65.020 132.946  1.00  0.00    -0.265 N
HETATM   26  C7  UNL     1     143.386  66.351 132.392  1.00  0.00     0.329 C
HETATM   27  O3  UNL     1     144.501  66.947 132.430  1.00  0.00    -0.261 OA
ATOM     28  H4  UNL     1     142.405  64.517 132.932  1.00  0.00     0.190 HD
BRANCH  26  29
HETATM   29  C8  UNL     1     142.211  66.955 131.812  1.00  0.00     0.335 C
HETATM   30  O4  UNL     1     141.823  68.076 132.300  1.00  0.00    -0.260 OA
HETATM   31  N5  UNL     1     141.472  66.370 130.738  1.00  0.00    -0.225 N
HETATM   32  C9  UNL     1     141.657  65.234 130.059  1.00  0.00     0.139 A
HETATM   33  N9  UNL     1     140.368  66.926 130.211  1.00  0.00    -0.275 N
HETATM   34  C10 UNL     1     140.657  65.078 129.100  1.00  0.00     0.070 A
HETATM   35  C11 UNL     1     140.383  64.106 128.159  1.00  0.00     0.115 A
HETATM   36  C13 UNL     1     139.858  66.189 129.240  1.00  0.00     0.137 A
HETATM   37  N7  UNL     1     139.317  64.230 127.354  1.00  0.00    -0.338 N
HETATM   38  C12 UNL     1     138.547  65.326 127.507  1.00  0.00     0.183 A
ATOM     39  H7  UNL     1     139.097  63.522 126.653  1.00  0.00     0.168 HD
HETATM   40  N8  UNL     1     138.787  66.287 128.410  1.00  0.00    -0.337 N
ATOM     41  H8  UNL     1     138.164  67.092 128.475  1.00  0.00     0.168 HD
ATOM     42  H9  UNL     1     139.971  67.812 130.524  1.00  0.00     0.189 HD
BRANCH  35  43
HETATM   43  N6  UNL     1     141.165  63.088 128.074  1.00  0.00    -0.385 N
ATOM     44  H62 UNL     1     141.359  62.503 128.887  1.00  0.00     0.157 HD
ATOM     45  H61 UNL     1     141.594  62.873 127.175  1.00  0.00     0.157 HD
ENDBRANCH  35  43
ENDBRANCH  26  29
ENDBRANCH   1  25
TORSDOF 9
ENDMDL