MODEL 5
REMARK VINA RESULT: -8.619856767      3.982      9.351
REMARK  7 active torsions:
REMARK  status: ('A' for Active; 'I' for Inactive)
REMARK    1  A    between atoms: N1_1  and  N2_4
REMARK    2  A    between atoms: N3_9  and  C4_10
REMARK    3  A    between atoms: C4_10  and  C5_11
REMARK    4  A    between atoms: C5_11  and  C6_12
REMARK    5  A    between atoms: C6_12  and  N4_13
REMARK    6  A    between atoms: N5_16  and  C9_17
REMARK    7  A    between atoms: C11_19  and  N6_20
ROOT
HETATM    1  C9  UNL     1     143.806  59.696 131.314  1.00  0.00     0.107 A
HETATM    2  C10 UNL     1     144.737  59.768 132.323  1.00  0.00     0.079 A
HETATM    3  C11 UNL     1     144.701  60.814 133.253  1.00  0.00     0.057 A
HETATM    4  C15 UNL     1     143.733  61.789 133.172  1.00  0.00     0.053 A
HETATM    5  C16 UNL     1     143.441  62.917 133.910  1.00  0.00     0.124 A
HETATM    6  N11 UNL     1     142.348  63.481 133.320  1.00  0.00    -0.309 N
ATOM      7  H11 UNL     1     141.881  64.333 133.630  1.00  0.00     0.186 HD
HETATM    8  N12 UNL     1     141.992  62.747 132.285  1.00  0.00    -0.285 N
ATOM      9  H12 UNL     1     141.201  62.957 131.676  1.00  0.00     0.188 HD
HETATM   10  C17 UNL     1     142.806  61.682 132.133  1.00  0.00     0.135 A
HETATM   11  N13 UNL     1     142.872  60.662 131.259  1.00  0.00    -0.327 N
ATOM     12  H13 UNL     1     142.176  60.619 130.515  1.00  0.00     0.169 HD
ENDROOT
BRANCH   1  13
HETATM   13  N5  UNL     1     143.824  58.625 130.350  1.00  0.00    -0.361 N
HETATM   14  C8  UNL     1     143.171  58.824 129.084  1.00  0.00     0.144 C
HETATM   15  C7  UNL     1     142.449  57.529 128.749  1.00  0.00     0.141 C
HETATM   16  N4  UNL     1     143.410  56.499 128.670  1.00  0.00    -0.390 N
HETATM   17  C19 UNL     1     144.218  56.261 129.791  1.00  0.00     0.078 C
HETATM   18  C18 UNL     1     144.483  57.414 130.691  1.00  0.00     0.168 C
BRANCH  16  19
HETATM   19  C6  UNL     1     143.920  56.163 127.388  1.00  0.00     0.123 C
BRANCH  19  20
HETATM   20  C5  UNL     1     145.429  56.252 127.341  1.00  0.00     0.036 C
BRANCH  20  21
HETATM   21  C4  UNL     1     145.791  57.705 127.174  1.00  0.00     0.115 C
BRANCH  21  22
HETATM   22  N3  UNL     1     146.785  58.160 128.083  1.00  0.00    -0.230 NA
HETATM   23  C3  UNL     1     147.651  57.170 128.616  1.00  0.00     0.121 C
HETATM   24  C2  UNL     1     149.071  57.589 128.347  1.00  0.00     0.095 C
HETATM   25  C1  UNL     1     148.898  59.021 128.009  1.00  0.00     0.107 C
HETATM   26  N2  UNL     1     149.831  59.898 128.038  1.00  0.00    -0.295 N
HETATM   27  N14 UNL     1     147.555  59.219 127.662  1.00  0.00    -0.307 N
ATOM     28  H2  UNL     1     150.768  59.601 128.313  1.00  0.00     0.187 HD
ATOM     29  H14 UNL     1     147.197  60.035 127.165  1.00  0.00     0.182 HD
BRANCH  26  30
HETATM   30  N1  UNL     1     149.631  61.238 127.712  1.00  0.00    -0.344 N
ATOM     31  H12 UNL     1     150.313  61.676 127.093  1.00  0.00     0.176 HD
ATOM     32  H11 UNL     1     148.846  61.787 128.061  1.00  0.00     0.176 HD
ENDBRANCH  26  30
ENDBRANCH  21  22
ENDBRANCH  20  21
ENDBRANCH  19  20
ENDBRANCH  16  19
ENDBRANCH   1  13
BRANCH   3  33
HETATM   33  N6  UNL     1     145.652  60.885 134.302  1.00  0.00    -0.303 N
HETATM   34  C12 UNL     1     145.708  60.008 135.429  1.00  0.00     0.257 A
HETATM   35  N7  UNL     1     146.784  60.330 136.343  1.00  0.00    -0.348 N
HETATM   36  C13 UNL     1     147.625  61.267 136.216  1.00  0.00     0.191 A
ATOM     37  H7  UNL     1     146.872  59.743 137.172  1.00  0.00     0.163 HD
HETATM   38  N8  UNL     1     148.670  61.536 137.154  1.00  0.00    -0.063 NA
HETATM   39  N9  UNL     1     147.543  62.113 135.088  1.00  0.00    -0.304 N
HETATM   40  C14 UNL     1     146.628  61.938 134.195  1.00  0.00     0.199 A
ATOM     41  H9  UNL     1     148.216  62.872 134.977  1.00  0.00     0.171 HD
HETATM   42  N10 UNL     1     146.617  62.826 133.099  1.00  0.00    -0.063 NA
ENDBRANCH   3  33
TORSDOF 7
ENDMDL