MODEL 3
REMARK VINA RESULT: -8.166608945      2.136      2.780
REMARK  9 active torsions:
REMARK  status: ('A' for Active; 'I' for Inactive)
REMARK    1  A    between atoms: N1_1  and  C1_5
REMARK    2  A    between atoms: C1_5  and  C2_6
REMARK    3  A    between atoms: C1_5  and  C13_30
REMARK    4  A    between atoms: C3_11  and  C4_12
REMARK    5  A    between atoms: C4_12  and  N4_13
REMARK    6  A    between atoms: N5_16  and  C7_17
REMARK    7  A    between atoms: C7_17  and  N6_18
REMARK    8  A    between atoms: C8_19  and  O1_20
REMARK    9  A    between atoms: C14_31  and  O3_32
ROOT
HETATM    1  C2  UNL     1     142.577  58.629 131.349  1.00  0.00     0.103 A
HETATM    2  N2  UNL     1     143.749  59.174 131.058  1.00  0.00    -0.295 N
ATOM      3  H2  UNL     1     144.355  58.736 130.365  1.00  0.00     0.187 HD
HETATM    4  N3  UNL     1     144.119  60.231 131.634  1.00  0.00    -0.292 N
ATOM      5  H3  UNL     1     145.021  60.647 131.406  1.00  0.00     0.187 HD
HETATM    6  C3  UNL     1     143.331  60.806 132.541  1.00  0.00     0.106 A
HETATM    7  S1  UNL     1     141.997  59.734 132.532  1.00  0.00    -0.052 SA
ENDROOT
BRANCH   1   8
HETATM    8  C1  UNL     1     141.955  57.390 130.781  1.00  0.00     0.284 C
BRANCH   8   9
HETATM    9  N1  UNL     1     141.491  56.511 131.839  1.00  0.00    -0.065 N
ATOM     10  H13 UNL     1     141.412  57.002 132.730  1.00  0.00     0.275 HD
ATOM     11  H12 UNL     1     140.511  56.256 131.715  1.00  0.00     0.275 HD
ATOM     12  H11 UNL     1     142.088  55.687 131.917  1.00  0.00     0.275 HD
ENDBRANCH   8   9
BRANCH   8  13
HETATM   13  C13 UNL     1     142.966  56.759 129.900  1.00  0.00     0.098 A
HETATM   14  C14 UNL     1     144.109  56.149 130.334  1.00  0.00     0.158 A
HETATM   15  N8  UNL     1     144.999  55.598 129.461  1.00  0.00    -0.288 N
HETATM   16  C15 UNL     1     144.756  55.650 128.141  1.00  0.00     0.329 A
ATOM     17  H8  UNL     1     145.845  55.148 129.808  1.00  0.00     0.172 HD
HETATM   18  O4  UNL     1     145.567  55.146 127.329  1.00  0.00    -0.247 OA
HETATM   19  N9  UNL     1     143.645  56.240 127.682  1.00  0.00    -0.275 N
HETATM   20  C16 UNL     1     142.760  56.786 128.533  1.00  0.00     0.262 A
ATOM     21  H9  UNL     1     143.470  56.275 126.678  1.00  0.00     0.173 HD
HETATM   22  O5  UNL     1     141.741  57.321 128.010  1.00  0.00    -0.267 OA
BRANCH  14  23
HETATM   23  O3  UNL     1     144.382  56.081 131.674  1.00  0.00    -0.345 OA
ATOM     24  H3  UNL     1     143.688  56.223 132.307  1.00  0.00     0.219 HD
ENDBRANCH  14  23
ENDBRANCH   8  13
ENDBRANCH   1   8
BRANCH   6  25
HETATM   25  C4  UNL     1     143.626  62.054 133.316  1.00  0.00     0.128 C
BRANCH  25  26
HETATM   26  N4  UNL     1     144.769  61.923 134.118  1.00  0.00    -0.364 N
HETATM   27  C5  UNL     1     145.429  63.077 134.585  1.00  0.00     0.083 C
HETATM   28  C6  UNL     1     146.827  62.815 135.100  1.00  0.00     0.163 C
HETATM   29  N5  UNL     1     146.941  61.570 135.787  1.00  0.00    -0.390 N
HETATM   30  C11 UNL     1     146.335  60.455 135.116  1.00  0.00     0.139 C
HETATM   31  C12 UNL     1     144.842  60.795 134.975  1.00  0.00     0.147 C
BRANCH  29  32
HETATM   32  C7  UNL     1     148.201  61.305 136.390  1.00  0.00     0.256 C
BRANCH  32  33
HETATM   33  N6  UNL     1     148.204  60.196 137.324  1.00  0.00    -0.262 N
HETATM   34  C8  UNL     1     148.852  59.028 137.177  1.00  0.00     0.163 A
HETATM   35  C9  UNL     1     148.627  58.206 138.267  1.00  0.00     0.149 A
HETATM   36  N7  UNL     1     147.823  58.909 139.080  1.00  0.00    -0.314 N
HETATM   37  C10 UNL     1     147.569  60.098 138.518  1.00  0.00     0.329 A
ATOM     38  H7  UNL     1     147.463  58.590 139.981  1.00  0.00     0.170 HD
HETATM   39  O2  UNL     1     146.863  61.004 138.988  1.00  0.00    -0.246 OA
BRANCH  34  40
HETATM   40  O1  UNL     1     149.659  58.636 136.099  1.00  0.00    -0.345 OA
ATOM     41  H1  UNL     1     149.373  58.400 135.224  1.00  0.00     0.219 HD
ENDBRANCH  34  40
ENDBRANCH  32  33
ENDBRANCH  29  32
ENDBRANCH  25  26
ENDBRANCH   6  25
TORSDOF 9
ENDMDL