MODEL 3
REMARK VINA RESULT: -8.631766272      1.476      1.973
REMARK  8 active torsions:
REMARK  status: ('A' for Active; 'I' for Inactive)
REMARK    1  A    between atoms: C5_9  and  N4_10
REMARK       I    between atoms: N4_10  and  C6_12
REMARK    2  A    between atoms: C6_12  and  C7_14
REMARK    3  A    between atoms: C7_14  and  S1_15
REMARK    4  A    between atoms: S1_15  and  C8_16
REMARK    5  A    between atoms: C11_23  and  N7_24
REMARK    6  A    between atoms: C12_29  and  N9_30
REMARK    7  A    between atoms: N9_30  and  N10_32
REMARK    8  A    between atoms: C13_34  and  C15_37
ROOT
HETATM    1  N10 UNL     1     146.757  60.863 136.216  1.00  0.00    -0.272 N
ATOM      2  H10 UNL     1     145.927  60.269 136.230  1.00  0.00     0.188 HD
HETATM    3  C13 UNL     1     147.834  60.417 136.738  1.00  0.00     0.194 C
HETATM    4  C14 UNL     1     149.079  61.117 136.801  1.00  0.00     0.124 C
HETATM    5  N11 UNL     1     150.098  61.677 136.835  1.00  0.00    -0.190 NA
ENDROOT
BRANCH   3   6
HETATM    6  C15 UNL     1     147.811  59.080 137.341  1.00  0.00     0.293 C
HETATM    7  N12 UNL     1     149.025  58.416 137.646  1.00  0.00    -0.055 NA
HETATM    8  O2  UNL     1     146.735  58.474 137.609  1.00  0.00    -0.269 OA
ENDBRANCH   3   6
BRANCH   1   9
HETATM    9  N9  UNL     1     146.664  62.089 135.643  1.00  0.00    -0.131 N
ATOM     10  H9  UNL     1     147.354  62.757 135.986  1.00  0.00     0.205 HD
BRANCH   9  11
HETATM   11  C12 UNL     1     145.883  62.564 134.761  1.00  0.00     0.699 A
HETATM   12  N8  UNL     1     145.878  63.846 134.370  1.00  0.00    -0.173 N
HETATM   13  C11 UNL     1     145.008  64.310 133.419  1.00  0.00     0.144 A
ATOM     14  H8  UNL     1     146.542  64.496 134.791  1.00  0.00     0.186 HD
HETATM   15  C10 UNL     1     144.111  63.435 132.847  1.00  0.00     0.108 A
HETATM   16  N6  UNL     1     143.221  63.848 131.895  1.00  0.00    -0.347 N
HETATM   17  C16 UNL     1     144.107  62.126 133.237  1.00  0.00     0.113 A
HETATM   18  C9  UNL     1     142.358  62.968 131.358  1.00  0.00     0.182 A
ATOM     19  H6  UNL     1     143.212  64.822 131.593  1.00  0.00     0.167 HD
HETATM   20  N5  UNL     1     142.343  61.680 131.733  1.00  0.00    -0.345 N
HETATM   21  C8  UNL     1     143.203  61.230 132.668  1.00  0.00     0.101 A
ATOM     22  H5  UNL     1     141.676  61.036 131.308  1.00  0.00     0.167 HD
HETATM   23  N13 UNL     1     144.984  61.714 134.179  1.00  0.00    -0.185 N
ATOM     24  H13 UNL     1     144.974  60.735 134.466  1.00  0.00     0.184 HD
BRANCH  13  25
HETATM   25  N7  UNL     1     145.008  65.524 133.057  1.00  0.00    -0.383 N
ATOM     26  H72 UNL     1     145.369  65.808 132.146  1.00  0.00     0.157 HD
ATOM     27  H71 UNL     1     144.641  66.235 133.690  1.00  0.00     0.157 HD
ENDBRANCH  13  25
BRANCH  21  28
HETATM   28  S1  UNL     1     143.290  59.570 133.245  1.00  0.00    -0.101 SA
BRANCH  28  29
HETATM   29  C7  UNL     1     141.945  58.507 132.795  1.00  0.00     0.184 C
BRANCH  29  30
HETATM   30  C6  UNL     1     142.150  57.690 131.576  1.00  0.00     0.232 C
HETATM   31  N4  UNL     1     143.048  58.041 130.547  1.00  0.00    -0.322 N
ATOM     32  H4  UNL     1     143.579  58.903 130.665  1.00  0.00     0.169 HD
HETATM   33  O1  UNL     1     141.483  56.636 131.462  1.00  0.00    -0.272 OA
BRANCH  31  34
HETATM   34  C5  UNL     1     143.273  57.298 129.372  1.00  0.00     0.101 A
HETATM   35  C2  UNL     1     142.605  57.326 128.163  1.00  0.00     0.052 A
HETATM   36  C1  UNL     1     141.449  58.177 127.830  1.00  0.00     0.072 C
HETATM   37  N1  UNL     1     143.202  56.433 127.340  1.00  0.00    -0.300 N
HETATM   38  N2  UNL     1     144.192  55.846 127.936  1.00  0.00    -0.281 N
ATOM     39  H1  UNL     1     142.912  56.247 126.380  1.00  0.00     0.187 HD
HETATM   40  C3  UNL     1     145.093  54.819 127.397  1.00  0.00     0.179 C
HETATM   41  C4  UNL     1     144.280  56.347 129.199  1.00  0.00     0.161 A
HETATM   42  N3  UNL     1     145.230  55.984 130.187  1.00  0.00    -0.079 NA
ENDBRANCH  31  34
ENDBRANCH  29  30
ENDBRANCH  28  29
ENDBRANCH  21  28
ENDBRANCH   9  11
ENDBRANCH   1   9
TORSDOF 8
ENDMDL