MODEL 4
REMARK VINA RESULT: -7.423563575      3.779      7.990
REMARK  11 active torsions:
REMARK  status: ('A' for Active; 'I' for Inactive)
REMARK    1  A    between atoms: O1_2  and  C2_3
REMARK    2  A    between atoms: C2_3  and  C3_4
REMARK    3  A    between atoms: C3_4  and  O2_5
REMARK    4  A    between atoms: O2_5  and  N1_6
REMARK    5  A    between atoms: C4_7  and  C5_8
REMARK    6  A    between atoms: C8_18  and  C9_19
REMARK    7  A    between atoms: C10_20  and  C11_21
REMARK    8  A    between atoms: C11_21  and  O3_24
REMARK    9  A    between atoms: C14_28  and  O4_29
REMARK   10  A    between atoms: N8_34  and  N9_36
REMARK   11  A    between atoms: N9_36  and  C16_38
ROOT
HETATM    1  N1  UNL     1     143.861  63.828 132.225  1.00  0.00    -0.041 N
HETATM    2  C4  UNL     1     143.550  65.141 132.158  1.00  0.00     0.176 A
HETATM    3  C14 UNL     1     144.542  65.772 132.877  1.00  0.00     0.189 A
HETATM    4  N7  UNL     1     145.416  64.891 133.360  1.00  0.00    -0.165 N
ATOM      5  H7  UNL     1     146.240  65.097 133.925  1.00  0.00     0.186 HD
HETATM    6  C15 UNL     1     144.997  63.669 132.955  1.00  0.00     0.726 A
HETATM    7  N8  UNL     1     145.600  62.570 133.237  1.00  0.00    -0.128 N
ATOM      8  H8  UNL     1     145.220  61.688 132.894  1.00  0.00     0.205 HD
ENDROOT
BRANCH   2   9
HETATM    9  C5  UNL     1     142.409  65.746 131.471  1.00  0.00     0.153 A
HETATM   10  N2  UNL     1     141.878  66.855 131.858  1.00  0.00    -0.173 N
HETATM   11  C6  UNL     1     140.778  67.476 131.227  1.00  0.00     0.704 A
ATOM     12  H2  UNL     1     142.279  67.315 132.675  1.00  0.00     0.186 HD
HETATM   13  N3  UNL     1     140.109  68.635 131.511  1.00  0.00    -0.185 N
HETATM   14  N5  UNL     1     140.205  66.934 130.159  1.00  0.00    -0.087 N
HETATM   15  C7  UNL     1     139.133  68.762 130.589  1.00  0.00     0.215 A
ATOM     16  H3  UNL     1     140.311  69.281 132.275  1.00  0.00     0.185 HD
HETATM   17  N4  UNL     1     139.202  67.708 129.762  1.00  0.00    -0.276 N
ATOM     18  H4  UNL     1     138.589  67.531 128.966  1.00  0.00     0.188 HD
HETATM   19  C8  UNL     1     140.689  65.696 129.611  1.00  0.00     0.307 A
HETATM   20  N6  UNL     1     141.810  65.150 130.330  1.00  0.00    -0.341 N
ATOM     21  H6  UNL     1     142.203  64.271 129.994  1.00  0.00     0.164 HD
BRANCH  19  22
HETATM   22  C9  UNL     1     139.638  64.645 129.664  1.00  0.00    -0.054 C
HETATM   23  C10 UNL     1     138.800  63.780 129.703  1.00  0.00    -0.065 C
BRANCH  23  24
HETATM   24  C11 UNL     1     137.799  62.709 129.747  1.00  0.00     0.114 C
HETATM   25  C12 UNL     1     137.112  62.543 128.408  1.00  0.00     0.060 C
HETATM   26  C13 UNL     1     138.527  61.418 130.134  1.00  0.00     0.060 C
BRANCH  24  27
HETATM   27  O3  UNL     1     136.886  63.041 130.747  1.00  0.00    -0.378 OA
ATOM     28  H3  UNL     1     136.032  62.746 130.454  1.00  0.00     0.211 HD
ENDBRANCH  24  27
ENDBRANCH  23  24
ENDBRANCH  19  22
ENDBRANCH   2   9
BRANCH   1  29
HETATM   29  O2  UNL     1     143.182  62.781 131.668  1.00  0.00    -0.257 OA
BRANCH  29  30
HETATM   30  C3  UNL     1     142.226  61.992 132.305  1.00  0.00     0.229 C
BRANCH  30  31
HETATM   31  C2  UNL     1     142.715  60.576 132.537  1.00  0.00     0.195 C
BRANCH  31  32
HETATM   32  O1  UNL     1     143.982  60.371 132.037  1.00  0.00    -0.394 OA
HETATM   33  C1  UNL     1     144.064  59.263 131.206  1.00  0.00     0.201 C
ENDBRANCH  31  32
ENDBRANCH  30  31
ENDBRANCH  29  30
ENDBRANCH   1  29
BRANCH   3  34
HETATM   34  O4  UNL     1     144.588  67.148 133.052  1.00  0.00    -0.344 OA
ATOM     35  H4  UNL     1     144.828  67.555 133.876  1.00  0.00     0.219 HD
ENDBRANCH   3  34
BRANCH   7  36
HETATM   36  N9  UNL     1     146.764  62.560 134.002  1.00  0.00    -0.264 N
ATOM     37  H9  UNL     1     147.566  63.107 133.688  1.00  0.00     0.189 HD
BRANCH  36  38
HETATM   38  C16 UNL     1     146.868  61.814 135.208  1.00  0.00     0.200 C
HETATM   39  N10 UNL     1     147.826  62.096 136.205  1.00  0.00    -0.068 NA
HETATM   40  S1  UNL     1     145.819  60.577 135.427  1.00  0.00    -0.043 SA
ENDBRANCH  36  38
ENDBRANCH   7  36
TORSDOF 11
ENDMDL