MODEL 5
REMARK VINA RESULT: -6.682120877      2.734      5.480
REMARK  7 active torsions:
REMARK  status: ('A' for Active; 'I' for Inactive)
REMARK    1  A    between atoms: C2_2  and  S1_3
REMARK    2  A    between atoms: S1_3  and  N1_6
REMARK    3  A    between atoms: N1_6  and  C3_8
REMARK    4  A    between atoms: C4_9  and  O3_10
REMARK    5  A    between atoms: O3_10  and  C5_11
REMARK    6  A    between atoms: C12_22  and  O5_23
REMARK    7  A    between atoms: C14_25  and  O6_26
ROOT
HETATM    1  C3  UNL     1      -5.301  -3.908  15.505  1.00  0.00     0.153 C
HETATM    2  C4  UNL     1      -6.641  -3.308  15.123  1.00  0.00     0.157 C
HETATM    3  C7  UNL     1      -6.520  -1.856  14.800  1.00  0.00     0.037 C
HETATM    4  C8  UNL     1      -5.594  -1.263  15.872  1.00  0.00     0.047 C
HETATM    5  C9  UNL     1      -4.184  -1.646  15.464  1.00  0.00     0.179 C
HETATM    6  N2  UNL     1      -3.763  -0.694  14.455  1.00  0.00    -0.061 N
ATOM      7  H21 UNL     1      -4.535  -0.346  13.886  1.00  0.00     0.278 HD
ATOM      8  H22 UNL     1      -3.226  -1.122  13.701  1.00  0.00     0.278 HD
HETATM    9  C10 UNL     1      -3.046   0.354  15.132  1.00  0.00     0.236 C
HETATM   10  C11 UNL     1      -3.135   0.084  16.613  1.00  0.00     0.062 C
HETATM   11  C12 UNL     1      -3.206  -1.450  16.593  1.00  0.00     0.161 C
HETATM   12  C14 UNL     1      -4.138  -3.060  15.002  1.00  0.00     0.182 C
ENDROOT
BRANCH  11  13
HETATM   13  O5  UNL     1      -1.979  -1.907  16.187  1.00  0.00    -0.388 OA
HETATM   14  C13 UNL     1      -1.232  -2.561  17.126  1.00  0.00     0.202 C
ENDBRANCH  11  13
BRANCH  12  15
HETATM   15  O6  UNL     1      -4.063  -3.145  13.587  1.00  0.00    -0.391 OA
ATOM     16  H6  UNL     1      -4.620  -2.480  13.198  1.00  0.00     0.210 HD
ENDBRANCH  12  15
BRANCH   1  17
HETATM   17  N1  UNL     1      -5.143  -5.241  14.966  1.00  0.00    -0.310 N
ATOM     18  H1  UNL     1      -4.965  -5.440  13.982  1.00  0.00     0.172 HD
BRANCH  17  19
HETATM   19  S1  UNL     1      -5.291  -6.459  16.187  1.00  0.00     0.226 S
HETATM   20  O1  UNL     1      -4.036  -7.284  16.189  1.00  0.00    -0.206 OA
HETATM   21  O2  UNL     1      -6.476  -7.317  15.913  1.00  0.00    -0.206 OA
BRANCH  19  22
HETATM   22  C2  UNL     1      -5.453  -5.742  17.799  1.00  0.00     0.158 C
HETATM   23  C1  UNL     1      -6.915  -5.865  18.197  1.00  0.00     0.023 C
ENDBRANCH  19  22
ENDBRANCH  17  19
ENDBRANCH   1  17
BRANCH   2  24
HETATM   24  O3  UNL     1      -7.381  -4.085  14.254  1.00  0.00    -0.314 OA
BRANCH  24  25
HETATM   25  C5  UNL     1      -8.690  -4.460  14.382  1.00  0.00     0.255 C
HETATM   26  C6  UNL     1      -9.254  -5.332  15.409  1.00  0.00     0.126 C
HETATM   27  O4  UNL     1      -9.435  -3.973  13.497  1.00  0.00    -0.266 OA
ENDBRANCH  24  25
ENDBRANCH   2  24
TORSDOF 7
ENDMDL