MODEL 1
REMARK VINA RESULT: -7.776299964      0.000      0.000
REMARK  8 active torsions:
REMARK  status: ('A' for Active; 'I' for Inactive)
REMARK    1  A    between atoms: C2_2  and  O1_3
REMARK    2  A    between atoms: O1_3  and  C3_4
REMARK    3  A    between atoms: C3_4  and  O2_5
REMARK    4  A    between atoms: O2_5  and  C4_6
REMARK    5  A    between atoms: C5_7  and  C6_8
REMARK    6  A    between atoms: C6_8  and  N1_9
REMARK    7  A    between atoms: C11_17  and  O4_18
REMARK    8  A    between atoms: C17_26  and  O6_27
ROOT
HETATM    1  C4  UNL     1      -2.789  -1.527  15.157  1.00  0.00     0.165 C
HETATM    2  C5  UNL     1      -2.549  -2.955  14.716  1.00  0.00     0.056 C
HETATM    3  C12 UNL     1      -3.793  -3.748  14.563  1.00  0.00     0.020 C
HETATM    4  C13 UNL     1      -5.038  -2.921  14.374  1.00  0.00     0.029 A
HETATM    5  C14 UNL     1      -6.281  -3.611  14.897  1.00  0.00     0.043 A
HETATM    6  C15 UNL     1      -6.296  -2.587  16.012  1.00  0.00     0.161 A
HETATM    7  O5  UNL     1      -6.421  -1.282  15.615  1.00  0.00    -0.366 OA
HETATM    8  C16 UNL     1      -5.235  -1.929  15.480  1.00  0.00     0.119 A
HETATM    9  C17 UNL     1      -4.005  -1.344  16.025  1.00  0.00     0.185 C
ENDROOT
BRANCH   2  10
HETATM   10  C6  UNL     1      -1.487  -3.626  15.518  1.00  0.00     0.073 C
BRANCH  10  11
HETATM   11  N1  UNL     1      -1.485  -4.991  15.693  1.00  0.00    -0.336 N
HETATM   12  C7  UNL     1      -2.092  -5.654  16.743  1.00  0.00     0.166 C
HETATM   13  C8  UNL     1      -1.535  -7.001  17.047  1.00  0.00     0.257 C
HETATM   14  O3  UNL     1      -2.102  -7.677  17.940  1.00  0.00    -0.267 OA
HETATM   15  N2  UNL     1      -0.423  -7.536  16.391  1.00  0.00    -0.348 N
HETATM   16  C9  UNL     1       0.214  -6.731  15.374  1.00  0.00     0.129 C
ATOM     17  H2  UNL     1      -0.072  -8.466  16.622  1.00  0.00     0.163 HD
HETATM   18  C10 UNL     1       1.417  -6.070  15.991  1.00  0.00     0.036 C
HETATM   19  C11 UNL     1      -0.739  -5.756  14.743  1.00  0.00     0.246 C
BRANCH  19  20
HETATM   20  O4  UNL     1      -1.527  -6.441  13.820  1.00  0.00    -0.374 OA
ATOM     21  H4  UNL     1      -1.150  -6.490  12.948  1.00  0.00     0.212 HD
ENDBRANCH  19  20
ENDBRANCH  10  11
ENDBRANCH   2  10
BRANCH   1  22
HETATM   22  O2  UNL     1      -2.844  -0.663  14.075  1.00  0.00    -0.358 OA
BRANCH  22  23
HETATM   23  C3  UNL     1      -2.891   0.662  14.442  1.00  0.00     0.338 C
BRANCH  23  24
HETATM   24  O1  UNL     1      -1.838   1.420  13.924  1.00  0.00    -0.367 OA
BRANCH  24  25
HETATM   25  C2  UNL     1      -1.385   2.224  14.983  1.00  0.00     0.166 C
HETATM   26  C1  UNL     1      -0.647   3.440  14.462  1.00  0.00     0.033 C
ENDBRANCH  24  25
ENDBRANCH  23  24
ENDBRANCH  22  23
ENDBRANCH   1  22
BRANCH   9  27
HETATM   27  O6  UNL     1      -3.774  -1.855  17.310  1.00  0.00    -0.390 OA
ATOM     28  H6  UNL     1      -4.058  -1.235  17.972  1.00  0.00     0.210 HD
ENDBRANCH   9  27
TORSDOF 8
ENDMDL