MODEL 4
REMARK VINA RESULT: -6.207300505      4.359      5.525
REMARK  11 active torsions:
REMARK  status: ('A' for Active; 'I' for Inactive)
REMARK    1  A    between atoms: O1_2  and  C2_3
REMARK    2  A    between atoms: C3_4  and  O2_5
REMARK    3  A    between atoms: C4_7  and  N1_8
REMARK    4  A    between atoms: C6_13  and  N2_14
REMARK    5  A    between atoms: C7_18  and  O3_19
REMARK    6  A    between atoms: O3_19  and  C8_20
REMARK    7  A    between atoms: C8_20  and  C9_22
REMARK    8  A    between atoms: C9_22  and  S1_23
REMARK    9  A    between atoms: S1_23  and  C10_24
REMARK   10  A    between atoms: C10_24  and  C11_25
REMARK   11  A    between atoms: C11_25  and  N3_26
ROOT
HETATM    1  N3  UNL     1       0.804   1.954  17.758  1.00  0.00     0.013 N
HETATM    2  C12 UNL     1       0.697   2.682  16.524  1.00  0.00     0.292 C
HETATM    3  C13 UNL     1       0.982   2.944  18.837  1.00  0.00     0.292 C
HETATM    4  C14 UNL     1       1.896   1.102  17.751  1.00  0.00     0.283 C
HETATM    5  N4  UNL     1       2.826   0.400  17.759  1.00  0.00    -0.165 NA
ENDROOT
BRANCH   1   6
HETATM    6  C11 UNL     1      -0.411   1.253  18.031  1.00  0.00     0.265 C
BRANCH   6   7
HETATM    7  C10 UNL     1      -1.551   1.634  17.105  1.00  0.00     0.103 C
BRANCH   7   8
HETATM    8  S1  UNL     1      -2.615   0.198  16.943  1.00  0.00    -0.158 SA
BRANCH   8   9
HETATM    9  C9  UNL     1      -3.393   0.185  15.330  1.00  0.00     0.184 C
BRANCH   9  10
HETATM   10  C8  UNL     1      -3.257  -1.148  14.711  1.00  0.00     0.268 C
HETATM   11  O4  UNL     1      -2.655  -1.175  13.598  1.00  0.00    -0.264 OA
BRANCH  10  12
HETATM   12  O3  UNL     1      -3.728  -2.331  15.229  1.00  0.00    -0.311 OA
BRANCH  12  13
HETATM   13  C7  UNL     1      -5.022  -2.769  14.839  1.00  0.00     0.193 C
HETATM   14  C2  UNL     1      -5.069  -3.815  13.801  1.00  0.00     0.183 C
HETATM   15  C3  UNL     1      -6.185  -4.805  14.048  1.00  0.00     0.180 C
HETATM   16  C4  UNL     1      -7.436  -4.230  14.600  1.00  0.00     0.216 C
HETATM   17  C5  UNL     1      -7.236  -3.235  15.715  1.00  0.00     0.071 C
HETATM   18  C6  UNL     1      -5.767  -3.223  16.125  1.00  0.00     0.217 C
BRANCH  14  19
HETATM   19  O1  UNL     1      -5.200  -3.235  12.537  1.00  0.00    -0.385 OA
HETATM   20  C1  UNL     1      -5.404  -4.168  11.535  1.00  0.00     0.202 C
ENDBRANCH  14  19
BRANCH  15  21
HETATM   21  O2  UNL     1      -5.772  -5.915  14.781  1.00  0.00    -0.391 OA
ATOM     22  H2  UNL     1      -6.056  -5.885  15.687  1.00  0.00     0.210 HD
ENDBRANCH  15  21
BRANCH  16  23
HETATM   23  N1  UNL     1      -8.248  -3.682  13.529  1.00  0.00    -0.072 N
ATOM     24  H13 UNL     1      -7.679  -3.346  12.753  1.00  0.00     0.274 HD
ATOM     25  H12 UNL     1      -8.764  -4.408  13.032  1.00  0.00     0.274 HD
ATOM     26  H11 UNL     1      -8.865  -2.957  13.893  1.00  0.00     0.274 HD
ENDBRANCH  16  23
BRANCH  18  27
HETATM   27  N2  UNL     1      -5.497  -2.210  17.108  1.00  0.00    -0.072 N
ATOM     28  H23 UNL     1      -5.638  -1.275  16.726  1.00  0.00     0.274 HD
ATOM     29  H22 UNL     1      -6.214  -2.195  17.834  1.00  0.00     0.274 HD
ATOM     30  H21 UNL     1      -4.565  -2.312  17.510  1.00  0.00     0.274 HD
ENDBRANCH  18  27
ENDBRANCH  12  13
ENDBRANCH  10  12
ENDBRANCH   9  10
ENDBRANCH   8   9
ENDBRANCH   7   8
ENDBRANCH   6   7
ENDBRANCH   1   6
TORSDOF 11
ENDMDL