MODEL 2
REMARK VINA RESULT: -7.604069551      1.396      1.742
REMARK  10 active torsions:
REMARK  status: ('A' for Active; 'I' for Inactive)
REMARK       I    between atoms: C2_2  and  N1_4
REMARK    1  A    between atoms: N1_4  and  C3_6
REMARK    2  A    between atoms: C4_9  and  N3_10
REMARK    3  A    between atoms: N3_10  and  C5_12
REMARK    4  A    between atoms: C5_12  and  C6_13
REMARK    5  A    between atoms: C6_13  and  C7_14
REMARK    6  A    between atoms: C7_14  and  N4_15
REMARK    7  A    between atoms: N4_15  and  C8_17
REMARK    8  A    between atoms: C13_25  and  N6_26
REMARK    9  A    between atoms: N6_26  and  N7_28
REMARK   10  A    between atoms: N9_33  and  O3_34
ROOT
HETATM    1  C3  UNL     1      -2.022  -4.861  14.732  1.00  0.00     0.741 A
HETATM    2  N2  UNL     1      -2.949  -5.299  13.876  1.00  0.00    -0.019 N
ATOM      3  H2  UNL     1      -2.975  -6.281  13.602  1.00  0.00     0.203 HD
HETATM    4  C4  UNL     1      -3.846  -4.430  13.384  1.00  0.00     0.707 A
HETATM    5  N5  UNL     1      -3.844  -3.144  13.716  1.00  0.00    -0.018 N
ATOM      6  H5  UNL     1      -4.538  -2.506  13.325  1.00  0.00     0.203 HD
HETATM    7  C13 UNL     1      -2.898  -2.693  14.589  1.00  0.00     0.754 A
HETATM    8  N9  UNL     1      -2.001  -3.553  15.086  1.00  0.00     0.129 N
ENDROOT
BRANCH   4   9
HETATM    9  N3  UNL     1      -4.701  -4.901  12.571  1.00  0.00    -0.225 N
ATOM     10  H3  UNL     1      -4.342  -5.471  11.806  1.00  0.00     0.177 HD
BRANCH   9  11
HETATM   11  C5  UNL     1      -6.087  -4.716  12.619  1.00  0.00     0.143 C
BRANCH  11  12
HETATM   12  C6  UNL     1      -6.835  -6.016  12.940  1.00  0.00     0.064 C
BRANCH  12  13
HETATM   13  C7  UNL     1      -7.283  -6.068  14.348  1.00  0.00     0.057 C
BRANCH  13  14
HETATM   14  N4  UNL     1      -6.315  -5.894  15.322  1.00  0.00    -0.397 N
ATOM     15  H4  UNL     1      -5.426  -6.379  15.202  1.00  0.00     0.159 HD
BRANCH  14  16
HETATM   16  C8  UNL     1      -6.473  -5.096  16.459  1.00  0.00     0.084 C
HETATM   17  C9  UNL     1      -5.205  -4.473  16.925  1.00  0.00     0.051 C
HETATM   18  C10 UNL     1      -5.418  -3.039  17.405  1.00  0.00     0.169 C
HETATM   19  O2  UNL     1      -6.044  -2.232  16.498  1.00  0.00    -0.391 OA
HETATM   20  C11 UNL     1      -6.727  -2.876  15.494  1.00  0.00     0.169 C
HETATM   21  C12 UNL     1      -7.508  -4.003  16.102  1.00  0.00     0.051 C
ENDBRANCH  14  16
ENDBRANCH  13  14
ENDBRANCH  12  13
ENDBRANCH  11  12
ENDBRANCH   9  11
ENDBRANCH   4   9
BRANCH   1  22
HETATM   22  N1  UNL     1      -1.163  -5.690  15.203  1.00  0.00    -0.157 N
HETATM   23  C2  UNL     1      -1.619  -6.947  15.681  1.00  0.00     0.232 C
HETATM   24  C1  UNL     1      -2.066  -7.144  17.086  1.00  0.00     0.118 C
HETATM   25  O1  UNL     1      -1.636  -7.907  14.873  1.00  0.00    -0.273 OA
ATOM     26  H1  UNL     1      -0.172  -5.451  15.235  1.00  0.00     0.187 HD
ENDBRANCH   1  22
BRANCH   7  27
HETATM   27  N6  UNL     1      -2.863  -1.330  14.970  1.00  0.00    -0.115 N
ATOM     28  H6  UNL     1      -2.961  -1.071  15.952  1.00  0.00     0.207 HD
BRANCH  27  29
HETATM   29  N7  UNL     1      -2.713  -0.451  14.107  1.00  0.00    -0.235 N
HETATM   30  N8  UNL     1      -2.688   0.676  13.619  1.00  0.00    -0.330 N
ATOM     31  H82 UNL     1      -2.962   1.197  14.453  1.00  0.00     0.178 HD
ATOM     32  H81 UNL     1      -2.566   1.398  12.909  1.00  0.00     0.178 HD
ATOM     33  H7  UNL     1      -2.444  -1.016  13.301  1.00  0.00     0.208 HD
ENDBRANCH  27  29
ENDBRANCH   7  27
BRANCH   8  34
HETATM   34  O3  UNL     1      -1.031  -3.137  15.970  1.00  0.00    -0.256 OA
ATOM     35  H3  UNL     1      -0.508  -2.379  15.736  1.00  0.00     0.246 HD
ENDBRANCH   8  34
TORSDOF 10
ENDMDL