MODEL 4
REMARK VINA RESULT: -6.950973043      3.704      5.085
REMARK  8 active torsions:
REMARK  status: ('A' for Active; 'I' for Inactive)
REMARK    1  A    between atoms: O1_2  and  C2_3
REMARK    2  A    between atoms: C3_4  and  C4_5
REMARK    3  A    between atoms: C4_5  and  O2_6
REMARK    4  A    between atoms: C5_9  and  O4_10
REMARK    5  A    between atoms: O4_10  and  C6_11
REMARK    6  A    between atoms: C6_11  and  C7_12
REMARK    7  A    between atoms: N2_18  and  C11_19
REMARK    8  A    between atoms: C15_24  and  O5_25
ROOT
HETATM    1  C11 UNL     1      -7.851  -4.952  14.753  1.00  0.00     0.187 C
HETATM    2  C12 UNL     1      -7.975  -6.425  15.152  1.00  0.00     0.048 C
HETATM    3  C13 UNL     1      -9.220  -4.516  14.393  1.00  0.00     0.084 C
HETATM    4  N3  UNL     1     -10.293  -4.175  14.123  1.00  0.00    -0.195 NA
ENDROOT
BRANCH   1   5
HETATM    5  N2  UNL     1      -6.963  -4.792  13.634  1.00  0.00    -0.369 N
HETATM    6  C10 UNL     1      -6.825  -5.769  12.809  1.00  0.00     0.062 C
HETATM    7  C9  UNL     1      -5.852  -5.392  11.715  1.00  0.00     0.068 C
HETATM    8  C8  UNL     1      -5.015  -4.425  12.526  1.00  0.00     0.117 C
HETATM    9  N1  UNL     1      -4.358  -5.236  13.530  1.00  0.00    -0.171 NA
HETATM   10  C14 UNL     1      -6.173  -3.687  13.239  1.00  0.00     0.122 C
HETATM   11  S1  UNL     1      -4.488  -4.269  15.039  1.00  0.00    -0.056 SA
HETATM   12  C7  UNL     1      -5.426  -2.914  14.230  1.00  0.00     0.113 C
BRANCH  12  13
HETATM   13  C6  UNL     1      -6.078  -1.998  15.157  1.00  0.00     0.189 C
BRANCH  13  14
HETATM   14  O4  UNL     1      -5.433  -0.736  14.983  1.00  0.00    -0.357 OA
BRANCH  14  15
HETATM   15  C5  UNL     1      -4.611  -0.434  16.027  1.00  0.00     0.291 C
HETATM   16  O3  UNL     1      -4.044  -1.511  16.660  1.00  0.00    -0.348 OA
HETATM   17  C3  UNL     1      -2.921  -1.029  17.330  1.00  0.00     0.179 C
HETATM   18  C2  UNL     1      -2.411   0.170  16.588  1.00  0.00     0.185 C
HETATM   19  C15 UNL     1      -3.370   0.240  15.420  1.00  0.00     0.204 C
BRANCH  17  20
HETATM   20  C4  UNL     1      -1.820  -2.071  17.372  1.00  0.00     0.198 C
BRANCH  20  21
HETATM   21  O2  UNL     1      -1.546  -2.460  16.070  1.00  0.00    -0.398 OA
ATOM     22  H2  UNL     1      -0.877  -3.133  16.098  1.00  0.00     0.209 HD
ENDBRANCH  20  21
ENDBRANCH  17  20
BRANCH  18  23
HETATM   23  O1  UNL     1      -2.388   1.328  17.325  1.00  0.00    -0.385 OA
HETATM   24  C1  UNL     1      -1.253   1.440  18.126  1.00  0.00     0.202 C
ENDBRANCH  18  23
BRANCH  19  25
HETATM   25  O5  UNL     1      -2.946  -0.601  14.392  1.00  0.00    -0.388 OA
ATOM     26  H5  UNL     1      -3.633  -0.704  13.744  1.00  0.00     0.210 HD
ENDBRANCH  19  25
ENDBRANCH  14  15
ENDBRANCH  13  14
ENDBRANCH  12  13
ENDBRANCH   1   5
TORSDOF 8
ENDMDL