MODEL 5
REMARK VINA RESULT: -6.986667097      1.098      1.431
REMARK  8 active torsions:
REMARK  status: ('A' for Active; 'I' for Inactive)
REMARK    1  A    between atoms: O1_2  and  C2_3
REMARK    2  A    between atoms: C2_3  and  C3_4
REMARK    3  A    between atoms: C4_6  and  O3_7
REMARK    4  A    between atoms: O3_7  and  C5_8
REMARK    5  A    between atoms: C7_10  and  C8_11
REMARK       I    between atoms: C8_11  and  N1_13
REMARK    6  A    between atoms: C9_15  and  N2_16
REMARK    7  A    between atoms: C15_25  and  O5_26
REMARK    8  A    between atoms: C16_28  and  O6_29
ROOT
HETATM    1  C5  UNL     1      -3.799  -2.385  16.434  1.00  0.00     0.155 C
HETATM    2  C6  UNL     1      -2.732  -1.393  16.776  1.00  0.00     0.049 C
HETATM    3  C7  UNL     1      -3.265   0.014  16.831  1.00  0.00     0.106 C
HETATM    4  C12 UNL     1      -4.026   0.439  15.621  1.00  0.00     0.246 C
HETATM    5  N3  UNL     1      -4.822  -0.617  15.083  1.00  0.00    -0.068 N
ATOM      6  H31 UNL     1      -4.407  -1.028  14.247  1.00  0.00     0.277 HD
ATOM      7  H32 UNL     1      -5.685  -0.276  14.661  1.00  0.00     0.277 HD
HETATM    8  C13 UNL     1      -5.064  -1.601  16.121  1.00  0.00     0.210 C
HETATM    9  C14 UNL     1      -6.157  -2.513  15.604  1.00  0.00     0.042 C
ENDROOT
BRANCH   1  10
HETATM   10  O3  UNL     1      -4.112  -3.261  17.468  1.00  0.00    -0.351 OA
BRANCH  10  11
HETATM   11  C4  UNL     1      -3.670  -4.537  17.263  1.00  0.00     0.292 C
HETATM   12  O2  UNL     1      -3.289  -4.808  15.957  1.00  0.00    -0.348 OA
HETATM   13  C3  UNL     1      -3.228  -6.181  15.822  1.00  0.00     0.179 C
HETATM   14  C16 UNL     1      -4.045  -6.812  16.897  1.00  0.00     0.182 C
HETATM   15  C15 UNL     1      -4.686  -5.615  17.570  1.00  0.00     0.204 C
BRANCH  13  16
HETATM   16  C2  UNL     1      -1.801  -6.692  15.837  1.00  0.00     0.201 C
BRANCH  16  17
HETATM   17  O1  UNL     1      -1.747  -7.995  15.375  1.00  0.00    -0.393 OA
HETATM   18  C1  UNL     1      -0.613  -8.583  15.969  1.00  0.00     0.201 C
ENDBRANCH  16  17
ENDBRANCH  13  16
BRANCH  14  19
HETATM   19  O6  UNL     1      -5.042  -7.661  16.394  1.00  0.00    -0.390 OA
ATOM     20  H6  UNL     1      -4.687  -8.417  15.942  1.00  0.00     0.210 HD
ENDBRANCH  14  19
BRANCH  15  21
HETATM   21  O5  UNL     1      -4.873  -5.804  18.921  1.00  0.00    -0.388 OA
ATOM     22  H5  UNL     1      -4.360  -5.206  19.451  1.00  0.00     0.210 HD
ENDBRANCH  15  21
ENDBRANCH  10  11
ENDBRANCH   1  10
BRANCH   3  23
HETATM   23  C8  UNL     1      -2.148   0.981  17.012  1.00  0.00     0.228 C
HETATM   24  O4  UNL     1      -1.506   1.416  16.016  1.00  0.00    -0.273 OA
HETATM   25  N1  UNL     1      -1.767   1.445  18.283  1.00  0.00    -0.323 N
HETATM   26  C9  UNL     1      -0.566   1.526  18.717  1.00  0.00     0.180 C
ATOM     27  H1  UNL     1      -2.513   1.741  18.913  1.00  0.00     0.169 HD
BRANCH  26  28
HETATM   28  N2  UNL     1       0.592   1.173  18.019  1.00  0.00    -0.386 N
HETATM   29  C10 UNL     1       1.321   2.163  17.270  1.00  0.00     0.149 C
HETATM   30  C11 UNL     1       1.069  -0.186  18.043  1.00  0.00     0.149 C
ENDBRANCH  26  28
ENDBRANCH   3  23
TORSDOF 8
ENDMDL