MODEL 5
REMARK VINA RESULT: -6.794906729      2.121      5.890
REMARK  9 active torsions:
REMARK  status: ('A' for Active; 'I' for Inactive)
REMARK    1  A    between atoms: C4_5  and  N2_6
REMARK    2  A    between atoms: N2_6  and  C5_8
REMARK    3  A    between atoms: C6_11  and  N4_12
REMARK    4  A    between atoms: C11_20  and  N6_21
REMARK    5  A    between atoms: N6_21  and  C12_22
REMARK    6  A    between atoms: C12_22  and  C13_23
REMARK    7  A    between atoms: C13_23  and  C14_24
REMARK    8  A    between atoms: C14_24  and  C15_25
REMARK    9  A    between atoms: C15_25  and  O2_26
ROOT
HETATM    1  C5  UNL     1      -2.725  -2.763  15.631  1.00  0.00     0.696 A
HETATM    2  N3  UNL     1      -2.572  -1.735  16.474  1.00  0.00    -0.022 N
ATOM      3  H3  UNL     1      -3.286  -1.010  16.545  1.00  0.00     0.203 HD
HETATM    4  C6  UNL     1      -1.458  -1.678  17.227  1.00  0.00     0.698 A
HETATM    5  N5  UNL     1      -0.527  -2.629  17.133  1.00  0.00    -0.148 N
ATOM      6  H5  UNL     1       0.305  -2.555  17.719  1.00  0.00     0.188 HD
HETATM    7  C11 UNL     1      -0.638  -3.708  16.279  1.00  0.00     0.287 A
HETATM    8  N7  UNL     1      -1.795  -3.713  15.536  1.00  0.00    -0.148 N
ATOM      9  H7  UNL     1      -1.950  -4.479  14.881  1.00  0.00     0.188 HD
ENDROOT
BRANCH   1  10
HETATM   10  N2  UNL     1      -3.775  -2.834  14.905  1.00  0.00    -0.219 N
ATOM     11  H2  UNL     1      -3.661  -2.575  13.925  1.00  0.00     0.178 HD
BRANCH  10  12
HETATM   12  C4  UNL     1      -5.086  -3.231  15.302  1.00  0.00     0.129 C
HETATM   13  C3  UNL     1      -6.163  -2.376  14.675  1.00  0.00     0.057 C
HETATM   14  C2  UNL     1      -6.901  -3.310  13.780  1.00  0.00     0.274 C
HETATM   15  N1  UNL     1      -6.013  -4.389  13.474  1.00  0.00     0.086 N
HETATM   16  C1  UNL     1      -5.049  -4.088  12.447  1.00  0.00     0.310 C
HETATM   17  C16 UNL     1      -5.337  -4.623  14.751  1.00  0.00     0.297 C
ENDBRANCH  10  12
ENDBRANCH   1  10
BRANCH   4  18
HETATM   18  N4  UNL     1      -1.291  -0.600  18.121  1.00  0.00    -0.213 N
HETATM   19  C7  UNL     1      -0.863  -0.863  19.473  1.00  0.00     0.167 C
HETATM   20  C8  UNL     1       0.040   0.255  19.979  1.00  0.00     0.188 C
HETATM   21  O1  UNL     1      -0.452   1.503  19.596  1.00  0.00    -0.388 OA
HETATM   22  C9  UNL     1      -0.377   1.582  18.210  1.00  0.00     0.188 C
HETATM   23  C10 UNL     1      -1.543   0.748  17.660  1.00  0.00     0.167 C
ENDBRANCH   4  18
BRANCH   7  24
HETATM   24  N6  UNL     1       0.216  -4.562  16.209  1.00  0.00    -0.387 NA
BRANCH  24  25
HETATM   25  C12 UNL     1       1.027  -5.601  16.135  1.00  0.00     0.159 C
BRANCH  25  26
HETATM   26  C13 UNL     1       0.721  -6.631  15.020  1.00  0.00     0.061 C
BRANCH  26  27
HETATM   27  C14 UNL     1       0.546  -7.947  15.746  1.00  0.00     0.032 C
BRANCH  27  28
HETATM   28  C15 UNL     1      -0.913  -8.197  16.088  1.00  0.00     0.164 C
BRANCH  28  29
HETATM   29  O2  UNL     1      -1.715  -8.100  14.957  1.00  0.00    -0.401 OA
ATOM     30  H2  UNL     1      -2.458  -8.688  15.014  1.00  0.00     0.209 HD
ENDBRANCH  28  29
ENDBRANCH  27  28
ENDBRANCH  26  27
ENDBRANCH  25  26
ENDBRANCH  24  25
ENDBRANCH   7  24
TORSDOF 9
ENDMDL