MODEL 2
REMARK VINA RESULT: -7.905814521      3.834      5.885
REMARK  6 active torsions:
REMARK  status: ('A' for Active; 'I' for Inactive)
REMARK    1  A    between atoms: C2_2  and  C3_3
REMARK    2  A    between atoms: C3_3  and  C4_4
REMARK    3  A    between atoms: N1_6  and  N2_7
REMARK    4  A    between atoms: C8_15  and  C9_16
REMARK    5  A    between atoms: C12_19  and  C13_20
REMARK    6  A    between atoms: C13_20  and  N4_21
ROOT
HETATM    1  C9  UNL     1      -6.913  -5.727  15.077  1.00  0.00     0.157 C
HETATM    2  C10 UNL     1      -7.475  -7.091  15.337  1.00  0.00     0.068 C
HETATM    3  C11 UNL     1      -7.981  -7.829  14.114  1.00  0.00     0.040 C
HETATM    4  C12 UNL     1      -8.197  -6.985  12.908  1.00  0.00     0.077 C
HETATM    5  C14 UNL     1      -6.961  -6.122  12.762  1.00  0.00     0.204 C
HETATM    6  O2  UNL     1      -6.213  -5.907  13.857  1.00  0.00    -0.354 OA
HETATM    7  N5  UNL     1      -9.317  -6.048  13.185  1.00  0.00    -0.351 N
ATOM      8  H5  UNL     1     -10.212  -6.152  12.708  1.00  0.00     0.163 HD
HETATM    9  C15 UNL     1      -9.130  -5.079  14.064  1.00  0.00     0.189 C
HETATM   10  N6  UNL     1     -10.295  -4.241  14.241  1.00  0.00    -0.064 NA
HETATM   11  N7  UNL     1      -7.975  -4.738  14.834  1.00  0.00    -0.325 N
HETATM   12  C16 UNL     1      -7.875  -3.399  15.349  1.00  0.00     0.156 C
ENDROOT
BRANCH   1  13
HETATM   13  C8  UNL     1      -5.928  -5.308  16.083  1.00  0.00     0.040 C
HETATM   14  C2  UNL     1      -4.544  -5.054  15.890  1.00  0.00    -0.059 C
HETATM   15  C1  UNL     1      -3.926  -4.761  17.316  1.00  0.00     0.048 C
BRANCH  14  16
HETATM   16  C3  UNL     1      -3.850  -4.196  14.953  1.00  0.00     0.040 C
BRANCH  16  17
HETATM   17  C4  UNL     1      -3.739  -2.738  15.116  1.00  0.00     0.066 C
HETATM   18  C5  UNL     1      -2.962  -1.905  14.182  1.00  0.00     0.208 C
HETATM   19  N1  UNL     1      -3.098  -0.518  14.583  1.00  0.00    -0.306 N
HETATM   20  C6  UNL     1      -3.620  -0.206  15.874  1.00  0.00     0.171 C
HETATM   21  C7  UNL     1      -4.795  -1.061  16.268  1.00  0.00     0.197 C
HETATM   22  O1  UNL     1      -4.984  -2.139  15.430  1.00  0.00    -0.352 OA
BRANCH  19  23
HETATM   23  N2  UNL     1      -2.722   0.498  13.722  1.00  0.00    -0.251 N
HETATM   24  N3  UNL     1      -1.938   1.415  14.115  1.00  0.00    -0.331 N
ATOM     25  H32 UNL     1      -1.591   1.388  15.074  1.00  0.00     0.178 HD
ATOM     26  H31 UNL     1      -1.661   2.165  13.481  1.00  0.00     0.178 HD
ATOM     27  H2  UNL     1      -3.079   0.511  12.767  1.00  0.00     0.207 HD
ENDBRANCH  19  23
ENDBRANCH  16  17
ENDBRANCH  14  16
ENDBRANCH   1  13
BRANCH   4  28
HETATM   28  C13 UNL     1      -8.482  -7.819  11.716  1.00  0.00     0.262 C
BRANCH  28  29
HETATM   29  N4  UNL     1      -7.573  -7.477  10.643  1.00  0.00    -0.077 N
ATOM     30  H43 UNL     1      -6.636  -7.268  10.988  1.00  0.00     0.274 HD
ATOM     31  H42 UNL     1      -7.341  -8.285  10.066  1.00  0.00     0.274 HD
ATOM     32  H41 UNL     1      -7.957  -6.710  10.091  1.00  0.00     0.274 HD
ENDBRANCH  28  29
ENDBRANCH   4  28
TORSDOF 6
ENDMDL