MODEL 2
REMARK VINA RESULT: -7.410054367      1.126      1.550
REMARK  9 active torsions:
REMARK  status: ('A' for Active; 'I' for Inactive)
REMARK    1  A    between atoms: O1_1  and  C1_3
REMARK    2  A    between atoms: C1_3  and  C2_4
REMARK    3  A    between atoms: C2_4  and  N1_5
REMARK    4  A    between atoms: N1_5  and  C3_7
REMARK    5  A    between atoms: C4_10  and  N3_11
REMARK    6  A    between atoms: C10_19  and  N5_20
REMARK    7  A    between atoms: N5_20  and  C11_22
REMARK    8  A    between atoms: C11_22  and  C12_23
REMARK    9  A    between atoms: C12_23  and  N6_24
ROOT
HETATM    1  C3  UNL     1      -2.863  -2.102  15.470  1.00  0.00     0.711 A
HETATM    2  N2  UNL     1      -2.148  -3.240  15.705  1.00  0.00    -0.021 N
ATOM      3  H2  UNL     1      -1.446  -3.248  16.445  1.00  0.00     0.203 HD
HETATM    4  C4  UNL     1      -2.352  -4.341  14.981  1.00  0.00     0.709 A
HETATM    5  N4  UNL     1      -3.267  -4.364  14.000  1.00  0.00    -0.021 N
ATOM      6  H4  UNL     1      -3.411  -5.215  13.456  1.00  0.00     0.203 HD
HETATM    7  C10 UNL     1      -4.008  -3.248  13.730  1.00  0.00     0.707 A
HETATM    8  N7  UNL     1      -3.802  -2.166  14.444  1.00  0.00    -0.021 N
ATOM      9  H7  UNL     1      -4.355  -1.335  14.239  1.00  0.00     0.203 HD
ENDROOT
BRANCH   7  10
HETATM   10  N5  UNL     1      -4.861  -3.359  12.806  1.00  0.00    -0.223 N
ATOM     11  H5  UNL     1      -4.831  -2.700  12.027  1.00  0.00     0.177 HD
BRANCH  10  12
HETATM   12  C11 UNL     1      -5.873  -4.382  12.811  1.00  0.00     0.168 C
BRANCH  12  13
HETATM   13  C12 UNL     1      -6.949  -3.865  13.781  1.00  0.00     0.292 C
BRANCH  13  14
HETATM   14  N6  UNL     1      -7.348  -4.984  14.606  1.00  0.00     0.094 N
HETATM   15  C13 UNL     1      -8.584  -4.603  15.283  1.00  0.00     0.298 C
HETATM   16  C14 UNL     1      -9.598  -4.251  14.255  1.00  0.00     0.198 C
HETATM   17  O2  UNL     1      -9.914  -5.338  13.502  1.00  0.00    -0.388 OA
HETATM   18  C15 UNL     1      -9.056  -6.389  13.496  1.00  0.00     0.198 C
HETATM   19  C16 UNL     1      -7.602  -6.088  13.695  1.00  0.00     0.298 C
ENDBRANCH  13  14
ENDBRANCH  12  13
ENDBRANCH  10  12
ENDBRANCH   7  10
BRANCH   4  20
HETATM   20  N3  UNL     1      -1.607  -5.508  15.236  1.00  0.00    -0.217 N
HETATM   21  C5  UNL     1      -0.414  -5.804  14.468  1.00  0.00     0.141 C
HETATM   22  C6  UNL     1       0.595  -6.610  15.221  1.00  0.00     0.020 C
HETATM   23  C7  UNL     1       0.010  -7.736  16.013  1.00  0.00     0.003 C
HETATM   24  C8  UNL     1      -1.503  -7.794  15.916  1.00  0.00     0.020 C
HETATM   25  C9  UNL     1      -2.036  -6.408  16.280  1.00  0.00     0.141 C
ENDBRANCH   4  20
BRANCH   1  26
HETATM   26  N1  UNL     1      -2.786  -1.032  16.056  1.00  0.00    -0.202 N
ATOM     27  H1  UNL     1      -2.272  -1.212  16.919  1.00  0.00     0.183 HD
BRANCH  26  28
HETATM   28  C2  UNL     1      -3.088   0.306  16.059  1.00  0.00     0.105 C
BRANCH  28  29
HETATM   29  C1  UNL     1      -2.429   1.215  15.040  1.00  0.00     0.209 C
BRANCH  29  30
HETATM   30  O1  UNL     1      -2.717   0.745  13.770  1.00  0.00    -0.396 OA
ATOM     31  H1  UNL     1      -3.036   1.466  13.242  1.00  0.00     0.209 HD
ENDBRANCH  29  30
ENDBRANCH  28  29
ENDBRANCH  26  28
ENDBRANCH   1  26
TORSDOF 9
ENDMDL