MODEL 4
REMARK VINA RESULT: -7.215273900      3.697      6.077
REMARK  7 active torsions:
REMARK  status: ('A' for Active; 'I' for Inactive)
REMARK    1  A    between atoms: O1_2  and  C2_3
REMARK    2  A    between atoms: C3_5  and  C4_6
REMARK    3  A    between atoms: C4_6  and  O3_7
REMARK    4  A    between atoms: O3_7  and  S1_8
REMARK    5  A    between atoms: C8_15  and  N1_16
REMARK    6  A    between atoms: N1_16  and  S2_18
REMARK    7  A    between atoms: C10_22  and  O9_23
ROOT
HETATM    1  C2  UNL     1      -4.205  -4.010  15.688  1.00  0.00     0.291 C
HETATM    2  O2  UNL     1      -4.004  -3.341  16.799  1.00  0.00    -0.340 OA
HETATM    3  C3  UNL     1      -3.009  -2.410  17.034  1.00  0.00     0.215 C
HETATM    4  C5  UNL     1      -1.812  -2.834  16.434  1.00  0.00    -0.149 C
HETATM    5  C6  UNL     1      -0.546  -3.215  15.983  1.00  0.00     0.085 C
HETATM    6  C7  UNL     1      -0.778  -4.488  15.111  1.00  0.00     0.040 C
HETATM    7  C8  UNL     1      -1.964  -5.298  15.422  1.00  0.00     0.127 C
HETATM    8  C10 UNL     1      -3.343  -5.007  15.009  1.00  0.00     0.196 C
ENDROOT
BRANCH   3   9
HETATM    9  C4  UNL     1      -3.466  -1.056  16.535  1.00  0.00     0.236 C
BRANCH   9  10
HETATM   10  O3  UNL     1      -2.423  -0.324  15.992  1.00  0.00    -0.254 OA
BRANCH  10  11
HETATM   11  S1  UNL     1      -2.758   0.193  14.439  1.00  0.00     0.251 S
HETATM   12  O4  UNL     1      -2.548  -0.901  13.430  1.00  0.00    -0.572 OA
HETATM   13  O5  UNL     1      -4.214   0.608  14.311  1.00  0.00    -0.572 OA
HETATM   14  O6  UNL     1      -1.796   1.487  13.989  1.00  0.00    -0.572 OA
ENDBRANCH  10  11
ENDBRANCH   9  10
ENDBRANCH   3   9
BRANCH   1  15
HETATM   15  O1  UNL     1      -4.503  -3.000  14.715  1.00  0.00    -0.363 OA
HETATM   16  C1  UNL     1      -5.833  -2.806  14.510  1.00  0.00     0.204 C
ENDBRANCH   1  15
BRANCH   8  17
HETATM   17  O9  UNL     1      -3.527  -5.007  13.609  1.00  0.00    -0.389 OA
ATOM     18  H9  UNL     1      -2.960  -5.632  13.171  1.00  0.00     0.210 HD
ENDBRANCH   8  17
BRANCH   7  19
HETATM   19  N1  UNL     1      -1.626  -6.637  14.828  1.00  0.00    -0.312 N
ATOM     20  H1  UNL     1      -1.951  -6.907  13.900  1.00  0.00     0.172 HD
BRANCH  19  21
HETATM   21  S2  UNL     1      -0.697  -7.657  15.756  1.00  0.00     0.223 S
HETATM   22  C9  UNL     1       1.066  -7.370  15.521  1.00  0.00     0.185 C
HETATM   23  O7  UNL     1      -0.946  -7.295  17.201  1.00  0.00    -0.206 OA
HETATM   24  O8  UNL     1      -1.010  -9.112  15.649  1.00  0.00    -0.206 OA
ENDBRANCH  19  21
ENDBRANCH   7  19
TORSDOF 7
ENDMDL