MODEL 2
REMARK VINA RESULT: -7.197754272      2.146      3.005
REMARK  6 active torsions:
REMARK  status: ('A' for Active; 'I' for Inactive)
REMARK    1  A    between atoms: C2_7  and  C3_8
REMARK    2  A    between atoms: C3_8  and  N3_9
REMARK    3  A    between atoms: N3_9  and  C4_10
REMARK    4  A    between atoms: N3_9  and  C10_20
REMARK    5  A    between atoms: C4_10  and  C5_11
REMARK       I    between atoms: C5_11  and  N4_13
REMARK    6  A    between atoms: C10_20  and  C11_21
ROOT
HETATM    1  N3  UNL     1      -2.890  -1.517  16.382  1.00  0.00    -0.341 N
ENDROOT
BRANCH   1   2
HETATM    2  C3  UNL     1      -2.366  -0.290  16.771  1.00  0.00     0.096 C
BRANCH   2   3
HETATM    3  C2  UNL     1      -2.623   0.912  15.896  1.00  0.00     0.148 C
HETATM    4  N2  UNL     1      -1.430   1.774  15.966  1.00  0.00    -0.345 N
HETATM    5  C1  UNL     1      -1.209   2.271  14.660  1.00  0.00     0.213 C
ATOM      6  H2  UNL     1      -0.871   1.973  16.796  1.00  0.00     0.163 HD
HETATM    7  N1  UNL     1      -0.411   3.233  14.303  1.00  0.00    -0.365 N
HETATM    8  O3  UNL     1      -1.987   1.569  13.767  1.00  0.00    -0.320 OA
ATOM      9  H12 UNL     1       0.165   3.753  14.965  1.00  0.00     0.159 HD
ATOM     10  H11 UNL     1      -0.251   3.592  13.362  1.00  0.00     0.159 HD
HETATM   11  C15 UNL     1      -2.664   0.529  14.433  1.00  0.00     0.209 C
ENDBRANCH   2   3
ENDBRANCH   1   2
BRANCH   1  12
HETATM   12  C4  UNL     1      -2.005  -2.483  15.878  1.00  0.00     0.169 C
BRANCH  12  13
HETATM   13  C5  UNL     1      -1.364  -3.430  16.768  1.00  0.00     0.259 C
HETATM   14  O1  UNL     1      -0.720  -3.062  17.768  1.00  0.00    -0.267 OA
HETATM   15  N4  UNL     1      -1.471  -4.813  16.490  1.00  0.00    -0.344 N
HETATM   16  C6  UNL     1      -2.181  -5.382  15.359  1.00  0.00     0.145 C
HETATM   17  C9  UNL     1      -0.860  -5.826  17.362  1.00  0.00     0.145 C
HETATM   18  C7  UNL     1      -1.639  -6.769  15.106  1.00  0.00     0.133 C
HETATM   19  N5  UNL     1      -0.230  -6.895  15.281  1.00  0.00    -0.418 N
HETATM   20  C8  UNL     1       0.287  -6.391  16.526  1.00  0.00     0.133 C
ATOM     21  H5  UNL     1       0.372  -7.314  14.571  1.00  0.00     0.153 HD
ENDBRANCH  12  13
ENDBRANCH   1  12
BRANCH   1  22
HETATM   22  C10 UNL     1      -4.231  -1.860  16.605  1.00  0.00     0.100 C
BRANCH  22  23
HETATM   23  C11 UNL     1      -4.988  -2.583  15.524  1.00  0.00     0.160 C
HETATM   24  C12 UNL     1      -6.370  -1.949  15.470  1.00  0.00     0.039 C
HETATM   25  C13 UNL     1      -7.340  -3.101  15.517  1.00  0.00     0.029 C
HETATM   26  C14 UNL     1      -6.405  -4.278  15.305  1.00  0.00     0.168 C
HETATM   27  O2  UNL     1      -5.228  -3.898  15.953  1.00  0.00    -0.381 OA
ENDBRANCH  22  23
ENDBRANCH   1  22
TORSDOF 6
ENDMDL