MODEL 5
REMARK VINA RESULT: -5.249223142      2.444      5.511
REMARK  11 active torsions:
REMARK  status: ('A' for Active; 'I' for Inactive)
REMARK    1  A    between atoms: C2_2  and  C3_3
REMARK    2  A    between atoms: C2_2  and  O3_10
REMARK    3  A    between atoms: C2_2  and  S2_19
REMARK    4  A    between atoms: C3_3  and  S1_4
REMARK    5  A    between atoms: S1_4  and  N1_5
REMARK    6  A    between atoms: O3_10  and  C4_11
REMARK    7  A    between atoms: C4_11  and  N3_15
REMARK    8  A    between atoms: S2_19  and  C8_21
REMARK    9  A    between atoms: C8_21  and  C9_22
REMARK   10  A    between atoms: C9_22  and  C10_23
REMARK   11  A    between atoms: C10_23  and  N4_24
ROOT
HETATM    1  C1  UNL     1      -4.062  -4.455  16.635  1.00  0.00     0.063 C
HETATM    2  C2  UNL     1      -3.375  -3.599  15.615  1.00  0.00     0.158 C
ENDROOT
BRANCH   2   3
HETATM    3  C3  UNL     1      -3.040  -2.245  16.154  1.00  0.00     0.215 C
BRANCH   3   4
HETATM    4  S1  UNL     1      -3.225  -0.922  15.018  1.00  0.00     0.228 S
HETATM    5  O1  UNL     1      -2.441   0.245  15.559  1.00  0.00    -0.206 OA
HETATM    6  O2  UNL     1      -4.645  -0.458  14.891  1.00  0.00    -0.206 OA
BRANCH   4   7
HETATM    7  N1  UNL     1      -2.534  -1.285  13.474  1.00  0.00    -0.328 N
ATOM      8  H12 UNL     1      -1.992  -2.130  13.292  1.00  0.00     0.168 HD
ATOM      9  H11 UNL     1      -2.734  -0.562  12.784  1.00  0.00     0.168 HD
ENDBRANCH   4   7
ENDBRANCH   3   4
ENDBRANCH   2   3
BRANCH   2  10
HETATM   10  O3  UNL     1      -4.134  -3.363  14.456  1.00  0.00    -0.297 OA
BRANCH  10  11
HETATM   11  C4  UNL     1      -5.176  -4.118  14.024  1.00  0.00     0.216 C
HETATM   12  N2  UNL     1      -4.898  -5.108  13.279  1.00  0.00    -0.365 N
ATOM     13  H22 UNL     1      -3.939  -5.329  13.013  1.00  0.00     0.159 HD
ATOM     14  H21 UNL     1      -5.681  -5.676  12.955  1.00  0.00     0.159 HD
BRANCH  11  15
HETATM   15  N3  UNL     1      -6.503  -3.812  14.393  1.00  0.00    -0.348 N
HETATM   16  C5  UNL     1      -7.856  -4.201  13.971  1.00  0.00     0.128 C
HETATM   17  C6  UNL     1      -8.278  -4.002  15.412  1.00  0.00     0.040 C
HETATM   18  C7  UNL     1      -7.165  -2.948  15.383  1.00  0.00     0.128 C
ENDBRANCH  11  15
ENDBRANCH  10  11
ENDBRANCH   2  10
BRANCH   2  19
HETATM   19  S2  UNL     1      -1.908  -4.471  15.096  1.00  0.00     0.051 S
HETATM   20  O4  UNL     1      -2.217  -6.032  14.628  1.00  0.00    -0.255 OA
BRANCH  19  21
HETATM   21  C8  UNL     1      -0.605  -4.335  16.259  1.00  0.00     0.113 C
BRANCH  21  22
HETATM   22  C9  UNL     1      -0.217  -5.696  16.805  1.00  0.00     0.040 C
BRANCH  22  23
HETATM   23  C10 UNL     1       1.056  -6.208  16.197  1.00  0.00     0.230 C
BRANCH  23  24
HETATM   24  N4  UNL     1       0.693  -7.069  15.085  1.00  0.00    -0.079 N
ATOM     25  H43 UNL     1       0.721  -8.061  15.325  1.00  0.00     0.274 HD
ATOM     26  H42 UNL     1      -0.298  -7.017  14.849  1.00  0.00     0.274 HD
ATOM     27  H41 UNL     1       1.303  -6.832  14.303  1.00  0.00     0.274 HD
ENDBRANCH  23  24
ENDBRANCH  22  23
ENDBRANCH  21  22
ENDBRANCH  19  21
ENDBRANCH   2  19
TORSDOF 11
ENDMDL