MODEL 3
REMARK VINA RESULT: -6.966535613      0.762      1.261
REMARK  9 active torsions:
REMARK  status: ('A' for Active; 'I' for Inactive)
REMARK    1  A    between atoms: N1_2  and  C2_3
REMARK    2  A    between atoms: N1_2  and  S1_16
REMARK    3  A    between atoms: C2_3  and  C3_4
REMARK    4  A    between atoms: C5_7  and  O2_8
REMARK    5  A    between atoms: C6_10  and  O3_11
REMARK    6  A    between atoms: C7_13  and  O4_14
REMARK    7  A    between atoms: S1_16  and  C8_19
REMARK    8  A    between atoms: C8_19  and  C9_20
REMARK    9  A    between atoms: C9_20  and  N2_21
ROOT
HETATM    1  C2  UNL     1      -2.049  -3.351  15.534  1.00  0.00     0.169 C
ENDROOT
BRANCH   1   2
HETATM    2  N1  UNL     1      -2.903  -2.684  14.621  1.00  0.00    -0.313 N
HETATM    3  C1  UNL     1      -4.016  -3.494  14.263  1.00  0.00     0.162 C
BRANCH   2   4
HETATM    4  S1  UNL     1      -3.190  -1.060  14.952  1.00  0.00     0.229 S
HETATM    5  O5  UNL     1      -4.659  -0.760  14.871  1.00  0.00    -0.206 OA
HETATM    6  O6  UNL     1      -2.570  -0.164  13.865  1.00  0.00    -0.206 OA
BRANCH   4   7
HETATM    7  C8  UNL     1      -2.574  -0.448  16.473  1.00  0.00     0.193 C
BRANCH   7   8
HETATM    8  C9  UNL     1      -2.276   1.004  16.473  1.00  0.00     0.289 C
BRANCH   8   9
HETATM    9  N2  UNL     1      -1.115   1.367  17.241  1.00  0.00     0.089 N
HETATM   10  C10 UNL     1      -0.117   2.099  16.550  1.00  0.00     0.272 C
HETATM   11  C11 UNL     1       1.130   1.919  17.428  1.00  0.00     0.032 C
HETATM   12  C12 UNL     1       0.994   0.471  17.843  1.00  0.00     0.032 C
HETATM   13  C13 UNL     1      -0.507   0.325  17.989  1.00  0.00     0.272 C
ENDBRANCH   8   9
ENDBRANCH   7   8
ENDBRANCH   4   7
ENDBRANCH   2   4
ENDBRANCH   1   2
BRANCH   1  14
HETATM   14  C3  UNL     1      -2.128  -4.837  15.601  1.00  0.00     0.171 C
HETATM   15  O1  UNL     1      -2.288  -5.331  16.880  1.00  0.00    -0.379 OA
HETATM   16  C4  UNL     1      -2.741  -6.666  16.801  1.00  0.00     0.202 C
HETATM   17  C5  UNL     1      -1.663  -7.543  16.200  1.00  0.00     0.173 C
HETATM   18  C6  UNL     1      -0.486  -6.633  15.869  1.00  0.00     0.180 C
HETATM   19  C7  UNL     1      -1.028  -5.576  14.923  1.00  0.00     0.180 C
BRANCH  17  20
HETATM   20  O2  UNL     1      -2.077  -8.080  14.961  1.00  0.00    -0.391 OA
ATOM     21  H2  UNL     1      -1.608  -8.882  14.763  1.00  0.00     0.210 HD
ENDBRANCH  17  20
BRANCH  18  22
HETATM   22  O3  UNL     1       0.567  -7.350  15.302  1.00  0.00    -0.390 OA
ATOM     23  H3  UNL     1       1.207  -7.601  15.958  1.00  0.00     0.210 HD
ENDBRANCH  18  22
BRANCH  19  24
HETATM   24  O4  UNL     1       0.005  -4.809  14.441  1.00  0.00    -0.390 OA
ATOM     25  H4  UNL     1      -0.144  -4.393  13.600  1.00  0.00     0.210 HD
ENDBRANCH  19  24
ENDBRANCH   1  14
TORSDOF 9
ENDMDL