MODEL 1
REMARK VINA RESULT: -5.947892350      0.000      0.000
REMARK  10 active torsions:
REMARK  status: ('A' for Active; 'I' for Inactive)
REMARK    1  A    between atoms: N1_2  and  C3_4
REMARK    2  A    between atoms: C3_4  and  C4_5
REMARK    3  A    between atoms: C5_6  and  C6_7
REMARK    4  A    between atoms: C6_7  and  O1_8
REMARK    5  A    between atoms: O1_8  and  C7_9
REMARK    6  A    between atoms: C8_10  and  O2_11
REMARK    7  A    between atoms: C10_14  and  C11_15
REMARK    8  A    between atoms: C11_15  and  O3_16
REMARK    9  A    between atoms: C12_18  and  N2_19
REMARK   10  A    between atoms: N2_19  and  S1_21
ROOT
HETATM    1  C7  UNL     1      -4.496  -2.087  15.745  1.00  0.00     0.175 C
HETATM    2  C8  UNL     1      -5.625  -1.102  15.981  1.00  0.00     0.149 C
HETATM    3  C9  UNL     1      -5.025   0.122  15.283  1.00  0.00     0.043 C
HETATM    4  C10 UNL     1      -3.636   0.125  15.886  1.00  0.00     0.038 C
HETATM    5  C12 UNL     1      -3.341  -1.271  16.322  1.00  0.00     0.130 C
ENDROOT
BRANCH   1   6
HETATM    6  O1  UNL     1      -4.218  -2.283  14.415  1.00  0.00    -0.369 OA
BRANCH   6   7
HETATM    7  C6  UNL     1      -4.568  -3.546  13.956  1.00  0.00     0.262 C
BRANCH   7   8
HETATM    8  C5  UNL     1      -3.680  -4.554  14.535  1.00  0.00    -0.079 C
HETATM    9  C4  UNL     1      -2.943  -5.392  14.993  1.00  0.00    -0.074 C
BRANCH   9  10
HETATM   10  C3  UNL     1      -2.042  -6.410  15.531  1.00  0.00     0.364 C
BRANCH  10  11
HETATM   11  N1  UNL     1      -0.806  -5.850  16.017  1.00  0.00     0.090 N
HETATM   12  C1  UNL     1      -0.651  -6.187  17.400  1.00  0.00     0.310 C
HETATM   13  C2  UNL     1       0.344  -6.271  15.255  1.00  0.00     0.310 C
ENDBRANCH  10  11
ENDBRANCH   9  10
ENDBRANCH   7   8
ENDBRANCH   6   7
ENDBRANCH   1   6
BRANCH   2  14
HETATM   14  O2  UNL     1      -6.816  -1.490  15.452  1.00  0.00    -0.393 OA
ATOM     15  H2  UNL     1      -7.089  -0.979  14.699  1.00  0.00     0.210 HD
ENDBRANCH   2  14
BRANCH   5  16
HETATM   16  N2  UNL     1      -2.066  -1.772  15.953  1.00  0.00    -0.312 N
ATOM     17  H2  UNL     1      -1.826  -2.006  14.990  1.00  0.00     0.172 HD
BRANCH  16  18
HETATM   18  S1  UNL     1      -0.964  -1.955  17.243  1.00  0.00     0.223 S
HETATM   19  C13 UNL     1      -1.694  -2.714  18.665  1.00  0.00     0.185 C
HETATM   20  O4  UNL     1      -0.502  -0.570  17.651  1.00  0.00    -0.206 OA
HETATM   21  O5  UNL     1       0.233  -2.748  16.824  1.00  0.00    -0.206 OA
ENDBRANCH  16  18
ENDBRANCH   5  16
BRANCH   4  22
HETATM   22  C11 UNL     1      -2.607   0.707  14.956  1.00  0.00     0.170 C
BRANCH  22  23
HETATM   23  O3  UNL     1      -2.999   0.426  13.647  1.00  0.00    -0.400 OA
ATOM     24  H3  UNL     1      -2.977   1.237  13.153  1.00  0.00     0.209 HD
ENDBRANCH  22  23
ENDBRANCH   4  22
TORSDOF 10
ENDMDL