MODEL 1
REMARK VINA RESULT: -6.677682271      0.000      0.000
REMARK  8 active torsions:
REMARK  status: ('A' for Active; 'I' for Inactive)
REMARK    1  A    between atoms: S1_2  and  C2_4
REMARK    2  A    between atoms: C2_4  and  C3_5
REMARK    3  A    between atoms: C4_6  and  N1_7
REMARK    4  A    between atoms: C6_12  and  C7_13
REMARK    5  A    between atoms: C7_13  and  O2_14
REMARK    6  A    between atoms: C8_16  and  N2_17
REMARK       I    between atoms: N2_17  and  C9_19
REMARK    7  A    between atoms: C9_19  and  C10_21
REMARK    8  A    between atoms: C10_21  and  N3_22
ROOT
HETATM    1  C3  UNL     1      -4.678  -2.944  14.479  1.00  0.00     0.051 C
HETATM    2  C4  UNL     1      -5.711  -2.236  15.332  1.00  0.00     0.191 C
HETATM    3  C5  UNL     1      -4.971  -1.220  16.154  1.00  0.00     0.042 C
HETATM    4  C6  UNL     1      -3.587  -1.175  15.571  1.00  0.00     0.034 C
HETATM    5  C8  UNL     1      -3.330  -2.555  14.970  1.00  0.00     0.097 C
ENDROOT
BRANCH   5   6
HETATM    6  N2  UNL     1      -2.788  -3.391  15.993  1.00  0.00    -0.351 N
HETATM    7  C9  UNL     1      -1.420  -3.754  15.967  1.00  0.00     0.257 C
HETATM    8  O3  UNL     1      -0.682  -3.334  15.034  1.00  0.00    -0.267 OA
ATOM      9  H2  UNL     1      -3.389  -3.728  16.745  1.00  0.00     0.163 HD
BRANCH   7  10
HETATM   10  C10 UNL     1      -0.896  -4.625  17.049  1.00  0.00     0.164 C
BRANCH  10  11
HETATM   11  N3  UNL     1      -1.147  -5.982  16.909  1.00  0.00    -0.361 N
HETATM   12  C11 UNL     1      -0.496  -6.723  15.914  1.00  0.00     0.153 C
HETATM   13  C12 UNL     1      -1.143  -8.116  15.871  1.00  0.00     0.188 C
HETATM   14  O4  UNL     1      -2.494  -8.013  15.595  1.00  0.00    -0.385 OA
HETATM   15  C13 UNL     1      -3.172  -7.131  16.407  1.00  0.00     0.212 C
HETATM   16  C14 UNL     1      -2.292  -6.548  17.507  1.00  0.00     0.089 C
ENDBRANCH  10  11
ENDBRANCH   7  10
ENDBRANCH   5   6
BRANCH   1  17
HETATM   17  C2  UNL     1      -4.972  -4.401  14.515  1.00  0.00     0.117 C
BRANCH  17  18
HETATM   18  S1  UNL     1      -6.039  -4.917  13.194  1.00  0.00     0.011 S
HETATM   19  C1  UNL     1      -5.574  -4.105  11.692  1.00  0.00     0.127 C
HETATM   20  O1  UNL     1      -7.644  -4.593  13.557  1.00  0.00    -0.258 OA
ENDBRANCH  17  18
ENDBRANCH   1  17
BRANCH   4  21
HETATM   21  C7  UNL     1      -3.461  -0.105  14.506  1.00  0.00     0.170 C
BRANCH  21  22
HETATM   22  O2  UNL     1      -2.480  -0.526  13.610  1.00  0.00    -0.400 OA
ATOM     23  H2  UNL     1      -2.838  -0.436  12.735  1.00  0.00     0.209 HD
ENDBRANCH  21  22
ENDBRANCH   4  21
BRANCH   2  24
HETATM   24  N1  UNL     1      -6.754  -1.631  14.518  1.00  0.00    -0.075 N
ATOM     25  H13 UNL     1      -6.714  -0.613  14.557  1.00  0.00     0.274 HD
ATOM     26  H12 UNL     1      -6.572  -1.759  13.524  1.00  0.00     0.274 HD
ATOM     27  H11 UNL     1      -7.679  -1.978  14.774  1.00  0.00     0.274 HD
ENDBRANCH   2  24
TORSDOF 8
ENDMDL