MODEL 4
REMARK VINA RESULT: -6.209775728      4.028      6.104
REMARK  11 active torsions:
REMARK  status: ('A' for Active; 'I' for Inactive)
REMARK    1  A    between atoms: N1_1  and  C1_5
REMARK    2  A    between atoms: C3_7  and  C4_8
REMARK    3  A    between atoms: C4_8  and  S1_9
REMARK    4  A    between atoms: S1_9  and  N2_10
REMARK    5  A    between atoms: C5_15  and  C6_16
REMARK    6  A    between atoms: C7_17  and  C8_18
REMARK    7  A    between atoms: C8_18  and  S2_19
REMARK    8  A    between atoms: S2_19  and  C9_21
REMARK    9  A    between atoms: C9_21  and  C10_22
REMARK   10  A    between atoms: C11_23  and  C12_24
REMARK   11  A    between atoms: C12_24  and  O4_25
ROOT
HETATM    1  C1  UNL     1      -5.094  -4.557  12.943  1.00  0.00     0.319 C
HETATM    2  C2  UNL     1      -6.546  -4.996  12.946  1.00  0.00     0.069 C
HETATM    3  C3  UNL     1      -7.053  -4.399  14.212  1.00  0.00     0.038 C
HETATM    4  C5  UNL     1      -6.029  -3.319  14.485  1.00  0.00     0.152 C
HETATM    5  O5  UNL     1      -4.843  -3.928  14.154  1.00  0.00    -0.349 OA
ENDROOT
BRANCH   4   6
HETATM    6  C6  UNL     1      -6.076  -2.773  15.841  1.00  0.00     0.002 C
HETATM    7  C7  UNL     1      -5.718  -1.553  16.182  1.00  0.00    -0.016 C
BRANCH   7   8
HETATM    8  C8  UNL     1      -5.206  -0.485  15.328  1.00  0.00     0.136 C
BRANCH   8   9
HETATM    9  S2  UNL     1      -3.436  -0.598  15.099  1.00  0.00     0.029 S
HETATM   10  O3  UNL     1      -3.073  -1.263  13.600  1.00  0.00    -0.257 OA
BRANCH   9  11
HETATM   11  C9  UNL     1      -2.661  -1.518  16.405  1.00  0.00     0.202 C
BRANCH  11  12
HETATM   12  C10 UNL     1      -2.089  -2.759  15.889  1.00  0.00    -0.092 C
HETATM   13  C11 UNL     1      -1.621  -3.790  15.476  1.00  0.00    -0.080 C
BRANCH  13  14
HETATM   14  C12 UNL     1      -1.034  -5.054  14.970  1.00  0.00     0.257 C
BRANCH  14  15
HETATM   15  O4  UNL     1       0.217  -4.781  14.470  1.00  0.00    -0.389 OA
ATOM     16  H4  UNL     1       0.260  -5.103  13.577  1.00  0.00     0.210 HD
ENDBRANCH  14  15
ENDBRANCH  13  14
ENDBRANCH  11  12
ENDBRANCH   9  11
ENDBRANCH   8   9
ENDBRANCH   7   8
ENDBRANCH   4   6
BRANCH   3  17
HETATM   17  C4  UNL     1      -8.403  -3.776  14.143  1.00  0.00     0.170 C
BRANCH  17  18
HETATM   18  S1  UNL     1      -9.738  -4.912  14.306  1.00  0.00     0.224 S
HETATM   19  O1  UNL     1     -11.025  -4.135  14.357  1.00  0.00    -0.206 OA
HETATM   20  O2  UNL     1      -9.790  -5.870  13.148  1.00  0.00    -0.206 OA
BRANCH  18  21
HETATM   21  N2  UNL     1      -9.612  -5.867  15.737  1.00  0.00    -0.328 N
ATOM     22  H22 UNL     1      -8.757  -5.930  16.291  1.00  0.00     0.168 HD
ATOM     23  H21 UNL     1     -10.483  -6.352  15.956  1.00  0.00     0.168 HD
ENDBRANCH  18  21
ENDBRANCH  17  18
ENDBRANCH   3  17
BRANCH   1  24
HETATM   24  N1  UNL     1      -4.924  -3.571  11.906  1.00  0.00    -0.053 N
ATOM     25  H13 UNL     1      -4.783  -3.989  10.986  1.00  0.00     0.277 HD
ATOM     26  H12 UNL     1      -5.786  -3.067  11.698  1.00  0.00     0.277 HD
ATOM     27  H11 UNL     1      -4.161  -2.951  12.178  1.00  0.00     0.277 HD
ENDBRANCH   1  24
TORSDOF 11
ENDMDL