MODEL 3
REMARK VINA RESULT: -6.193141331      2.984      5.283
REMARK  7 active torsions:
REMARK  status: ('A' for Active; 'I' for Inactive)
REMARK    1  A    between atoms: N1_2  and  S1_4
REMARK    2  A    between atoms: S1_4  and  N2_7
REMARK    3  A    between atoms: N2_7  and  C2_9
REMARK    4  A    between atoms: C2_9  and  C3_10
REMARK    5  A    between atoms: C9_17  and  O4_18
REMARK    6  A    between atoms: C11_20  and  O5_21
REMARK    7  A    between atoms: C12_23  and  O6_24
ROOT
HETATM    1  C3  UNL     1      -3.152  -3.581  15.134  1.00  0.00     0.113 C
HETATM    2  O3  UNL     1      -2.816  -2.335  14.672  1.00  0.00    -0.364 OA
HETATM    3  C4  UNL     1      -3.302  -1.377  15.502  1.00  0.00     0.063 A
HETATM    4  C5  UNL     1      -3.728  -0.091  14.814  1.00  0.00     0.046 C
HETATM    5  C6  UNL     1      -2.803  -1.191  16.899  1.00  0.00     0.046 A
HETATM    6  C7  UNL     1      -4.057  -1.959  16.602  1.00  0.00     0.032 A
HETATM    7  C8  UNL     1      -3.836  -3.454  16.449  1.00  0.00     0.063 C
HETATM    8  C9  UNL     1      -5.133  -4.213  16.384  1.00  0.00     0.159 C
HETATM    9  C11 UNL     1      -5.303  -4.692  14.980  1.00  0.00     0.179 C
HETATM   10  C12 UNL     1      -4.133  -4.225  14.175  1.00  0.00     0.188 C
ENDROOT
BRANCH   1  11
HETATM   11  C2  UNL     1      -1.880  -4.387  15.200  1.00  0.00     0.175 C
BRANCH  11  12
HETATM   12  N2  UNL     1      -1.848  -5.301  16.318  1.00  0.00    -0.300 N
ATOM     13  H2  UNL     1      -1.836  -5.057  17.308  1.00  0.00     0.173 HD
BRANCH  12  14
HETATM   14  S1  UNL     1      -1.833  -6.909  15.632  1.00  0.00     0.314 S
HETATM   15  O1  UNL     1      -1.777  -6.830  14.144  1.00  0.00    -0.183 OA
HETATM   16  O2  UNL     1      -3.131  -7.576  16.008  1.00  0.00    -0.183 OA
BRANCH  14  17
HETATM   17  N1  UNL     1      -0.476  -7.781  16.250  1.00  0.00    -0.307 N
HETATM   18  C1  UNL     1       0.764  -7.361  15.666  1.00  0.00     0.161 C
ATOM     19  H1  UNL     1      -0.549  -8.516  16.954  1.00  0.00     0.173 HD
ENDBRANCH  14  17
ENDBRANCH  12  14
ENDBRANCH  11  12
ENDBRANCH   1  11
BRANCH  10  20
HETATM   20  O6  UNL     1      -4.583  -3.304  13.247  1.00  0.00    -0.385 OA
HETATM   21  C13 UNL     1      -5.406  -3.873  12.311  1.00  0.00     0.202 C
ENDBRANCH  10  20
BRANCH   8  22
HETATM   22  O4  UNL     1      -6.146  -3.329  16.766  1.00  0.00    -0.388 OA
HETATM   23  C10 UNL     1      -7.209  -3.332  15.863  1.00  0.00     0.202 C
ENDBRANCH   8  22
BRANCH   9  24
HETATM   24  O5  UNL     1      -5.476  -6.092  14.914  1.00  0.00    -0.390 OA
ATOM     25  H5  UNL     1      -6.153  -6.339  14.294  1.00  0.00     0.210 HD
ENDBRANCH   9  24
TORSDOF 7
ENDMDL