MODEL 1
REMARK VINA RESULT: -8.389489068      0.000      0.000
REMARK  4 active torsions:
REMARK  status: ('A' for Active; 'I' for Inactive)
REMARK    1  A    between atoms: C5_6  and  N2_7
REMARK    2  A    between atoms: N3_9  and  C6_11
REMARK    3  A    between atoms: C8_15  and  C9_16
REMARK    4  A    between atoms: C18_30  and  N7_31
ROOT
HETATM    1  N1  UNL     1     -10.920  47.730  47.388  1.00  0.00    -0.191 NA
HETATM    2  C1  UNL     1     -10.726  47.193  48.393  1.00  0.00     0.104 C
HETATM    3  C2  UNL     1     -10.489  46.543  49.658  1.00  0.00     0.101 C
HETATM    4  C3  UNL     1     -11.635  46.250  50.347  1.00  0.00     0.018 A
HETATM    5  C4  UNL     1     -12.932  46.313  49.872  1.00  0.00     0.046 A
HETATM    6  C5  UNL     1     -13.759  45.932  50.908  1.00  0.00     0.051 A
HETATM    7  C16 UNL     1     -13.029  45.628  52.033  1.00  0.00     0.061 A
HETATM    8  C17 UNL     1     -11.700  45.804  51.751  1.00  0.00     0.063 A
HETATM    9  N6  UNL     1     -10.663  45.607  52.601  1.00  0.00    -0.191 N
ATOM     10  H6  UNL     1     -10.916  45.463  53.579  1.00  0.00     0.184 HD
HETATM   11  C18 UNL     1      -9.349  45.575  52.330  1.00  0.00     0.677 C
HETATM   12  N8  UNL     1      -8.741  45.837  51.177  1.00  0.00    -0.176 N
ATOM     13  H8  UNL     1      -7.741  45.640  51.193  1.00  0.00     0.186 HD
HETATM   14  C19 UNL     1      -9.171  46.309  49.995  1.00  0.00     0.136 C
HETATM   15  N9  UNL     1      -8.273  46.562  49.110  1.00  0.00    -0.384 N
ATOM     16  H91 UNL     1      -7.299  46.388  49.360  1.00  0.00     0.157 HD
ATOM     17  H92 UNL     1      -8.600  46.920  48.213  1.00  0.00     0.157 HD
ENDROOT
BRANCH   6  18
HETATM   18  N2  UNL     1     -15.193  45.861  50.830  1.00  0.00    -0.299 N
HETATM   19  N3  UNL     1     -15.699  46.194  49.705  1.00  0.00    -0.281 N
ATOM     20  H3  UNL     1     -15.119  46.490  48.920  1.00  0.00     0.188 HD
ATOM     21  H2  UNL     1     -15.767  45.564  51.619  1.00  0.00     0.187 HD
BRANCH  19  22
HETATM   22  C6  UNL     1     -17.114  46.129  49.609  1.00  0.00     0.189 A
HETATM   23  N4  UNL     1     -17.640  45.176  48.811  1.00  0.00    -0.344 N
HETATM   24  C7  UNL     1     -19.005  45.069  48.683  1.00  0.00     0.120 A
ATOM     25  H4  UNL     1     -17.028  44.536  48.305  1.00  0.00     0.167 HD
HETATM   26  C8  UNL     1     -19.842  45.927  49.360  1.00  0.00     0.060 A
HETATM   27  N5  UNL     1     -19.266  46.860  50.141  1.00  0.00    -0.318 N
HETATM   28  C15 UNL     1     -17.931  46.996  50.293  1.00  0.00     0.291 A
ATOM     29  H5  UNL     1     -19.875  47.503  50.648  1.00  0.00     0.169 HD
HETATM   30  O1  UNL     1     -17.412  47.873  51.026  1.00  0.00    -0.264 OA
BRANCH  26  31
HETATM   31  C9  UNL     1     -21.282  45.785  49.200  1.00  0.00    -0.008 A
HETATM   32  C10 UNL     1     -21.828  45.214  48.057  1.00  0.00     0.014 A
HETATM   33  C11 UNL     1     -23.198  45.061  47.869  1.00  0.00     0.001 A
HETATM   34  C12 UNL     1     -24.086  45.480  48.831  1.00  0.00     0.000 A
HETATM   35  C13 UNL     1     -23.558  46.044  49.960  1.00  0.00     0.001 A
HETATM   36  C14 UNL     1     -22.180  46.199  50.153  1.00  0.00     0.014 A
ENDBRANCH  26  31
ENDBRANCH  19  22
ENDBRANCH   6  18
BRANCH  11  37
HETATM   37  N7  UNL     1      -8.580  45.247  53.310  1.00  0.00    -0.234 N
ATOM     38  H72 UNL     1      -8.870  44.433  53.851  1.00  0.00     0.174 HD
ATOM     39  H71 UNL     1      -7.758  45.836  53.448  1.00  0.00     0.174 HD
ENDBRANCH  11  37
TORSDOF 4
ENDMDL