MODEL 1
REMARK VINA RESULT: -8.876324438      0.000      0.000
REMARK  5 active torsions:
REMARK  status: ('A' for Active; 'I' for Inactive)
REMARK    1  A    between atoms: C4_8  and  N4_9
REMARK    2  A    between atoms: C5_14  and  N6_15
REMARK    3  A    between atoms: N6_15  and  C6_17
REMARK    4  A    between atoms: C8_19  and  C9_20
REMARK    5  A    between atoms: C13_27  and  C14_28
ROOT
HETATM    1  N1  UNL     1      -6.562  47.673  56.987  1.00  0.00    -0.191 NA
HETATM    2  C1  UNL     1      -6.580  46.620  56.475  1.00  0.00     0.107 C
HETATM    3  C2  UNL     1      -6.577  45.339  55.847  1.00  0.00     0.130 A
HETATM    4  C3  UNL     1      -5.825  44.314  56.432  1.00  0.00     0.156 A
HETATM    5  N2  UNL     1      -5.105  44.606  57.619  1.00  0.00    -0.080 NA
HETATM    6  N3  UNL     1      -5.783  43.092  55.889  1.00  0.00    -0.177 N
ATOM      7  H3  UNL     1      -5.233  42.349  56.320  1.00  0.00     0.185 HD
HETATM    8  C4  UNL     1      -6.484  42.863  54.761  1.00  0.00     0.678 A
HETATM    9  N5  UNL     1      -7.225  43.847  54.171  1.00  0.00    -0.175 N
ATOM     10  H5  UNL     1      -7.744  43.641  53.317  1.00  0.00     0.186 HD
HETATM   11  C5  UNL     1      -7.282  45.077  54.697  1.00  0.00     0.146 A
ENDROOT
BRANCH  11  12
HETATM   12  N6  UNL     1      -7.968  45.999  54.158  1.00  0.00    -0.327 N
ATOM     13  H6  UNL     1      -7.757  46.961  54.421  1.00  0.00     0.169 HD
BRANCH  12  14
HETATM   14  C6  UNL     1      -9.007  45.785  53.216  1.00  0.00     0.107 A
HETATM   15  C7  UNL     1     -10.131  45.095  53.662  1.00  0.00     0.062 A
HETATM   16  C8  UNL     1     -11.157  44.868  52.780  1.00  0.00    -0.003 A
HETATM   17  C12 UNL     1     -11.024  45.342  51.475  1.00  0.00     0.044 A
HETATM   18  C13 UNL     1      -9.913  46.021  51.046  1.00  0.00     0.044 A
HETATM   19  N8  UNL     1      -8.939  46.216  51.948  1.00  0.00    -0.342 N
ATOM     20  H8  UNL     1      -8.102  46.718  51.654  1.00  0.00     0.167 HD
BRANCH  16  21
HETATM   21  C9  UNL     1     -12.383  44.135  53.204  1.00  0.00     0.049 A
HETATM   22  C10 UNL     1     -12.606  43.812  54.521  1.00  0.00     0.081 A
HETATM   23  S1  UNL     1     -14.108  43.006  54.432  1.00  0.00    -0.094 SA
HETATM   24  C11 UNL     1     -14.363  43.127  52.749  1.00  0.00     0.138 A
HETATM   25  N7  UNL     1     -13.286  43.775  52.343  1.00  0.00    -0.359 N
ATOM     26  H7  UNL     1     -13.164  43.992  51.354  1.00  0.00     0.166 HD
ENDBRANCH  16  21
BRANCH  18  27
HETATM   27  C14 UNL     1      -9.745  46.533  49.674  1.00  0.00    -0.009 A
HETATM   28  C15 UNL     1      -8.614  46.358  48.938  1.00  0.00     0.013 A
HETATM   29  C16 UNL     1      -8.526  46.872  47.647  1.00  0.00     0.001 A
HETATM   30  C17 UNL     1      -9.564  47.564  47.075  1.00  0.00     0.000 A
HETATM   31  C18 UNL     1     -10.692  47.731  47.830  1.00  0.00     0.001 A
HETATM   32  C19 UNL     1     -10.786  47.234  49.088  1.00  0.00     0.013 A
ENDBRANCH  18  27
ENDBRANCH  12  14
ENDBRANCH  11  12
BRANCH   8  33
HETATM   33  N4  UNL     1      -6.463  41.694  54.216  1.00  0.00    -0.234 N
ATOM     34  H42 UNL     1      -5.700  41.058  54.452  1.00  0.00     0.174 HD
ATOM     35  H41 UNL     1      -7.199  41.423  53.564  1.00  0.00     0.174 HD
ENDBRANCH   8  33
TORSDOF 5
ENDMDL