MODEL 1
REMARK VINA RESULT: -7.109202283      0.000      0.000
REMARK  5 active torsions:
REMARK  status: ('A' for Active; 'I' for Inactive)
REMARK    1  A    between atoms: C3_6  and  S1_7
REMARK    2  A    between atoms: S1_7  and  C4_8
REMARK    3  A    between atoms: C7_11  and  N3_12
REMARK    4  A    between atoms: N3_12  and  C8_14
REMARK    5  A    between atoms: C11_22  and  N6_23
ROOT
HETATM    1  N1  UNL     1     -22.243  49.383  47.292  1.00  0.00    -0.190 NA
HETATM    2  C1  UNL     1     -22.284  48.227  47.293  1.00  0.00     0.119 C
HETATM    3  C2  UNL     1     -22.323  46.798  47.276  1.00  0.00     0.139 A
HETATM    4  N2  UNL     1     -21.653  46.114  48.217  1.00  0.00    -0.340 N
ATOM      5  H2  UNL     1     -21.131  46.629  48.926  1.00  0.00     0.167 HD
HETATM    6  C3  UNL     1     -21.651  44.764  48.254  1.00  0.00     0.075 A
HETATM    7  C15 UNL     1     -22.359  44.074  47.293  1.00  0.00     0.039 A
HETATM    8  C16 UNL     1     -23.052  44.758  46.319  1.00  0.00     0.032 A
HETATM    9  C17 UNL     1     -23.051  46.145  46.286  1.00  0.00     0.084 A
HETATM   10  N8  UNL     1     -23.754  46.864  45.296  1.00  0.00    -0.099 NA
ENDROOT
BRANCH   6  11
HETATM   11  S1  UNL     1     -20.762  43.890  49.504  1.00  0.00    -0.073 SA
BRANCH  11  12
HETATM   12  C4  UNL     1     -19.209  44.695  49.827  1.00  0.00     0.007 A
HETATM   13  C5  UNL     1     -18.224  44.661  48.893  1.00  0.00     0.021 A
HETATM   14  C6  UNL     1     -17.025  45.294  49.167  1.00  0.00     0.031 A
HETATM   15  C7  UNL     1     -16.778  45.961  50.347  1.00  0.00     0.033 A
HETATM   16  C13 UNL     1     -17.793  45.990  51.297  1.00  0.00     0.031 A
HETATM   17  C14 UNL     1     -18.991  45.353  51.014  1.00  0.00     0.021 A
BRANCH  15  18
HETATM   18  N3  UNL     1     -15.533  46.595  50.582  1.00  0.00    -0.340 N
ATOM     19  H3  UNL     1     -15.417  47.596  50.424  1.00  0.00     0.167 HD
BRANCH  18  20
HETATM   20  C8  UNL     1     -14.554  45.874  50.998  1.00  0.00     0.149 A
HETATM   21  N4  UNL     1     -14.742  44.957  51.926  1.00  0.00    -0.284 N
HETATM   22  N5  UNL     1     -13.860  44.147  52.454  1.00  0.00    -0.309 N
ATOM     23  H4  UNL     1     -15.697  44.867  52.276  1.00  0.00     0.188 HD
HETATM   24  C9  UNL     1     -12.596  44.286  51.969  1.00  0.00     0.128 A
ATOM     25  H5  UNL     1     -14.102  43.465  53.172  1.00  0.00     0.186 HD
HETATM   26  C10 UNL     1     -12.323  45.238  50.987  1.00  0.00     0.056 A
HETATM   27  S2  UNL     1     -10.898  45.713  50.137  1.00  0.00    -0.051 SA
HETATM   28  C12 UNL     1     -13.265  46.069  50.454  1.00  0.00     0.099 A
HETATM   29  C11 UNL     1     -11.614  46.937  49.168  1.00  0.00     0.143 A
HETATM   30  N7  UNL     1     -12.888  46.912  49.545  1.00  0.00    -0.333 N
ATOM     31  H7  UNL     1     -13.562  47.550  49.123  1.00  0.00     0.168 HD
BRANCH  29  32
HETATM   32  N6  UNL     1     -11.015  47.687  48.286  1.00  0.00    -0.380 N
ATOM     33  H62 UNL     1     -10.240  48.341  48.398  1.00  0.00     0.158 HD
ATOM     34  H61 UNL     1     -11.228  47.751  47.290  1.00  0.00     0.158 HD
ENDBRANCH  29  32
ENDBRANCH  18  20
ENDBRANCH  15  18
ENDBRANCH  11  12
ENDBRANCH   6  11
TORSDOF 5
ENDMDL