MODEL 3
REMARK VINA RESULT: -8.199894214      3.517      5.657
REMARK  4 active torsions:
REMARK  status: ('A' for Active; 'I' for Inactive)
REMARK    1  A    between atoms: C3_4  and  C4_5
REMARK    2  A    between atoms: C7_10  and  N3_11
REMARK    3  A    between atoms: C9_18  and  S1_19
REMARK    4  A    between atoms: S1_19  and  C10_20
ROOT
HETATM    1  N1  UNL     1     -23.576  42.815  47.749  1.00  0.00    -0.191 NA
HETATM    2  C1  UNL     1     -22.686  43.464  48.105  1.00  0.00     0.104 C
HETATM    3  C2  UNL     1     -21.583  44.296  48.543  1.00  0.00     0.102 A
HETATM    4  C3  UNL     1     -21.495  45.571  48.028  1.00  0.00     0.043 A
HETATM    5  C8  UNL     1     -20.426  46.371  48.454  1.00  0.00     0.094 A
HETATM    6  N5  UNL     1     -20.272  47.698  47.966  1.00  0.00    -0.098 NA
HETATM    7  C9  UNL     1     -19.498  45.900  49.355  1.00  0.00     0.103 A
HETATM    8  N7  UNL     1     -19.629  44.646  49.828  1.00  0.00    -0.334 N
ATOM      9  H7  UNL     1     -18.944  44.292  50.496  1.00  0.00     0.168 HD
HETATM   10  C19 UNL     1     -20.648  43.843  49.439  1.00  0.00     0.121 A
HETATM   11  N8  UNL     1     -20.750  42.655  49.904  1.00  0.00    -0.384 N
ATOM     12  H81 UNL     1     -20.055  42.318  50.570  1.00  0.00     0.157 HD
ATOM     13  H82 UNL     1     -21.518  42.050  49.610  1.00  0.00     0.157 HD
ENDROOT
BRANCH   4  14
HETATM   14  C4  UNL     1     -22.463  46.101  47.072  1.00  0.00     0.064 A
HETATM   15  C5  UNL     1     -23.671  46.633  47.454  1.00  0.00     0.048 A
HETATM   16  C6  UNL     1     -24.512  47.104  46.488  1.00  0.00     0.108 A
HETATM   17  N2  UNL     1     -24.197  47.062  45.186  1.00  0.00    -0.202 N
HETATM   18  C7  UNL     1     -23.017  46.540  44.836  1.00  0.00     0.676 A
ATOM     19  H2  UNL     1     -24.841  47.419  44.480  1.00  0.00     0.183 HD
HETATM   20  N4  UNL     1     -22.150  46.060  45.772  1.00  0.00    -0.191 N
ATOM     21  H4  UNL     1     -21.256  45.666  45.478  1.00  0.00     0.184 HD
BRANCH  18  22
HETATM   22  N3  UNL     1     -22.659  46.474  43.590  1.00  0.00    -0.234 N
ATOM     23  H32 UNL     1     -22.503  47.352  43.093  1.00  0.00     0.174 HD
ATOM     24  H31 UNL     1     -22.538  45.574  43.125  1.00  0.00     0.174 HD
ENDBRANCH  18  22
ENDBRANCH   4  14
BRANCH   7  25
HETATM   25  S1  UNL     1     -18.164  46.972  49.854  1.00  0.00    -0.053 SA
BRANCH  25  26
HETATM   26  C10 UNL     1     -16.806  46.096  50.554  1.00  0.00     0.076 A
HETATM   27  C11 UNL     1     -16.957  45.129  51.522  1.00  0.00     0.038 A
HETATM   28  C12 UNL     1     -15.860  44.466  52.044  1.00  0.00     0.016 A
HETATM   29  C13 UNL     1     -14.614  44.804  51.565  1.00  0.00    -0.009 A
HETATM   30  C14 UNL     1     -13.456  44.196  52.026  1.00  0.00     0.013 A
HETATM   31  C18 UNL     1     -14.469  45.781  50.589  1.00  0.00     0.043 A
HETATM   32  C15 UNL     1     -12.221  44.556  51.527  1.00  0.00     0.001 A
HETATM   33  C16 UNL     1     -12.083  45.522  50.562  1.00  0.00     0.002 A
HETATM   34  C17 UNL     1     -13.221  46.135  50.094  1.00  0.00     0.030 A
HETATM   35  N6  UNL     1     -15.566  46.379  50.131  1.00  0.00    -0.350 N
ATOM     36  H6  UNL     1     -15.457  47.096  49.414  1.00  0.00     0.166 HD
ENDBRANCH  25  26
ENDBRANCH   7  25
TORSDOF 4
ENDMDL