MODEL 3
REMARK VINA RESULT: -6.842770445      3.010      4.704
REMARK  5 active torsions:
REMARK  status: ('A' for Active; 'I' for Inactive)
REMARK    1  A    between atoms: N1_2  and  C2_4
REMARK    2  A    between atoms: C3_7  and  C4_8
REMARK    3  A    between atoms: C5_10  and  N3_11
REMARK    4  A    between atoms: N3_11  and  C6_13
REMARK    5  A    between atoms: C7_16  and  C8_17
ROOT
HETATM    1  C6  UNL     1     -15.212  45.841  51.604  1.00  0.00     0.684 A
HETATM    2  N4  UNL     1     -14.402  46.617  50.825  1.00  0.00    -0.186 N
ATOM      3  H4  UNL     1     -14.658  47.522  50.431  1.00  0.00     0.184 HD
HETATM    4  C7  UNL     1     -13.219  46.007  50.658  1.00  0.00     0.109 A
HETATM    5  C12 UNL     1     -13.302  44.820  51.356  1.00  0.00     0.140 A
HETATM    6  N8  UNL     1     -14.526  44.723  51.933  1.00  0.00    -0.199 N
ATOM      7  H8  UNL     1     -14.865  43.951  52.508  1.00  0.00     0.183 HD
ENDROOT
BRANCH   1   8
HETATM    8  N3  UNL     1     -16.525  46.097  52.023  1.00  0.00    -0.170 N
ATOM      9  H3  UNL     1     -16.761  46.129  53.015  1.00  0.00     0.186 HD
BRANCH   8  10
HETATM   10  C5  UNL     1     -17.446  46.294  51.104  1.00  0.00     0.164 A
HETATM   11  S1  UNL     1     -18.401  45.146  50.293  1.00  0.00    -0.049 SA
HETATM   12  C4  UNL     1     -19.312  46.231  49.291  1.00  0.00     0.058 A
HETATM   13  C13 UNL     1     -18.797  47.432  49.662  1.00  0.00     0.027 A
HETATM   14  N9  UNL     1     -17.857  47.441  50.579  1.00  0.00    -0.339 N
HETATM   15  C14 UNL     1     -19.252  48.732  49.009  1.00  0.00     0.070 C
ATOM     16  H9  UNL     1     -17.447  48.323  50.886  1.00  0.00     0.168 HD
BRANCH  12  17
HETATM   17  C3  UNL     1     -20.417  45.837  48.357  1.00  0.00     0.060 A
HETATM   18  N2  UNL     1     -20.782  46.440  47.269  1.00  0.00    -0.335 N
HETATM   19  C2  UNL     1     -21.763  45.931  46.521  1.00  0.00     0.144 A
ATOM     20  H2  UNL     1     -20.320  47.304  46.985  1.00  0.00     0.168 HD
HETATM   21  S2  UNL     1     -22.210  44.532  47.375  1.00  0.00    -0.064 SA
HETATM   22  C15 UNL     1     -21.114  44.659  48.663  1.00  0.00     0.084 A
BRANCH  19  23
HETATM   23  N1  UNL     1     -22.246  46.419  45.395  1.00  0.00    -0.375 N
HETATM   24  C1  UNL     1     -23.606  46.843  45.346  1.00  0.00     0.148 C
ATOM     25  H1  UNL     1     -21.653  46.493  44.569  1.00  0.00     0.161 HD
ENDBRANCH  19  23
ENDBRANCH  12  17
ENDBRANCH   8  10
ENDBRANCH   1   8
BRANCH   4  26
HETATM   26  C8  UNL     1     -12.070  46.489  49.899  1.00  0.00     0.135 A
HETATM   27  N5  UNL     1     -10.827  46.139  50.221  1.00  0.00    -0.327 N
HETATM   28  C9  UNL     1      -9.740  46.574  49.529  1.00  0.00     0.101 A
ATOM     29  H5  UNL     1     -10.683  45.520  51.020  1.00  0.00     0.169 HD
HETATM   30  N6  UNL     1      -8.539  46.226  49.853  1.00  0.00    -0.385 N
HETATM   31  C10 UNL     1      -9.923  47.412  48.448  1.00  0.00     0.065 A
ATOM     32  H62 UNL     1      -8.404  45.606  50.652  1.00  0.00     0.157 HD
ATOM     33  H61 UNL     1      -7.724  46.551  49.334  1.00  0.00     0.157 HD
HETATM   34  C11 UNL     1     -11.213  47.776  48.112  1.00  0.00     0.093 A
HETATM   35  N7  UNL     1     -12.240  47.305  48.846  1.00  0.00    -0.350 N
ATOM     36  H7  UNL     1     -13.189  47.579  48.590  1.00  0.00     0.166 HD
ENDBRANCH   4  26
TORSDOF 5
ENDMDL