MODEL 2
REMARK VINA RESULT: -8.147371511      3.129      4.430
REMARK  5 active torsions:
REMARK  status: ('A' for Active; 'I' for Inactive)
REMARK    1  A    between atoms: N1_1  and  C1_4
REMARK    2  A    between atoms: C3_8  and  N3_9
REMARK    3  A    between atoms: N3_9  and  C4_11
REMARK    4  A    between atoms: C6_13  and  N4_14
REMARK    5  A    between atoms: C13_28  and  C14_29
ROOT
HETATM    1  C1  UNL     1     -11.174  45.224  52.106  1.00  0.00     0.110 A
HETATM    2  N2  UNL     1     -11.110  44.717  53.359  1.00  0.00    -0.338 N
ATOM      3  H2  UNL     1     -11.934  44.281  53.774  1.00  0.00     0.167 HD
HETATM    4  C2  UNL     1      -9.958  44.788  54.064  1.00  0.00     0.089 A
HETATM    5  C3  UNL     1      -9.936  44.247  55.369  1.00  0.00     0.089 A
HETATM    6  C9  UNL     1      -8.764  44.326  56.070  1.00  0.00     0.090 A
HETATM    7  N6  UNL     1      -8.658  43.812  57.380  1.00  0.00    -0.099 NA
HETATM    8  C10 UNL     1      -7.675  44.927  55.464  1.00  0.00     0.117 A
HETATM    9  N7  UNL     1      -7.711  45.434  54.228  1.00  0.00    -0.362 N
ATOM     10  H7  UNL     1      -6.877  45.865  53.831  1.00  0.00     0.165 HD
HETATM   11  C11 UNL     1      -8.853  45.377  53.500  1.00  0.00     0.062 A
HETATM   12  C12 UNL     1      -8.924  45.889  52.225  1.00  0.00     0.048 A
HETATM   13  C13 UNL     1     -10.095  45.823  51.497  1.00  0.00     0.020 A
ENDROOT
BRANCH   5  14
HETATM   14  N3  UNL     1     -11.015  43.740  55.764  1.00  0.00    -0.339 N
ATOM     15  H3  UNL     1     -11.676  44.409  56.158  1.00  0.00     0.167 HD
BRANCH  14  16
HETATM   16  C4  UNL     1     -11.465  42.418  55.759  1.00  0.00     0.107 A
HETATM   17  C5  UNL     1     -12.782  42.122  55.416  1.00  0.00     0.084 A
HETATM   18  C6  UNL     1     -13.294  40.843  55.401  1.00  0.00     0.107 A
HETATM   19  C7  UNL     1     -12.417  39.836  55.751  1.00  0.00     0.053 A
HETATM   20  C8  UNL     1     -11.100  40.093  56.099  1.00  0.00     0.092 A
HETATM   21  N5  UNL     1     -10.669  41.366  56.091  1.00  0.00    -0.352 N
ATOM     22  H5  UNL     1      -9.700  41.552  56.346  1.00  0.00     0.166 HD
BRANCH  18  23
HETATM   23  N4  UNL     1     -14.641  40.555  55.048  1.00  0.00    -0.116 N
HETATM   24  O1  UNL     1     -15.052  40.655  53.868  1.00  0.00    -0.532 OA
HETATM   25  O2  UNL     1     -15.499  40.156  56.043  1.00  0.00    -0.532 OA
ENDBRANCH  18  23
ENDBRANCH  14  16
ENDBRANCH   5  14
BRANCH   1  26
HETATM   26  N1  UNL     1     -12.302  45.117  51.489  1.00  0.00    -0.385 N
ATOM     27  H12 UNL     1     -12.916  44.320  51.662  1.00  0.00     0.157 HD
ATOM     28  H11 UNL     1     -12.543  45.861  50.835  1.00  0.00     0.157 HD
ENDBRANCH   1  26
BRANCH  13  29
HETATM   29  C14 UNL     1     -10.154  46.374  50.154  1.00  0.00    -0.020 A
HETATM   30  C15 UNL     1     -11.322  46.906  49.681  1.00  0.00     0.012 A
HETATM   31  C16 UNL     1     -11.404  47.436  48.389  1.00  0.00     0.003 A
HETATM   32  C17 UNL     1     -10.309  47.433  47.573  1.00  0.00     0.026 A
HETATM   33  C18 UNL     1      -9.126  46.892  48.061  1.00  0.00     0.047 A
HETATM   34  N8  UNL     1      -7.975  46.876  47.238  1.00  0.00    -0.102 NA
HETATM   35  C19 UNL     1      -9.034  46.371  49.319  1.00  0.00     0.039 A
ENDBRANCH  13  29
TORSDOF 5
ENDMDL