MODEL 2
REMARK VINA RESULT: -7.490834009      1.080      1.658
REMARK  5 active torsions:
REMARK  status: ('A' for Active; 'I' for Inactive)
REMARK    1  A    between atoms: N1_1  and  C1_4
REMARK    2  A    between atoms: C3_8  and  C4_9
REMARK    3  A    between atoms: C6_11  and  C7_12
REMARK    4  A    between atoms: C10_21  and  C11_22
REMARK    5  A    between atoms: C14_27  and  N7_28
ROOT
HETATM    1  C4  UNL     1     -10.362  45.774  51.192  1.00  0.00    -0.021 A
HETATM    2  C5  UNL     1     -11.570  45.233  51.425  1.00  0.00     0.028 A
HETATM    3  C6  UNL     1     -11.986  44.650  52.640  1.00  0.00     0.023 A
HETATM    4  C9  UNL     1     -11.090  44.604  53.713  1.00  0.00     0.008 A
HETATM    5  C10 UNL     1     -11.260  44.088  54.949  1.00  0.00     0.010 A
HETATM    6  C15 UNL     1     -10.170  44.203  55.833  1.00  0.00     0.065 A
HETATM    7  S1  UNL     1      -9.004  44.982  54.927  1.00  0.00    -0.100 SA
HETATM    8  C16 UNL     1      -9.848  45.171  53.460  1.00  0.00     0.017 A
HETATM    9  C17 UNL     1      -9.473  45.744  52.242  1.00  0.00     0.032 A
ENDROOT
BRANCH   1  10
HETATM   10  C3  UNL     1      -9.951  46.372  49.928  1.00  0.00     0.006 A
HETATM   11  C2  UNL     1     -10.867  47.128  49.221  1.00  0.00     0.119 A
HETATM   12  N2  UNL     1     -10.543  47.704  48.047  1.00  0.00    -0.201 N
HETATM   13  C1  UNL     1      -9.323  47.558  47.533  1.00  0.00     0.675 A
ATOM     14  H2  UNL     1     -11.238  48.258  47.547  1.00  0.00     0.183 HD
HETATM   15  N9  UNL     1      -8.420  46.825  48.205  1.00  0.00    -0.201 N
HETATM   16  C18 UNL     1      -8.697  46.228  49.389  1.00  0.00     0.119 A
ATOM     17  H9  UNL     1      -7.486  46.714  47.808  1.00  0.00     0.183 HD
BRANCH  13  18
HETATM   18  N1  UNL     1      -8.966  48.094  46.406  1.00  0.00    -0.234 N
ATOM     19  H12 UNL     1      -9.153  47.581  45.545  1.00  0.00     0.174 HD
ATOM     20  H11 UNL     1      -8.509  49.005  46.348  1.00  0.00     0.174 HD
ENDBRANCH  13  18
ENDBRANCH   1  10
BRANCH   3  21
HETATM   21  C7  UNL     1     -13.375  44.258  52.626  1.00  0.00     0.132 A
HETATM   22  N3  UNL     1     -13.895  43.059  52.397  1.00  0.00    -0.336 N
HETATM   23  C8  UNL     1     -15.235  43.127  52.513  1.00  0.00     0.199 A
ATOM     24  H3  UNL     1     -13.365  42.219  52.170  1.00  0.00     0.168 HD
HETATM   25  N4  UNL     1     -15.552  44.396  52.819  1.00  0.00    -0.295 N
HETATM   26  N5  UNL     1     -14.424  45.081  52.887  1.00  0.00    -0.284 N
ATOM     27  H4  UNL     1     -16.492  44.764  52.971  1.00  0.00     0.187 HD
ATOM     28  H5  UNL     1     -14.352  46.075  53.102  1.00  0.00     0.188 HD
ENDBRANCH   3  21
BRANCH   5  29
HETATM   29  C11 UNL     1     -12.399  43.305  55.535  1.00  0.00     0.062 A
HETATM   30  C12 UNL     1     -13.367  43.989  56.266  1.00  0.00     0.048 A
HETATM   31  C13 UNL     1     -14.404  43.273  56.831  1.00  0.00     0.108 A
HETATM   32  N6  UNL     1     -14.460  41.955  56.671  1.00  0.00    -0.202 N
HETATM   33  C14 UNL     1     -13.528  41.279  55.965  1.00  0.00     0.676 A
ATOM     34  H6  UNL     1     -15.230  41.439  57.094  1.00  0.00     0.183 HD
HETATM   35  N8  UNL     1     -12.524  41.984  55.419  1.00  0.00    -0.191 N
ATOM     36  H8  UNL     1     -11.818  41.479  54.884  1.00  0.00     0.184 HD
BRANCH  33  37
HETATM   37  N7  UNL     1     -13.598  39.978  55.815  1.00  0.00    -0.234 N
ATOM     38  H72 UNL     1     -13.059  39.504  55.091  1.00  0.00     0.174 HD
ATOM     39  H71 UNL     1     -14.191  39.406  56.416  1.00  0.00     0.174 HD
ENDBRANCH  33  37
ENDBRANCH   5  29
TORSDOF 5
ENDMDL