MODEL 2
REMARK VINA RESULT: -7.480438462      0.266      1.531
REMARK  4 active torsions:
REMARK  status: ('A' for Active; 'I' for Inactive)
REMARK    1  A    between atoms: C5_6  and  C6_7
REMARK    2  A    between atoms: C13_20  and  C14_21
REMARK    3  A    between atoms: C15_24  and  N6_25
REMARK    4  A    between atoms: C16_30  and  N8_31
ROOT
HETATM    1  C1  UNL     1     -11.700  48.080  55.168  1.00  0.00     0.104 C
HETATM    2  C2  UNL     1     -11.926  46.873  55.136  1.00  0.00    -0.138 C
HETATM    3  C3  UNL     1     -12.194  45.487  55.139  1.00  0.00     0.086 C
HETATM    4  C4  UNL     1     -13.255  45.023  56.007  1.00  0.00     0.107 C
HETATM    5  N1  UNL     1     -14.100  44.635  56.695  1.00  0.00    -0.191 NA
HETATM    6  C5  UNL     1     -11.527  44.638  54.399  1.00  0.00     0.044 C
ENDROOT
BRANCH   6   7
HETATM    7  C6  UNL     1     -10.465  45.040  53.513  1.00  0.00    -0.002 A
HETATM    8  C7  UNL     1      -9.134  45.110  53.914  1.00  0.00     0.102 A
HETATM    9  N2  UNL     1      -8.402  45.560  52.911  1.00  0.00    -0.351 N
HETATM   10  C8  UNL     1      -9.204  45.786  51.870  1.00  0.00     0.119 A
ATOM     11  H2  UNL     1      -7.393  45.709  52.929  1.00  0.00     0.166 HD
HETATM   12  N3  UNL     1      -8.975  46.275  50.653  1.00  0.00    -0.338 N
HETATM   13  C18 UNL     1     -10.534  45.461  52.220  1.00  0.00     0.048 A
HETATM   14  C9  UNL     1      -9.919  46.473  49.749  1.00  0.00     0.182 A
ATOM     15  H3  UNL     1      -8.014  46.510  50.403  1.00  0.00     0.168 HD
HETATM   16  N4  UNL     1     -11.164  46.162  50.087  1.00  0.00    -0.350 N
HETATM   17  C10 UNL     1     -11.525  45.646  51.317  1.00  0.00     0.065 A
ATOM     18  H4  UNL     1     -11.899  46.311  49.395  1.00  0.00     0.166 HD
HETATM   19  C11 UNL     1     -12.899  45.208  51.435  1.00  0.00     0.033 A
HETATM   20  C12 UNL     1     -13.947  45.907  50.818  1.00  0.00     0.037 A
HETATM   21  S1  UNL     1     -13.742  43.993  52.222  1.00  0.00    -0.099 SA
HETATM   22  C13 UNL     1     -15.189  45.466  51.004  1.00  0.00     0.017 A
HETATM   23  C17 UNL     1     -15.348  44.351  51.792  1.00  0.00     0.065 A
BRANCH  22  24
HETATM   24  C14 UNL     1     -16.397  46.126  50.412  1.00  0.00     0.147 A
HETATM   25  N5  UNL     1     -17.013  45.544  49.367  1.00  0.00    -0.175 N
HETATM   26  C15 UNL     1     -18.092  46.088  48.793  1.00  0.00     0.692 A
ATOM     27  H5  UNL     1     -16.647  44.664  49.003  1.00  0.00     0.186 HD
HETATM   28  N7  UNL     1     -18.532  47.248  49.311  1.00  0.00    -0.023 N
HETATM   29  C16 UNL     1     -17.935  47.838  50.346  1.00  0.00     0.692 A
ATOM     30  H7  UNL     1     -19.352  47.691  48.897  1.00  0.00     0.203 HD
HETATM   31  N9  UNL     1     -16.846  47.264  50.904  1.00  0.00    -0.175 N
ATOM     32  H9  UNL     1     -16.378  47.705  51.696  1.00  0.00     0.186 HD
BRANCH  26  33
HETATM   33  N6  UNL     1     -18.704  45.555  47.788  1.00  0.00    -0.234 N
ATOM     34  H62 UNL     1     -19.210  46.144  47.125  1.00  0.00     0.174 HD
ATOM     35  H61 UNL     1     -18.713  44.551  47.607  1.00  0.00     0.174 HD
ENDBRANCH  26  33
BRANCH  29  36
HETATM   36  N8  UNL     1     -18.352  48.948  50.848  1.00  0.00    -0.234 N
ATOM     37  H82 UNL     1     -17.700  49.732  50.874  1.00  0.00     0.174 HD
ATOM     38  H81 UNL     1     -19.297  49.066  51.213  1.00  0.00     0.174 HD
ENDBRANCH  29  36
ENDBRANCH  22  24
ENDBRANCH   6   7
TORSDOF 4
ENDMDL