MODEL 3
REMARK VINA RESULT: -7.479678740      3.707      9.419
REMARK  4 active torsions:
REMARK  status: ('A' for Active; 'I' for Inactive)
REMARK    1  A    between atoms: N1_1  and  C1_4
REMARK    2  A    between atoms: C5_10  and  C6_11
REMARK    3  A    between atoms: C6_11  and  C7_12
REMARK    4  A    between atoms: C11_19  and  C12_20
ROOT
HETATM    1  C7  UNL     1     -18.671  45.734  50.662  1.00  0.00    -0.007 A
HETATM    2  C8  UNL     1     -17.865  46.134  51.691  1.00  0.00     0.047 A
HETATM    3  C9  UNL     1     -16.535  46.187  51.446  1.00  0.00     0.068 A
HETATM    4  N3  UNL     1     -15.552  46.558  52.330  1.00  0.00    -0.341 N
ATOM      5  H3  UNL     1     -15.823  46.827  53.276  1.00  0.00     0.167 HD
HETATM    6  C10 UNL     1     -14.259  46.581  52.005  1.00  0.00     0.144 A
HETATM    7  N4  UNL     1     -13.292  46.996  53.003  1.00  0.00    -0.080 NA
HETATM    8  C11 UNL     1     -13.843  46.227  50.743  1.00  0.00     0.085 A
HETATM    9  N6  UNL     1     -14.784  45.859  49.857  1.00  0.00    -0.345 N
ATOM     10  H6  UNL     1     -14.507  45.591  48.912  1.00  0.00     0.167 HD
HETATM   11  C18 UNL     1     -16.113  45.838  50.201  1.00  0.00     0.102 A
HETATM   12  S1  UNL     1     -17.568  45.446  49.398  1.00  0.00    -0.074 SA
ENDROOT
BRANCH   1  13
HETATM   13  C6  UNL     1     -20.175  45.592  50.680  1.00  0.00     0.103 C
BRANCH  13  14
HETATM   14  C5  UNL     1     -20.678  46.101  49.390  1.00  0.00     0.015 A
HETATM   15  C4  UNL     1     -20.475  47.417  49.072  1.00  0.00     0.027 A
HETATM   16  C3  UNL     1     -20.939  47.904  47.873  1.00  0.00     0.036 A
HETATM   17  C2  UNL     1     -21.602  47.073  47.002  1.00  0.00     0.093 A
HETATM   18  N2  UNL     1     -22.167  47.230  45.783  1.00  0.00    -0.188 N
HETATM   19  C19 UNL     1     -21.795  45.757  47.341  1.00  0.00     0.148 A
HETATM   20  C1  UNL     1     -22.680  46.052  45.404  1.00  0.00     0.678 A
ATOM     21  H2  UNL     1     -22.196  48.097  45.245  1.00  0.00     0.184 HD
HETATM   22  N8  UNL     1     -22.464  45.121  46.348  1.00  0.00    -0.175 N
ATOM     23  H8  UNL     1     -22.745  44.140  46.322  1.00  0.00     0.186 HD
HETATM   24  N7  UNL     1     -21.325  45.310  48.529  1.00  0.00    -0.343 N
ATOM     25  H7  UNL     1     -21.471  44.332  48.777  1.00  0.00     0.167 HD
BRANCH  20  26
HETATM   26  N1  UNL     1     -23.293  45.860  44.280  1.00  0.00    -0.234 N
ATOM     27  H12 UNL     1     -23.397  46.548  43.534  1.00  0.00     0.174 HD
ATOM     28  H11 UNL     1     -23.745  44.982  44.021  1.00  0.00     0.174 HD
ENDBRANCH  20  26
ENDBRANCH  13  14
ENDBRANCH   1  13
BRANCH   8  29
HETATM   29  C12 UNL     1     -12.445  46.245  50.342  1.00  0.00    -0.006 A
HETATM   30  C13 UNL     1     -12.020  47.035  49.265  1.00  0.00     0.015 A
HETATM   31  C14 UNL     1     -10.703  47.040  48.890  1.00  0.00     0.027 A
HETATM   32  C15 UNL     1      -9.753  46.270  49.554  1.00  0.00     0.046 A
HETATM   33  N5  UNL     1      -8.428  46.357  49.079  1.00  0.00    -0.102 NA
HETATM   34  C16 UNL     1     -10.144  45.494  50.604  1.00  0.00     0.027 A
HETATM   35  C17 UNL     1     -11.470  45.495  50.975  1.00  0.00     0.015 A
ENDBRANCH   8  29
TORSDOF 4
ENDMDL