MODEL 2
REMARK VINA RESULT: -7.132527051      2.673      7.352
REMARK  5 active torsions:
REMARK  status: ('A' for Active; 'I' for Inactive)
REMARK    1  A    between atoms: N1_1  and  C1_4
REMARK    2  A    between atoms: C3_10  and  S1_11
REMARK    3  A    between atoms: S1_11  and  C4_12
REMARK    4  A    between atoms: C9_22  and  N6_23
REMARK    5  A    between atoms: N6_23  and  C10_25
ROOT
HETATM    1  C1  UNL     1     -11.069  45.870  55.616  1.00  0.00     0.128 A
HETATM    2  N2  UNL     1     -12.350  45.573  55.582  1.00  0.00    -0.326 N
ATOM      3  H2  UNL     1     -12.894  45.585  56.444  1.00  0.00     0.169 HD
HETATM    4  C2  UNL     1     -12.964  45.245  54.393  1.00  0.00     0.126 A
HETATM    5  N3  UNL     1     -14.209  44.937  54.229  1.00  0.00    -0.330 N
ATOM      6  H3  UNL     1     -14.840  44.920  55.030  1.00  0.00     0.168 HD
HETATM    7  C3  UNL     1     -14.665  44.641  53.020  1.00  0.00     0.120 A
HETATM    8  S2  UNL     1     -13.256  44.809  52.065  1.00  0.00    -0.060 SA
HETATM    9  C7  UNL     1     -12.147  45.256  53.295  1.00  0.00     0.068 A
HETATM   10  C8  UNL     1     -10.793  45.567  53.324  1.00  0.00     0.059 A
HETATM   11  C9  UNL     1     -10.092  45.542  52.162  1.00  0.00     0.120 A
HETATM   12  N7  UNL     1      -8.765  45.857  52.249  1.00  0.00    -0.338 N
ATOM     13  H7  UNL     1      -8.194  45.852  51.404  1.00  0.00     0.168 HD
HETATM   14  C16 UNL     1      -8.196  46.173  53.426  1.00  0.00     0.182 A
HETATM   15  N8  UNL     1      -8.914  46.194  54.580  1.00  0.00    -0.348 N
ATOM     16  H8  UNL     1      -8.466  46.436  55.464  1.00  0.00     0.167 HD
HETATM   17  C17 UNL     1     -10.196  45.896  54.539  1.00  0.00     0.092 A
ENDROOT
BRANCH   7  18
HETATM   18  S1  UNL     1     -16.348  44.196  52.621  1.00  0.00    -0.046 SA
BRANCH  18  19
HETATM   19  C4  UNL     1     -16.834  44.835  51.067  1.00  0.00     0.092 A
HETATM   20  C5  UNL     1     -16.530  46.021  50.476  1.00  0.00     0.126 A
HETATM   21  N4  UNL     1     -17.144  46.079  49.255  1.00  0.00    -0.359 N
HETATM   22  C6  UNL     1     -17.826  44.934  49.087  1.00  0.00     0.181 A
ATOM     23  H4  UNL     1     -17.093  46.852  48.591  1.00  0.00     0.166 HD
HETATM   24  N5  UNL     1     -17.636  44.184  50.188  1.00  0.00    -0.346 N
ATOM     25  H5  UNL     1     -18.037  43.258  50.339  1.00  0.00     0.167 HD
ENDBRANCH  18  19
ENDBRANCH   7  18
BRANCH   1  26
HETATM   26  N1  UNL     1     -10.512  46.178  56.761  1.00  0.00    -0.384 N
ATOM     27  H12 UNL     1     -11.130  46.067  57.565  1.00  0.00     0.157 HD
ATOM     28  H11 UNL     1      -9.543  46.495  56.776  1.00  0.00     0.157 HD
ENDBRANCH   1  26
BRANCH  11  29
HETATM   29  N6  UNL     1     -10.652  45.238  51.053  1.00  0.00    -0.342 N
ATOM     30  H6  UNL     1     -11.207  44.386  50.967  1.00  0.00     0.167 HD
BRANCH  29  31
HETATM   31  C10 UNL     1     -10.487  46.110  49.945  1.00  0.00     0.033 A
HETATM   32  C11 UNL     1     -11.580  46.810  49.491  1.00  0.00     0.029 A
HETATM   33  C12 UNL     1     -11.452  47.653  48.430  1.00  0.00     0.002 A
HETATM   34  C13 UNL     1     -10.220  47.799  47.816  1.00  0.00     0.000 A
HETATM   35  C14 UNL     1      -9.139  47.095  48.279  1.00  0.00     0.002 A
HETATM   36  C15 UNL     1      -9.259  46.240  49.351  1.00  0.00     0.029 A
ENDBRANCH  29  31
ENDBRANCH  11  29
TORSDOF 5
ENDMDL