MODEL 2
REMARK VINA RESULT: -6.035562184      2.136      3.405
REMARK  3 active torsions:
REMARK  status: ('A' for Active; 'I' for Inactive)
REMARK    1  A    between atoms: C2_2  and  C4_4
REMARK    2  A    between atoms: C10_12  and  C11_13
REMARK    3  A    between atoms: C11_13  and  O1_14
ROOT
HETATM    1  C4  UNL     1      21.239  85.064  25.774  1.00  0.00    -0.070 C
HETATM    2  C5  UNL     1      22.064  86.098  25.561  1.00  0.00    -0.011 C
HETATM    3  C6  UNL     1      22.203  86.360  24.104  1.00  0.00     0.006 C
HETATM    4  C7  UNL     1      21.219  87.360  23.594  1.00  0.00     0.022 C
HETATM    5  C8  UNL     1      23.598  86.811  23.809  1.00  0.00     0.022 C
HETATM    6  C9  UNL     1      21.895  84.991  23.546  1.00  0.00     0.133 C
HETATM    7 CL1  UNL     1      21.375  85.045  21.863  1.00  0.00    -0.100 Cl
HETATM    8 CL2  UNL     1      23.335  83.986  23.759  1.00  0.00    -0.100 Cl
HETATM    9  C10 UNL     1      20.769  84.583  24.476  1.00  0.00     0.078 C
ENDROOT
BRANCH   1  10
HETATM   10  C2  UNL     1      20.958  84.628  27.157  1.00  0.00     0.007 C
HETATM   11  C1  UNL     1      20.822  85.854  28.027  1.00  0.00     0.014 C
HETATM   12  C3  UNL     1      22.011  83.733  27.728  1.00  0.00     0.014 C
ENDBRANCH   1  10
BRANCH   9  13
HETATM   13  C11 UNL     1      20.551  83.126  24.324  1.00  0.00     0.176 C
BRANCH  13  14
HETATM   14  O1  UNL     1      19.146  82.927  24.396  1.00  0.00    -0.400 OA
ATOM     15  H1  UNL     1      18.991  82.427  25.188  1.00  0.00     0.209 HD
ENDBRANCH  13  14
ENDBRANCH   9  13
TORSDOF 3
ENDMDL