MODEL 4
REMARK VINA RESULT: -4.435621009      1.626      3.048
REMARK  5 active torsions:
REMARK  status: ('A' for Active; 'I' for Inactive)
REMARK    1  A    between atoms: C2_2  and  C3_3
REMARK    2  A    between atoms: C3_3  and  C4_4
REMARK    3  A    between atoms: C5_7  and  C6_8
REMARK    4  A    between atoms: C6_8  and  C7_9
REMARK    5  A    between atoms: C7_9  and  C8_10
ROOT
HETATM    1  C4  UNL     1      21.202  85.814  27.511  1.00  0.00     0.050 A
HETATM    2  N1  UNL     1      20.999  85.885  26.168  1.00  0.00    -0.336 N
ATOM      3  H1  UNL     1      20.587  86.685  25.687  1.00  0.00     0.168 HD
HETATM    4  C5  UNL     1      21.413  84.764  25.562  1.00  0.00     0.163 A
HETATM    5  N2  UNL     1      21.886  83.963  26.519  1.00  0.00    -0.324 N
ATOM      6  H2  UNL     1      22.275  83.032  26.369  1.00  0.00     0.169 HD
HETATM    7  C10 UNL     1      21.768  84.584  27.731  1.00  0.00     0.128 A
HETATM    8 CL2  UNL     1      22.264  83.818  29.234  1.00  0.00    -0.062 Cl
ENDROOT
BRANCH   4   9
HETATM    9  C6  UNL     1      21.365  84.451  24.151  1.00  0.00    -0.029 C
BRANCH   9  10
HETATM   10  C7  UNL     1      21.323  84.170  22.971  1.00  0.00    -0.078 C
BRANCH  10  11
HETATM   11  C8  UNL     1      21.279  83.807  21.556  1.00  0.00     0.157 C
HETATM   12  C9  UNL     1      22.187  82.612  21.364  1.00  0.00     0.040 C
HETATM   13 CL1  UNL     1      21.759  85.144  20.504  1.00  0.00    -0.112 Cl
ENDBRANCH  10  11
ENDBRANCH   9  10
ENDBRANCH   4   9
BRANCH   1  14
HETATM   14  C3  UNL     1      20.901  86.850  28.503  1.00  0.00     0.060 C
BRANCH  14  15
HETATM   15  C2  UNL     1      19.637  87.598  28.313  1.00  0.00     0.002 C
HETATM   16  C1  UNL     1      18.731  87.728  29.484  1.00  0.00     0.005 C
ENDBRANCH  14  15
ENDBRANCH   1  14
TORSDOF 5
ENDMDL