MODEL 3
REMARK VINA RESULT: -7.341332768      0.706      1.065
REMARK  2 active torsions:
REMARK  status: ('A' for Active; 'I' for Inactive)
REMARK    1  A    between atoms: C2_2  and  C3_3
REMARK    2  A    between atoms: C3_3  and  C4_4
ROOT
HETATM    1  C4  UNL     1      21.698  84.937  25.179  1.00  0.00     0.132 C
HETATM    2  C5  UNL     1      22.832  84.477  24.364  1.00  0.00     0.050 C
HETATM    3  C6  UNL     1      22.698  84.608  22.875  1.00  0.00     0.060 C
HETATM    4  C7  UNL     1      22.230  83.356  22.206  1.00  0.00     0.011 C
HETATM    5  C8  UNL     1      20.981  82.750  22.693  1.00  0.00     0.001 C
HETATM    6  C9  UNL     1      20.568  82.981  24.082  1.00  0.00     0.009 C
HETATM    7  C10 UNL     1      20.427  84.303  24.650  1.00  0.00     0.052 C
HETATM    8  C11 UNL     1      20.097  85.520  23.951  1.00  0.00     0.199 C
HETATM    9  C12 UNL     1      20.482  85.757  22.542  1.00  0.00     0.113 C
HETATM   10  C13 UNL     1      21.982  85.794  22.367  1.00  0.00     0.249 C
HETATM   11  F1  UNL     1      22.523  86.978  22.842  1.00  0.00    -0.206 F
HETATM   12  F2  UNL     1      22.197  85.833  20.981  1.00  0.00    -0.206 F
HETATM   13  N1  UNL     1      21.106  86.226  24.759  1.00  0.00    -0.061 N
ATOM     14  H11 UNL     1      21.696  86.935  24.324  1.00  0.00     0.278 HD
ATOM     15  H12 UNL     1      20.808  86.899  25.465  1.00  0.00     0.278 HD
ENDROOT
BRANCH   1  16
HETATM   16  C3  UNL     1      21.900  84.996  26.630  1.00  0.00     0.039 C
BRANCH  16  17
HETATM   17  C2  UNL     1      21.414  83.974  27.548  1.00  0.00    -0.002 C
HETATM   18  C1  UNL     1      22.417  83.268  28.421  1.00  0.00     0.005 C
ENDBRANCH  16  17
ENDBRANCH   1  16
TORSDOF 2
ENDMDL