MODEL 3
REMARK VINA RESULT: -6.089580043      2.492      4.355
REMARK  2 active torsions:
REMARK  status: ('A' for Active; 'I' for Inactive)
REMARK    1  A    between atoms: C2_2  and  C3_3
REMARK    2  A    between atoms: C3_3  and  C4_4
ROOT
HETATM    1  C4  UNL     1      20.933  85.303  23.459  1.00  0.00    -0.001 C
HETATM    2  C5  UNL     1      19.685  85.944  24.031  1.00  0.00     0.019 C
HETATM    3  C6  UNL     1      21.993  85.254  24.511  1.00  0.00     0.102 C
HETATM    4  N1  UNL     1      22.030  86.455  25.350  1.00  0.00    -0.375 N
ATOM      5  H1  UNL     1      21.272  86.801  25.939  1.00  0.00     0.161 HD
HETATM    6  C7  UNL     1      23.311  87.050  25.195  1.00  0.00     0.096 C
HETATM    7 CL1  UNL     1      24.057  88.214  26.274  1.00  0.00    -0.065 Cl
HETATM    8  C8  UNL     1      23.896  86.602  24.095  1.00  0.00     0.024 C
HETATM    9  C9  UNL     1      22.994  85.654  23.444  1.00  0.00     0.058 C
HETATM   10  C10 UNL     1      21.835  86.341  22.761  1.00  0.00     0.051 C
HETATM   11  C11 UNL     1      21.903  86.171  21.270  1.00  0.00     0.034 C
HETATM   12 CL2  UNL     1      21.532  88.006  23.234  1.00  0.00    -0.118 Cl
ENDROOT
BRANCH   1  13
HETATM   13  C3  UNL     1      20.754  84.130  22.599  1.00  0.00     0.013 C
BRANCH  13  14
HETATM   14  C2  UNL     1      20.929  82.770  23.136  1.00  0.00    -0.004 C
HETATM   15  C1  UNL     1      21.770  81.843  22.311  1.00  0.00     0.005 C
ENDBRANCH  13  14
ENDBRANCH   1  13
TORSDOF 2
ENDMDL