MODEL 4
REMARK VINA RESULT: -5.860476651      1.746      2.785
REMARK  2 active torsions:
REMARK  status: ('A' for Active; 'I' for Inactive)
REMARK    1  A    between atoms: C2_2  and  C3_3
REMARK    2  A    between atoms: C3_3  and  C4_4
ROOT
HETATM    1  C3  UNL     1      21.401  85.236  24.877  1.00  0.00     0.023 C
HETATM    2  C5  UNL     1      20.739  85.625  23.566  1.00  0.00     0.024 C
HETATM    3  C6  UNL     1      20.894  87.127  23.322  1.00  0.00     0.007 C
HETATM    4  C7  UNL     1      22.345  87.513  23.236  1.00  0.00     0.002 C
HETATM    5  C8  UNL     1      23.253  86.750  24.131  1.00  0.00     0.034 C
HETATM    6  C9  UNL     1      22.845  85.338  24.443  1.00  0.00     0.197 C
HETATM    7  N1  UNL     1      22.858  84.628  23.149  1.00  0.00    -0.070 N
ATOM      8  H11 UNL     1      23.000  83.622  23.238  1.00  0.00     0.277 HD
ATOM      9  H12 UNL     1      23.687  84.820  22.588  1.00  0.00     0.277 HD
HETATM   10  C10 UNL     1      21.632  84.978  22.498  1.00  0.00     0.238 C
ENDROOT
BRANCH   1  11
HETATM   11  C2  UNL     1      21.119  86.247  25.961  1.00  0.00     0.010 C
HETATM   12  C1  UNL     1      22.222  86.284  27.007  1.00  0.00     0.006 C
ENDBRANCH   1  11
BRANCH   1  13
HETATM   13  C4  UNL     1      21.012  83.853  25.263  1.00  0.00     0.189 C
HETATM   14 CL1  UNL     1      20.654  83.717  27.006  1.00  0.00    -0.107 Cl
HETATM   15 CL2  UNL     1      19.654  83.171  24.362  1.00  0.00    -0.107 Cl
ENDBRANCH   1  13
TORSDOF 2
ENDMDL