MODEL 4
REMARK VINA RESULT: -6.347734846      2.445      3.343
REMARK  1 active torsions:
REMARK  status: ('A' for Active; 'I' for Inactive)
REMARK    1  A    between atoms: C2_2  and  C3_3
ROOT
HETATM    1  C3  UNL     1      21.210  83.458  24.077  1.00  0.00    -0.005 C
HETATM    2  C4  UNL     1      20.391  84.568  23.572  1.00  0.00     0.016 C
HETATM    3  C5  UNL     1      20.920  85.856  24.236  1.00  0.00     0.059 C
HETATM    4  C6  UNL     1      21.778  86.509  23.171  1.00  0.00     0.060 C
HETATM    5  C7  UNL     1      22.420  87.780  23.620  1.00  0.00     0.046 C
HETATM    6  C8  UNL     1      20.801  86.875  22.039  1.00  0.00     0.046 C
HETATM    7  O1  UNL     1      22.631  85.573  22.676  1.00  0.00    -0.380 OA
HETATM    8  C9  UNL     1      23.280  84.783  23.572  1.00  0.00     0.176 C
HETATM    9  C10 UNL     1      22.427  84.167  24.635  1.00  0.00     0.053 C
HETATM   10  C11 UNL     1      21.724  85.303  25.375  1.00  0.00     0.125 C
HETATM   11 CL1  UNL     1      22.809  86.416  26.140  1.00  0.00    -0.101 Cl
HETATM   12 CL2  UNL     1      20.600  84.678  26.595  1.00  0.00    -0.101 Cl
ENDROOT
BRANCH   1  13
HETATM   13  C2  UNL     1      21.577  82.362  23.167  1.00  0.00     0.001 C
HETATM   14  C1  UNL     1      21.307  82.519  21.734  1.00  0.00     0.005 C
ENDBRANCH   1  13
TORSDOF 1
ENDMDL