MODEL 1
REMARK VINA RESULT: -5.192516135      0.000      0.000
REMARK  3 active torsions:
REMARK  status: ('A' for Active; 'I' for Inactive)
REMARK    1  A    between atoms: C2_2  and  C3_5
REMARK    2  A    between atoms: C3_5  and  C4_6
REMARK       I    between atoms: C4_6  and  N1_8
REMARK    3  A    between atoms: N1_8  and  C5_10
ROOT
HETATM    1  C4  UNL     1      21.633  85.965  26.380  1.00  0.00     0.220 C
HETATM    2  O1  UNL     1      20.611  86.688  26.506  1.00  0.00    -0.274 OA
HETATM    3  N1  UNL     1      22.228  85.744  25.114  1.00  0.00    -0.356 N
ATOM      4  H1  UNL     1      23.056  85.149  25.065  1.00  0.00     0.162 HD
ENDROOT
BRANCH   3   5
HETATM    5  C5  UNL     1      21.726  86.315  23.898  1.00  0.00     0.084 C
HETATM    6  C6  UNL     1      21.725  85.320  22.751  1.00  0.00     0.025 C
HETATM    7  C7  UNL     1      21.687  86.076  21.434  1.00  0.00     0.002 C
HETATM    8  C8  UNL     1      21.004  87.415  21.611  1.00  0.00     0.000 C
HETATM    9  C9  UNL     1      21.805  88.328  22.511  1.00  0.00     0.002 C
HETATM   10  C10 UNL     1      22.577  87.484  23.500  1.00  0.00     0.025 C
ENDBRANCH   3   5
BRANCH   1  11
HETATM   11  C3  UNL     1      22.182  85.357  27.613  1.00  0.00     0.144 C
BRANCH  11  12
HETATM   12  C2  UNL     1      22.121  83.867  27.607  1.00  0.00     0.118 C
HETATM   13  C1  UNL     1      22.339  83.255  28.955  1.00  0.00     0.051 C
HETATM   14 CL1  UNL     1      23.251  83.135  26.455  1.00  0.00    -0.102 Cl
HETATM   15 CL2  UNL     1      20.471  83.408  27.060  1.00  0.00    -0.102 Cl
ENDBRANCH  11  12
ENDBRANCH   1  11
TORSDOF 3
ENDMDL