MODEL 4
REMARK VINA RESULT: -5.514959568      1.719      3.040
REMARK  3 active torsions:
REMARK  status: ('A' for Active; 'I' for Inactive)
REMARK    1  A    between atoms: C2_2  and  C4_4
REMARK    2  A    between atoms: C4_4  and  N1_5
REMARK    3  A    between atoms: N1_5  and  C5_7
ROOT
HETATM    1  C4  UNL     1      21.886  85.137  24.592  1.00  0.00     0.067 A
HETATM    2  C9  UNL     1      22.551  83.810  24.403  1.00  0.00     0.079 A
HETATM    3  C10 UNL     1      21.250  84.000  23.711  1.00  0.00     0.141 A
HETATM    4 CL1  UNL     1      19.785  83.228  24.310  1.00  0.00    -0.099 Cl
HETATM    5 CL2  UNL     1      21.332  84.118  21.966  1.00  0.00    -0.099 Cl
ENDROOT
BRANCH   1   6
HETATM    6  C2  UNL     1      22.382  86.227  23.688  1.00  0.00     0.008 C
HETATM    7  C1  UNL     1      21.282  87.259  23.532  1.00  0.00     0.012 C
HETATM    8  C3  UNL     1      23.660  86.868  23.989  1.00  0.00     0.012 C
ENDBRANCH   1   6
BRANCH   1   9
HETATM    9  N1  UNL     1      21.125  85.416  25.717  1.00  0.00    -0.402 N
ATOM     10  H1  UNL     1      20.123  85.476  25.540  1.00  0.00     0.154 HD
BRANCH   9  11
HETATM   11  C5  UNL     1      21.474  85.624  27.016  1.00  0.00     0.015 C
HETATM   12  C6  UNL     1      21.476  84.425  27.947  1.00  0.00     0.037 C
HETATM   13  C7  UNL     1      20.260  86.446  27.626  1.00  0.00     0.037 C
HETATM   14  C8  UNL     1      22.642  86.493  27.386  1.00  0.00     0.037 C
ENDBRANCH   9  11
ENDBRANCH   1   9
TORSDOF 3
ENDMDL