MODEL 3
REMARK VINA RESULT: -5.402732717      2.612      3.729
REMARK  2 active torsions:
REMARK  status: ('A' for Active; 'I' for Inactive)
REMARK    1  A    between atoms: N1_9  and  C8_11
REMARK    2  A    between atoms: C8_11  and  C9_12
ROOT
HETATM    1  C1  UNL     1      23.202  87.030  24.247  1.00  0.00     0.075 C
HETATM    2  C2  UNL     1      22.726  85.661  23.918  1.00  0.00     0.259 C
HETATM    3 CL1  UNL     1      24.123  84.567  23.800  1.00  0.00    -0.078 Cl
HETATM    4  C3  UNL     1      22.012  85.611  22.574  1.00  0.00     0.049 C
HETATM    5  C4  UNL     1      20.760  86.449  22.593  1.00  0.00     0.011 C
HETATM    6  C5  UNL     1      19.762  85.691  23.479  1.00  0.00     0.043 C
HETATM    7  C6  UNL     1      20.649  84.596  24.040  1.00  0.00     0.258 C
HETATM    8  C7  UNL     1      21.399  84.209  22.749  1.00  0.00     0.051 C
HETATM    9  N1  UNL     1      21.736  85.139  24.818  1.00  0.00     0.042 N
HETATM   10  O1  UNL     1      22.302  84.080  25.484  1.00  0.00    -0.062 OA
ENDROOT
BRANCH   9  11
HETATM   11  C8  UNL     1      21.303  86.069  25.821  1.00  0.00     0.330 C
BRANCH  11  12
HETATM   12  C9  UNL     1      21.460  85.410  27.180  1.00  0.00     0.151 C
HETATM   13 CL2  UNL     1      21.041  86.642  28.402  1.00  0.00    -0.128 Cl
ENDBRANCH  11  12
ENDBRANCH   9  11
TORSDOF 2
ENDMDL