MODEL 5
REMARK VINA RESULT: -6.147026233      2.095      3.390
REMARK  2 active torsions:
REMARK  status: ('A' for Active; 'I' for Inactive)
REMARK    1  A    between atoms: N1_2  and  C2_5
REMARK    2  A    between atoms: C11_15  and  C12_16
ROOT
HETATM    1  C2  UNL     1      21.243  85.777  25.201  1.00  0.00     0.133 C
HETATM    2  C3  UNL     1      22.643  86.298  25.515  1.00  0.00     0.044 C
HETATM    3  C4  UNL     1      23.437  86.334  24.233  1.00  0.00    -0.010 C
HETATM    4  C5  UNL     1      23.600  84.976  23.645  1.00  0.00     0.010 C
HETATM    5  C6  UNL     1      22.211  84.392  23.394  1.00  0.00    -0.004 C
HETATM    6  C7  UNL     1      21.572  85.222  22.332  1.00  0.00     0.031 C
HETATM    7  C8  UNL     1      21.433  86.634  22.843  1.00  0.00     0.040 C
HETATM    8 CL1  UNL     1      20.573  87.690  21.705  1.00  0.00    -0.119 Cl
HETATM    9  C9  UNL     1      22.770  87.232  23.215  1.00  0.00     0.030 C
HETATM   10  C10 UNL     1      20.578  86.551  24.099  1.00  0.00     0.065 C
HETATM   11  C11 UNL     1      21.460  84.372  24.688  1.00  0.00     0.054 C
ENDROOT
BRANCH   1  12
HETATM   12  N1  UNL     1      20.380  85.781  26.335  1.00  0.00    -0.070 N
HETATM   13  C1  UNL     1      21.080  85.863  27.581  1.00  0.00     0.267 C
ATOM     14  H12 UNL     1      19.761  84.971  26.321  1.00  0.00     0.277 HD
ATOM     15  H11 UNL     1      19.687  86.525  26.260  1.00  0.00     0.277 HD
ENDBRANCH   1  12
BRANCH  11  16
HETATM   16  C12 UNL     1      20.220  83.547  24.678  1.00  0.00     0.229 C
HETATM   17  F1  UNL     1      20.434  82.476  23.805  1.00  0.00    -0.255 F
ENDBRANCH  11  16
TORSDOF 2
ENDMDL