MODEL 1
REMARK VINA RESULT: -6.750366606      0.000      0.000
REMARK  5 active torsions:
REMARK  status: ('A' for Active; 'I' for Inactive)
REMARK    1  A    between atoms: N2_4  and  N3_6
REMARK    2  A    between atoms: C1_8  and  N4_9
REMARK    3  A    between atoms: N4_9  and  C2_11
REMARK    4  A    between atoms: C2_11  and  N5_13
REMARK       I    between atoms: N5_13  and  C3_15
REMARK       I    between atoms: C3_15  and  N6_17
REMARK    5  A    between atoms: N6_17  and  N7_19
ROOT
HETATM    1  C2  UNL     1      29.511  66.736   7.979  1.00  0.00     0.180 C
HETATM    2  S1  UNL     1      28.433  66.358   6.815  1.00  0.00    -0.040 SA
ENDROOT
BRANCH   1   3
HETATM    3  N4  UNL     1      30.807  67.247   7.607  1.00  0.00    -0.328 N
ATOM      4  H4  UNL     1      31.111  68.172   7.908  1.00  0.00     0.169 HD
BRANCH   3   5
HETATM    5  C1  UNL     1      31.645  66.430   6.815  1.00  0.00     0.201 C
HETATM    6  N3  UNL     1      32.833  66.051   7.196  1.00  0.00    -0.282 N
ATOM      7  H3  UNL     1      33.420  65.461   6.606  1.00  0.00     0.189 HD
BRANCH   6   8
HETATM    8  N2  UNL     1      33.262  66.488   8.439  1.00  0.00    -0.248 N
HETATM    9  N1  UNL     1      32.966  65.941   9.534  1.00  0.00    -0.331 N
ATOM     10  H12 UNL     1      32.366  65.117   9.485  1.00  0.00     0.178 HD
ATOM     11  H11 UNL     1      33.281  66.262  10.450  1.00  0.00     0.178 HD
ATOM     12  H2  UNL     1      33.860  67.313   8.470  1.00  0.00     0.207 HD
ENDBRANCH   6   8
ENDBRANCH   3   5
ENDBRANCH   1   3
BRANCH   1  13
HETATM   13  N5  UNL     1      29.161  66.560   9.337  1.00  0.00    -0.284 N
HETATM   14  C3  UNL     1      29.529  65.395  10.038  1.00  0.00     0.340 C
HETATM   15  O1  UNL     1      30.169  64.505   9.466  1.00  0.00    -0.245 OA
HETATM   16  N6  UNL     1      29.168  65.230  11.411  1.00  0.00    -0.258 N
ATOM     17  H6  UNL     1      28.641  65.945  11.911  1.00  0.00     0.191 HD
ATOM     18  H5  UNL     1      28.633  67.288   9.817  1.00  0.00     0.173 HD
BRANCH  16  19
HETATM   19  N7  UNL     1      29.567  64.051  12.039  1.00  0.00    -0.341 N
ATOM     20  H72 UNL     1      30.092  63.344  11.525  1.00  0.00     0.177 HD
ATOM     21  H71 UNL     1      29.311  63.934  13.020  1.00  0.00     0.177 HD
ENDBRANCH  16  19
ENDBRANCH   1  13
TORSDOF 5
ENDMDL