MODEL 3
REMARK VINA RESULT: -6.301925140      0.916      1.248
REMARK  2 active torsions:
REMARK  status: ('A' for Active; 'I' for Inactive)
REMARK       I    between atoms: C1_2  and  N2_4
REMARK    1  A    between atoms: N2_4  and  C2_6
REMARK    2  A    between atoms: C3_9  and  C4_10
ROOT
HETATM    1  C2  UNL     1      29.785  64.841  10.117  1.00  0.00     0.234 A
HETATM    2  N3  UNL     1      30.977  65.300   9.716  1.00  0.00    -0.314 N
ATOM      3  H3  UNL     1      31.866  65.132  10.187  1.00  0.00     0.170 HD
HETATM    4  C3  UNL     1      30.812  66.019   8.595  1.00  0.00     0.149 A
HETATM    5  C5  UNL     1      29.461  65.993   8.306  1.00  0.00     0.192 A
HETATM    6  N5  UNL     1      28.864  66.632   7.200  1.00  0.00    -0.072 NA
HETATM    7  O3  UNL     1      28.907  65.277   9.248  1.00  0.00    -0.262 OA
ENDROOT
BRANCH   1   8
HETATM    8  N2  UNL     1      29.539  64.099  11.173  1.00  0.00    -0.276 N
HETATM    9  C1  UNL     1      28.648  64.526  12.178  1.00  0.00     0.335 C
HETATM   10  N1  UNL     1      28.751  65.859  12.659  1.00  0.00    -0.040 NA
HETATM   11  O1  UNL     1      27.802  63.700  12.601  1.00  0.00    -0.251 OA
ATOM     12  H2  UNL     1      30.002  63.195  11.267  1.00  0.00     0.173 HD
ENDBRANCH   1   8
BRANCH   4  13
HETATM   13  C4  UNL     1      31.840  66.691   7.836  1.00  0.00     0.285 C
HETATM   14  N4  UNL     1      33.185  66.605   8.259  1.00  0.00    -0.056 NA
HETATM   15  O2  UNL     1      31.531  67.338   6.816  1.00  0.00    -0.269 OA
ENDBRANCH   4  13
TORSDOF 2
ENDMDL