MODEL 2
REMARK VINA RESULT: -6.209492123      1.451      2.141
REMARK  2 active torsions:
REMARK  status: ('A' for Active; 'I' for Inactive)
REMARK    1  A    between atoms: C2_7  and  N3_8
REMARK    2  A    between atoms: N3_8  and  N4_10
ROOT
HETATM    1  N3  UNL     1      30.254  64.455   9.675  1.00  0.00    -0.133 N
ATOM      2  H3  UNL     1      30.608  63.509   9.526  1.00  0.00     0.205 HD
ENDROOT
BRANCH   1   3
HETATM    3  C2  UNL     1      29.345  64.624  10.560  1.00  0.00     0.715 A
HETATM    4  N2  UNL     1      29.434  64.118  11.806  1.00  0.00    -0.127 N
HETATM    5  N1  UNL     1      28.365  64.442  12.509  1.00  0.00    -0.237 N
ATOM      6  H2  UNL     1      30.216  63.565  12.155  1.00  0.00     0.206 HD
HETATM    7  C1  UNL     1      27.576  65.165  11.711  1.00  0.00     0.353 A
ATOM      8  H1  UNL     1      28.177  64.189  13.478  1.00  0.00     0.192 HD
HETATM    9  O1  UNL     1      26.457  65.666  12.005  1.00  0.00    -0.245 OA
HETATM   10  N6  UNL     1      28.183  65.279  10.499  1.00  0.00    -0.137 N
ATOM     11  H6  UNL     1      27.815  65.776   9.687  1.00  0.00     0.189 HD
ENDBRANCH   1   3
BRANCH   1  12
HETATM   12  N4  UNL     1      30.788  65.482   8.904  1.00  0.00    -0.310 N
HETATM   13  C3  UNL     1      31.759  66.414   9.380  1.00  0.00     0.170 C
HETATM   14  C4  UNL     1      32.881  66.651   8.398  1.00  0.00     0.253 C
HETATM   15  N5  UNL     1      32.444  66.731   7.042  1.00  0.00    -0.072 N
HETATM   16  C5  UNL     1      31.007  66.798   6.897  1.00  0.00     0.253 C
ATOM     17  H52 UNL     1      32.891  67.514   6.565  1.00  0.00     0.277 HD
ATOM     18  H51 UNL     1      32.826  65.959   6.495  1.00  0.00     0.277 HD
HETATM   19  C6  UNL     1      30.325  65.609   7.534  1.00  0.00     0.170 C
ENDBRANCH   1  12
TORSDOF 2
ENDMDL