MODEL 4
REMARK VINA RESULT: -5.908153081      1.553      1.553
REMARK  1 active torsions:
REMARK  status: ('A' for Active; 'I' for Inactive)
REMARK       I    between atoms: C1_2  and  N2_4
REMARK    1  A    between atoms: C2_6  and  C3_7
ROOT
HETATM    1  C3  UNL     1      29.314  66.023   8.820  1.00  0.00     0.089 A
HETATM    2  C4  UNL     1      30.072  66.415   9.894  1.00  0.00     0.137 A
HETATM    3  N3  UNL     1      29.415  66.658  11.130  1.00  0.00    -0.081 NA
HETATM    4  N4  UNL     1      31.412  66.560   9.761  1.00  0.00    -0.296 N
ATOM      5  H4  UNL     1      31.982  66.851  10.555  1.00  0.00     0.171 HD
HETATM    6  C5  UNL     1      31.980  66.317   8.567  1.00  0.00     0.328 A
HETATM    7  O2  UNL     1      33.243  66.461   8.470  1.00  0.00    -0.247 OA
HETATM    8  N5  UNL     1      31.288  65.931   7.479  1.00  0.00    -0.275 N
ATOM      9  H5  UNL     1      31.752  65.754   6.588  1.00  0.00     0.173 HD
HETATM   10  C6  UNL     1      29.942  65.787   7.621  1.00  0.00     0.264 A
HETATM   11  O3  UNL     1      29.265  65.428   6.632  1.00  0.00    -0.267 OA
ENDROOT
BRANCH   1  12
HETATM   12  C2  UNL     1      27.876  65.848   8.889  1.00  0.00     0.112 C
HETATM   13  N2  UNL     1      27.289  65.153   9.781  1.00  0.00    -0.320 N
HETATM   14  C1  UNL     1      25.897  64.968   9.871  1.00  0.00     0.332 C
ATOM     15  H2  UNL     1      27.872  64.697  10.483  1.00  0.00     0.169 HD
HETATM   16  N1  UNL     1      25.248  65.157  11.108  1.00  0.00    -0.040 NA
HETATM   17  O1  UNL     1      25.217  64.639   8.884  1.00  0.00    -0.251 OA
ENDBRANCH   1  12
TORSDOF 1
ENDMDL