MODEL 1
REMARK VINA RESULT: -6.587689484      0.000      0.000
REMARK  2 active torsions:
REMARK  status: ('A' for Active; 'I' for Inactive)
REMARK       I    between atoms: C1_2  and  N1_3
REMARK    1  A    between atoms: C1_2  and  C5_12
REMARK    2  A    between atoms: N1_3  and  N2_5
ROOT
HETATM    1  O1  UNL     1      29.133  66.724  11.100  1.00  0.00    -0.263 OA
HETATM    2  C1  UNL     1      29.292  65.570  10.590  1.00  0.00     0.301 C
HETATM    3  N1  UNL     1      30.097  65.464   9.424  1.00  0.00    -0.281 N
ATOM      4  H1  UNL     1      30.237  64.548   8.999  1.00  0.00     0.184 HD
ENDROOT
BRANCH   2   5
HETATM    5  C5  UNL     1      28.661  64.417  11.201  1.00  0.00     0.194 A
HETATM    6  N4  UNL     1      27.507  63.865  10.809  1.00  0.00    -0.277 N
HETATM    7  N5  UNL     1      27.217  62.826  11.583  1.00  0.00    -0.250 N
ATOM      8  H4  UNL     1      26.935  64.193  10.031  1.00  0.00     0.189 HD
HETATM    9  C6  UNL     1      28.226  62.747  12.473  1.00  0.00     0.340 A
ATOM     10  H5  UNL     1      26.402  62.216  11.519  1.00  0.00     0.192 HD
HETATM   11  O2  UNL     1      28.326  61.885  13.389  1.00  0.00    -0.245 OA
HETATM   12  N6  UNL     1      29.126  63.723  12.248  1.00  0.00    -0.288 N
ATOM     13  H6  UNL     1      29.985  63.899  12.768  1.00  0.00     0.172 HD
ENDBRANCH   2   5
BRANCH   3  14
HETATM   14  N2  UNL     1      30.696  66.571   8.846  1.00  0.00    -0.202 NA
HETATM   15  C2  UNL     1      32.111  66.538   9.146  1.00  0.00     0.143 C
HETATM   16  C3  UNL     1      32.826  66.659   7.833  1.00  0.00     0.250 C
HETATM   17  N3  UNL     1      31.821  67.084   6.884  1.00  0.00    -0.061 N
HETATM   18  C4  UNL     1      30.545  66.660   7.424  1.00  0.00     0.345 C
ATOM     19  H32 UNL     1      31.860  68.081   6.673  1.00  0.00     0.278 HD
ATOM     20  H31 UNL     1      31.991  66.748   5.936  1.00  0.00     0.278 HD
ENDBRANCH   3  14
TORSDOF 2
ENDMDL