MODEL 2
REMARK VINA RESULT: -6.026751040      2.413      5.018
REMARK  1 active torsions:
REMARK  status: ('A' for Active; 'I' for Inactive)
REMARK    1  A    between atoms: N3_4  and  N4_6
ROOT
HETATM    1  N4  UNL     1      29.300  66.593   9.136  1.00  0.00    -0.296 N
ATOM      2  H4  UNL     1      28.815  67.380   8.704  1.00  0.00     0.187 HD
HETATM    3  C2  UNL     1      28.594  65.637   9.676  1.00  0.00     0.111 C
HETATM    4  C3  UNL     1      27.128  65.628   9.696  1.00  0.00     0.189 C
HETATM    5  N5  UNL     1      26.611  64.868  10.811  1.00  0.00    -0.337 N
ATOM      6  H5  UNL     1      25.700  65.127  11.187  1.00  0.00     0.164 HD
HETATM    7  C4  UNL     1      27.297  63.783  11.412  1.00  0.00     0.323 C
HETATM    8  O1  UNL     1      26.711  62.968  12.179  1.00  0.00    -0.247 OA
HETATM    9  N6  UNL     1      28.700  63.587  11.153  1.00  0.00    -0.274 N
ATOM     10  H6  UNL     1      29.224  62.817  11.570  1.00  0.00     0.173 HD
HETATM   11  C5  UNL     1      29.310  64.531  10.283  1.00  0.00     0.275 C
HETATM   12  O2  UNL     1      30.551  64.362  10.051  1.00  0.00    -0.266 OA
ENDROOT
BRANCH   1  13
HETATM   13  N3  UNL     1      30.675  66.575   9.131  1.00  0.00    -0.276 N
HETATM   14  C1  UNL     1      31.438  66.782   8.141  1.00  0.00     0.215 C
HETATM   15  N1  UNL     1      31.028  67.076   6.821  1.00  0.00    -0.065 NA
HETATM   16  N2  UNL     1      32.856  66.710   8.381  1.00  0.00    -0.065 NA
ATOM     17  H3  UNL     1      31.129  66.374  10.022  1.00  0.00     0.189 HD
ENDBRANCH   1  13
TORSDOF 1
ENDMDL