MODEL 5
REMARK VINA RESULT: -5.850658965      2.436      3.956
REMARK  0 active torsions:
REMARK  status: ('A' for Active; 'I' for Inactive)
ROOT
HETATM    1  N1  UNL     1      31.890  66.259   8.729  1.00  0.00    -0.389 N
ATOM      2  H11 UNL     1      32.632  65.667   8.355  1.00  0.00     0.157 HD
ATOM      3  H12 UNL     1      32.077  67.213   8.421  1.00  0.00     0.157 HD
HETATM    4  C1  UNL     1      30.903  65.869   9.455  1.00  0.00     0.080 C
HETATM    5  C2  UNL     1      29.825  66.729   9.999  1.00  0.00     0.127 C
HETATM    6  C3  UNL     1      28.686  65.709  10.127  1.00  0.00     0.204 A
HETATM    7  N2  UNL     1      28.115  65.477   8.826  1.00  0.00    -0.316 N
ATOM      8  H2  UNL     1      28.609  65.105   8.015  1.00  0.00     0.166 HD
HETATM    9  C4  UNL     1      26.754  65.851   8.863  1.00  0.00     0.324 A
HETATM   10  O1  UNL     1      25.971  65.789   7.881  1.00  0.00    -0.247 OA
HETATM   11  N3  UNL     1      26.462  66.297  10.200  1.00  0.00    -0.277 N
ATOM     12  H3  UNL     1      25.555  66.630  10.527  1.00  0.00     0.173 HD
HETATM   13  C5  UNL     1      27.634  66.201  10.987  1.00  0.00     0.264 A
HETATM   14  O2  UNL     1      27.720  66.491  12.192  1.00  0.00    -0.270 OA
HETATM   15  C6  UNL     1      29.418  64.538  10.623  1.00  0.00     0.261 C
HETATM   16  O3  UNL     1      29.102  63.683  11.505  1.00  0.00    -0.270 OA
HETATM   17  N4  UNL     1      30.639  64.516   9.892  1.00  0.00    -0.314 N
ATOM     18  H4  UNL     1      31.220  63.697   9.710  1.00  0.00     0.170 HD
ENDROOT
TORSDOF 0
ENDMDL