MODEL 3
REMARK VINA RESULT: -5.925557263      1.064      1.171
REMARK  4 active torsions:
REMARK  status: ('A' for Active; 'I' for Inactive)
REMARK    1  A    between atoms: N1_1  and  C1_5
REMARK    2  A    between atoms: C1_5  and  C2_6
REMARK       I    between atoms: C2_6  and  N2_8
REMARK    3  A    between atoms: N2_8  and  C3_10
REMARK    4  A    between atoms: C3_10  and  N3_12
ROOT
HETATM    1  C3  UNL     1      29.001  65.615   8.779  1.00  0.00     0.181 C
HETATM    2  S1  UNL     1      27.799  66.022   7.753  1.00  0.00    -0.040 SA
ENDROOT
BRANCH   1   3
HETATM    3  N2  UNL     1      28.858  65.666  10.190  1.00  0.00    -0.302 N
HETATM    4  C2  UNL     1      28.902  64.483  10.974  1.00  0.00     0.249 C
HETATM    5  O1  UNL     1      29.071  63.386  10.392  1.00  0.00    -0.271 OA
ATOM      6  H2  UNL     1      28.722  66.568  10.648  1.00  0.00     0.171 HD
BRANCH   4   7
HETATM    7  C1  UNL     1      28.752  64.536  12.454  1.00  0.00     0.332 C
BRANCH   7   8
HETATM    8  N1  UNL     1      29.470  63.494  13.114  1.00  0.00    -0.071 N
ATOM      9  H13 UNL     1      29.854  63.819  14.002  1.00  0.00     0.274 HD
ATOM     10  H12 UNL     1      28.835  62.776  13.463  1.00  0.00     0.274 HD
ATOM     11  H11 UNL     1      30.197  63.086  12.527  1.00  0.00     0.274 HD
ENDBRANCH   7   8
ENDBRANCH   4   7
ENDBRANCH   1   3
BRANCH   1  12
HETATM   12  N3  UNL     1      30.245  65.191   8.208  1.00  0.00    -0.302 N
HETATM   13  C4  UNL     1      30.983  66.030   7.537  1.00  0.00     0.218 A
HETATM   14  N4  UNL     1      32.212  65.940   6.873  1.00  0.00    -0.255 N
HETATM   15  N6  UNL     1      30.899  67.388   7.172  1.00  0.00    -0.255 N
HETATM   16  N5  UNL     1      32.124  67.163   6.551  1.00  0.00    -0.237 N
ATOM     17  H4  UNL     1      32.895  65.199   6.713  1.00  0.00     0.191 HD
ATOM     18  H5  UNL     1      32.741  67.775   6.017  1.00  0.00     0.208 HD
ATOM     19  H6  UNL     1      30.251  68.164   7.301  1.00  0.00     0.191 HD
ATOM     20  H3  UNL     1      30.555  64.227   8.327  1.00  0.00     0.171 HD
ENDBRANCH   1  12
TORSDOF 4
ENDMDL