MODEL 5
REMARK VINA RESULT: -6.026263710      1.813      4.834
REMARK  2 active torsions:
REMARK  status: ('A' for Active; 'I' for Inactive)
REMARK    1  A    between atoms: N1_1  and  C1_5
REMARK    2  A    between atoms: C1_5  and  C2_6
REMARK       I    between atoms: C2_6  and  N2_8
ROOT
HETATM    1  C2  UNL     1      29.217  66.333   8.218  1.00  0.00     0.247 C
HETATM    2  O1  UNL     1      28.433  65.673   7.498  1.00  0.00    -0.271 OA
HETATM    3  N2  UNL     1      28.818  66.705   9.514  1.00  0.00    -0.321 N
ATOM      4  H2  UNL     1      28.412  67.636   9.614  1.00  0.00     0.169 HD
HETATM    5  C3  UNL     1      28.908  66.009  10.577  1.00  0.00     0.108 A
HETATM    6  C4  UNL     1      28.438  66.604  11.754  1.00  0.00     0.082 A
HETATM    7  C5  UNL     1      28.525  65.874  12.915  1.00  0.00     0.133 A
HETATM    8  N3  UNL     1      28.061  66.420  14.168  1.00  0.00    -0.081 NA
HETATM    9  N4  UNL     1      29.048  64.638  12.869  1.00  0.00    -0.285 N
ATOM     10  H4  UNL     1      29.108  64.103  13.736  1.00  0.00     0.188 HD
HETATM   11  N5  UNL     1      29.489  64.083  11.755  1.00  0.00    -0.263 N
ATOM     12  H5  UNL     1      29.876  63.139  11.787  1.00  0.00     0.190 HD
HETATM   13  C6  UNL     1      29.439  64.741  10.567  1.00  0.00     0.286 A
HETATM   14  O2  UNL     1      29.861  64.204   9.511  1.00  0.00    -0.264 OA
ENDROOT
BRANCH   1  15
HETATM   15  C1  UNL     1      30.553  66.729   7.728  1.00  0.00     0.332 C
BRANCH  15  16
HETATM   16  N1  UNL     1      31.279  65.582   7.178  1.00  0.00    -0.071 N
ATOM     17  H13 UNL     1      32.227  65.836   6.899  1.00  0.00     0.274 HD
ATOM     18  H12 UNL     1      31.506  64.900   7.902  1.00  0.00     0.274 HD
ATOM     19  H11 UNL     1      30.765  65.154   6.407  1.00  0.00     0.274 HD
ENDBRANCH  15  16
ENDBRANCH   1  15
TORSDOF 2
ENDMDL