MODEL 3
REMARK VINA RESULT: -5.827182925      2.167      3.718
REMARK  1 active torsions:
REMARK  status: ('A' for Active; 'I' for Inactive)
REMARK    1  A    between atoms: N1_1  and  N2_4
REMARK       I    between atoms: N2_4  and  C1_6
REMARK       I    between atoms: C1_6  and  N3_8
ROOT
HETATM    1  N2  UNL     1      27.197  63.657  11.111  1.00  0.00    -0.258 N
ATOM      2  H2  UNL     1      26.409  64.021  10.574  1.00  0.00     0.191 HD
HETATM    3  C1  UNL     1      28.456  64.228  10.916  1.00  0.00     0.344 C
HETATM    4  O1  UNL     1      29.391  63.696  11.633  1.00  0.00    -0.245 OA
HETATM    5  N3  UNL     1      28.781  65.288  10.038  1.00  0.00    -0.250 N
HETATM    6  C2  UNL     1      30.207  65.549  10.060  1.00  0.00     0.140 C
HETATM    7  C3  UNL     1      30.656  66.473   8.992  1.00  0.00     0.040 C
HETATM    8  C4  UNL     1      30.394  65.786   7.664  1.00  0.00     0.122 C
HETATM    9  N4  UNL     1      29.668  66.699   6.858  1.00  0.00    -0.386 N
ATOM     10  H4  UNL     1      30.106  67.486   6.377  1.00  0.00     0.160 HD
HETATM   11  C5  UNL     1      28.291  66.425   6.780  1.00  0.00     0.180 C
HETATM   12  N5  UNL     1      27.548  66.276   7.986  1.00  0.00    -0.305 N
ATOM     13  H5  UNL     1      26.572  66.520   7.824  1.00  0.00     0.171 HD
HETATM   14  C6  UNL     1      27.734  65.896   9.345  1.00  0.00     0.331 C
HETATM   15  O2  UNL     1      26.768  66.144  10.131  1.00  0.00    -0.246 OA
ENDROOT
BRANCH   1  16
HETATM   16  N1  UNL     1      26.963  62.595  12.021  1.00  0.00    -0.341 N
ATOM     17  H12 UNL     1      27.707  61.908  12.144  1.00  0.00     0.177 HD
ATOM     18  H11 UNL     1      26.095  62.495  12.547  1.00  0.00     0.177 HD
ENDBRANCH   1  16
TORSDOF 1
ENDMDL