MODEL 2
REMARK VINA RESULT: -7.110143713      1.082      1.125
REMARK  5 active torsions:
REMARK  status: ('A' for Active; 'I' for Inactive)
REMARK    1  A    between atoms: C1_2  and  C2_4
REMARK    2  A    between atoms: C2_4  and  C3_5
REMARK    3  A    between atoms: C3_5  and  N2_6
REMARK    4  A    between atoms: C3_5  and  C4_10
REMARK       I    between atoms: C4_10  and  N3_12
REMARK    5  A    between atoms: N3_12  and  N4_13
REMARK       I    between atoms: C5_15  and  N6_17
ROOT
HETATM    1  C4  UNL     1      28.041  64.886  13.042  1.00  0.00     0.343 C
HETATM    2  O2  UNL     1      28.124  65.199  14.274  1.00  0.00    -0.253 OA
HETATM    3  N3  UNL     1      28.666  65.527  12.042  1.00  0.00    -0.282 NA
ENDROOT
BRANCH   3   4
HETATM    4  N4  UNL     1      29.293  66.169  11.041  1.00  0.00    -0.203 N
HETATM    5  C5  UNL     1      29.769  65.549  10.029  1.00  0.00     0.215 C
HETATM    6  N5  UNL     1      29.649  64.138   9.923  1.00  0.00    -0.061 NA
HETATM    7  N6  UNL     1      30.423  66.296   9.014  1.00  0.00    -0.354 N
HETATM    8  C6  UNL     1      31.848  66.170   9.085  1.00  0.00     0.125 C
HETATM    9  C11 UNL     1      29.537  67.024   8.127  1.00  0.00     0.125 C
HETATM   10  C7  UNL     1      32.662  66.967   8.160  1.00  0.00     0.020 C
HETATM   11  C8  UNL     1      32.031  67.401   6.890  1.00  0.00     0.002 C
HETATM   12  C9  UNL     1      31.126  66.361   6.310  1.00  0.00     0.002 C
HETATM   13  C10 UNL     1      29.682  66.571   6.686  1.00  0.00     0.020 C
ATOM     14  H4  UNL     1      29.392  67.182  11.090  1.00  0.00     0.205 HD
ENDBRANCH   3   4
BRANCH   1  15
HETATM   15  C3  UNL     1      27.156  63.687  12.700  1.00  0.00     0.299 C
BRANCH  15  16
HETATM   16  C2  UNL     1      26.319  63.912  11.495  1.00  0.00     0.143 C
BRANCH  16  17
HETATM   17  C1  UNL     1      24.886  63.706  11.595  1.00  0.00     0.233 C
HETATM   18  N1  UNL     1      24.373  63.035  12.738  1.00  0.00    -0.062 NA
HETATM   19  O1  UNL     1      24.094  64.092  10.726  1.00  0.00    -0.277 OA
ENDBRANCH  16  17
ENDBRANCH  15  16
BRANCH  15  20
HETATM   20  N2  UNL     1      28.132  62.649  12.280  1.00  0.00    -0.065 N
ATOM     21  H23 UNL     1      27.786  61.693  12.361  1.00  0.00     0.275 HD
ATOM     22  H22 UNL     1      28.304  62.620  11.274  1.00  0.00     0.275 HD
ATOM     23  H21 UNL     1      28.962  62.842  12.840  1.00  0.00     0.275 HD
ENDBRANCH  15  20
ENDBRANCH   1  15
TORSDOF 5
ENDMDL