MODEL 2
REMARK VINA RESULT: -6.553598671      1.855      1.914
REMARK  5 active torsions:
REMARK  status: ('A' for Active; 'I' for Inactive)
REMARK    1  A    between atoms: O1_2  and  N1_3
REMARK    2  A    between atoms: N1_3  and  C2_5
REMARK    3  A    between atoms: C2_5  and  C3_7
REMARK       I    between atoms: N2_11  and  C7_12
REMARK    4  A    between atoms: C7_12  and  C8_14
REMARK    5  A    between atoms: C8_14  and  N3_16
REMARK       I    between atoms: N3_16  and  C10_18
ROOT
HETATM    1  C3  UNL     1      28.143  65.647  11.899  1.00  0.00     0.150 C
HETATM    2  C4  UNL     1      26.907  66.569  11.936  1.00  0.00     0.034 C
HETATM    3  C5  UNL     1      27.550  67.930  11.694  1.00  0.00     0.022 C
HETATM    4  C6  UNL     1      28.941  67.632  11.151  1.00  0.00     0.127 C
HETATM    5  N2  UNL     1      28.871  66.202  10.779  1.00  0.00    -0.339 N
HETATM    6  C7  UNL     1      29.420  65.670   9.607  1.00  0.00     0.242 C
HETATM    7  O2  UNL     1      29.315  64.441   9.395  1.00  0.00    -0.271 OA
ENDROOT
BRANCH   1   8
HETATM    8  C2  UNL     1      27.776  64.249  11.818  1.00  0.00     0.121 C
HETATM    9  S1  UNL     1      28.574  63.148  12.714  1.00  0.00    -0.061 SA
BRANCH   8  10
HETATM   10  N1  UNL     1      26.727  63.834  10.964  1.00  0.00    -0.258 N
ATOM     11  H1  UNL     1      25.932  64.456  10.820  1.00  0.00     0.195 HD
BRANCH  10  12
HETATM   12  O1  UNL     1      26.744  62.626  10.325  1.00  0.00    -0.284 OA
HETATM   13  C1  UNL     1      25.551  62.475   9.631  1.00  0.00     0.237 C
ENDBRANCH  10  12
ENDBRANCH   8  10
ENDBRANCH   1   8
BRANCH   6  14
HETATM   14  C8  UNL     1      30.128  66.468   8.579  1.00  0.00     0.172 C
HETATM   15  C9  UNL     1      29.663  65.993   7.213  1.00  0.00     0.042 C
BRANCH  14  16
HETATM   16  N3  UNL     1      31.562  66.210   8.604  1.00  0.00    -0.352 N
HETATM   17  C10 UNL     1      32.372  66.985   7.734  1.00  0.00     0.182 C
HETATM   18  N4  UNL     1      33.659  67.027   7.876  1.00  0.00    -0.374 N
HETATM   19  N5  UNL     1      31.829  67.751   6.671  1.00  0.00    -0.064 NA
ATOM     20  H42 UNL     1      34.049  66.477   8.640  1.00  0.00     0.158 HD
ATOM     21  H41 UNL     1      34.242  67.585   7.250  1.00  0.00     0.158 HD
ATOM     22  H3  UNL     1      31.966  65.504   9.220  1.00  0.00     0.163 HD
ENDBRANCH  14  16
ENDBRANCH   6  14
TORSDOF 5
ENDMDL