MODEL 4
REMARK VINA RESULT: -6.671259737      3.475      6.460
REMARK  5 active torsions:
REMARK  status: ('A' for Active; 'I' for Inactive)
REMARK    1  A    between atoms: C4_4  and  C5_5
REMARK    2  A    between atoms: C5_5  and  C6_6
REMARK    3  A    between atoms: C6_6  and  N1_7
REMARK    4  A    between atoms: C6_6  and  C12_22
REMARK       I    between atoms: N1_7  and  C7_9
REMARK       I    between atoms: C7_9  and  N3_14
REMARK    5  A    between atoms: N2_10  and  O1_12
ROOT
HETATM    1  C1  UNL     1      28.911  71.381  12.899  1.00  0.00     0.017 C
HETATM    2  C2  UNL     1      29.642  70.461  13.196  1.00  0.00    -0.090 C
HETATM    3  C3  UNL     1      30.486  69.363  13.555  1.00  0.00     0.059 C
HETATM    4  C4  UNL     1      30.116  68.113  13.593  1.00  0.00    -0.015 C
ENDROOT
BRANCH   4   5
HETATM    5  C5  UNL     1      28.745  67.702  13.257  1.00  0.00     0.062 C
BRANCH   5   6
HETATM    6  C6  UNL     1      28.656  66.776  12.061  1.00  0.00     0.192 C
BRANCH   6   7
HETATM    7  N1  UNL     1      29.608  67.176  11.037  1.00  0.00    -0.211 N
HETATM    8  C7  UNL     1      30.021  66.239  10.058  1.00  0.00     0.696 C
HETATM    9  N2  UNL     1      29.941  64.960  10.307  1.00  0.00    -0.099 N
HETATM   10  N3  UNL     1      30.536  66.600   8.787  1.00  0.00    -0.213 N
ATOM     11  H2  UNL     1      29.577  64.666  11.213  1.00  0.00     0.213 HD
HETATM   12  C8  UNL     1      31.944  66.435   8.501  1.00  0.00     0.168 C
HETATM   13  C11 UNL     1      29.699  67.136   7.740  1.00  0.00     0.168 C
HETATM   14  C9  UNL     1      32.333  67.347   7.342  1.00  0.00     0.252 C
HETATM   15  N4  UNL     1      31.591  67.024   6.163  1.00  0.00    -0.072 N
HETATM   16  C10 UNL     1      30.239  66.575   6.426  1.00  0.00     0.252 C
ATOM     17  H42 UNL     1      31.587  67.811   5.514  1.00  0.00     0.277 HD
ATOM     18  H41 UNL     1      32.093  66.339   5.599  1.00  0.00     0.277 HD
ATOM     19  H1  UNL     1      29.977  68.127  11.024  1.00  0.00     0.178 HD
BRANCH   9  20
HETATM   20  O1  UNL     1      30.315  64.000   9.424  1.00  0.00    -0.276 OA
ATOM     21  H1  UNL     1      30.068  63.086   9.506  1.00  0.00     0.245 HD
ENDBRANCH   9  20
ENDBRANCH   6   7
BRANCH   6  22
HETATM   22  C12 UNL     1      27.289  66.678  11.542  1.00  0.00     0.254 C
HETATM   23  N5  UNL     1      26.718  65.465  11.083  1.00  0.00    -0.060 NA
HETATM   24  O2  UNL     1      26.517  67.690  11.465  1.00  0.00    -0.275 OA
ENDBRANCH   6  22
ENDBRANCH   5   6
ENDBRANCH   4   5
TORSDOF 5
ENDMDL