MODEL 1
REMARK VINA RESULT: -7.799036178      0.000      0.000
REMARK  4 active torsions:
REMARK  status: ('A' for Active; 'I' for Inactive)
REMARK    1  A    between atoms: C1_2  and  C2_4
REMARK    2  A    between atoms: C2_4  and  C3_5
REMARK    3  A    between atoms: C3_5  and  C4_6
REMARK    4  A    between atoms: C4_6  and  N2_7
ROOT
HETATM    1  N2  UNL     1      31.347  65.725   9.553  1.00  0.00    -0.226 N
ATOM      2  H2  UNL     1      32.184  65.246   9.884  1.00  0.00     0.177 HD
HETATM    3  C5  UNL     1      30.149  65.299   9.840  1.00  0.00     0.679 A
HETATM    4  N3  UNL     1      29.834  64.208  10.586  1.00  0.00    -0.184 N
ATOM      5  H3  UNL     1      30.516  63.583  11.017  1.00  0.00     0.184 HD
HETATM    6  C6  UNL     1      28.512  64.064  10.680  1.00  0.00     0.148 A
HETATM    7  C7  UNL     1      27.946  65.095   9.972  1.00  0.00     0.137 A
HETATM    8  N4  UNL     1      28.958  65.813   9.484  1.00  0.00    -0.185 N
ATOM      9  H4  UNL     1      28.842  66.649   8.912  1.00  0.00     0.184 HD
HETATM   10  C8  UNL     1      26.504  65.273   9.845  1.00  0.00     0.269 A
HETATM   11  O2  UNL     1      26.027  66.239   9.182  1.00  0.00    -0.280 OA
HETATM   12  C9  UNL     1      25.594  64.327  10.489  1.00  0.00     0.300 A
HETATM   13  O3  UNL     1      24.345  64.462  10.392  1.00  0.00    -0.264 OA
HETATM   14  N5  UNL     1      26.192  63.264  11.220  1.00  0.00    -0.285 N
ATOM     15  H5  UNL     1      25.589  62.585  11.684  1.00  0.00     0.172 HD
HETATM   16  C10 UNL     1      27.602  63.114  11.328  1.00  0.00     0.278 A
HETATM   17  O4  UNL     1      28.123  62.154  11.987  1.00  0.00    -0.266 OA
ENDROOT
BRANCH   1  18
HETATM   18  C4  UNL     1      31.418  66.934   8.725  1.00  0.00     0.138 C
BRANCH  18  19
HETATM   19  C3  UNL     1      32.147  66.701   7.451  1.00  0.00     0.029 C
BRANCH  19  20
HETATM   20  C2  UNL     1      31.241  66.964   6.281  1.00  0.00     0.101 C
BRANCH  20  21
HETATM   21  C1  UNL     1      29.872  66.476   6.422  1.00  0.00     0.231 C
HETATM   22  N1  UNL     1      28.828  67.420   6.683  1.00  0.00    -0.062 NA
HETATM   23  O1  UNL     1      29.510  65.269   6.334  1.00  0.00    -0.277 OA
ENDBRANCH  20  21
ENDBRANCH  19  20
ENDBRANCH  18  19
ENDBRANCH   1  18
TORSDOF 4
ENDMDL