MODEL 2
REMARK VINA RESULT: -6.559909806      2.354      3.586
REMARK  4 active torsions:
REMARK  status: ('A' for Active; 'I' for Inactive)
REMARK       I    between atoms: C1_2  and  N2_4
REMARK    1  A    between atoms: N2_4  and  C2_6
REMARK    2  A    between atoms: C2_6  and  C3_7
REMARK    3  A    between atoms: C2_6  and  C8_18
REMARK       I    between atoms: C3_7  and  N3_9
REMARK    4  A    between atoms: N3_9  and  N4_11
ROOT
HETATM    1  C3  UNL     1      28.028  65.944   9.704  1.00  0.00     0.259 C
HETATM    2  O2  UNL     1      28.300  64.738   9.886  1.00  0.00    -0.269 OA
HETATM    3  N3  UNL     1      26.660  66.277   9.557  1.00  0.00    -0.263 N
ATOM      4  H3  UNL     1      26.426  67.258   9.408  1.00  0.00     0.190 HD
ENDROOT
BRANCH   1   5
HETATM    5  C2  UNL     1      29.056  66.991   9.641  1.00  0.00     0.183 C
BRANCH   5   6
HETATM    6  N2  UNL     1      30.088  66.829   8.685  1.00  0.00    -0.332 N
HETATM    7  C1  UNL     1      30.081  67.188   7.321  1.00  0.00     0.329 C
HETATM    8  N1  UNL     1      31.141  67.012   6.411  1.00  0.00    -0.040 NA
HETATM    9  O1  UNL     1      29.021  67.723   6.850  1.00  0.00    -0.251 OA
ATOM     10  H2  UNL     1      30.947  66.397   9.027  1.00  0.00     0.164 HD
ENDBRANCH   5   6
BRANCH   5  11
HETATM   11  C8  UNL     1      29.533  67.279  11.042  1.00  0.00     0.018 A
HETATM   12  C9  UNL     1      28.914  68.286  11.904  1.00  0.00     0.007 A
HETATM   13  C10 UNL     1      28.822  66.785  12.242  1.00  0.00     0.007 A
ENDBRANCH   5  11
ENDBRANCH   1   5
BRANCH   3  14
HETATM   14  N4  UNL     1      25.611  65.359   9.602  1.00  0.00    -0.249 N
HETATM   15  C4  UNL     1      24.884  65.146  10.838  1.00  0.00     0.225 C
HETATM   16  S1  UNL     1      24.682  63.358  11.055  1.00  0.00    -0.147 SA
HETATM   17  C5  UNL     1      24.770  62.571   9.427  1.00  0.00     0.085 C
HETATM   18  C6  UNL     1      24.315  63.595   8.408  1.00  0.00     0.115 C
HETATM   19  C7  UNL     1      25.326  64.675   8.394  1.00  0.00     0.239 C
HETATM   20  O3  UNL     1      25.911  64.972   7.326  1.00  0.00    -0.272 OA
ENDBRANCH   3  14
TORSDOF 4
ENDMDL