MODEL 1
REMARK VINA RESULT: -7.676311146      0.000      0.000
REMARK  3 active torsions:
REMARK  status: ('A' for Active; 'I' for Inactive)
REMARK       I    between atoms: N1_1  and  C1_4
REMARK       I    between atoms: C1_4  and  N2_6
REMARK       I    between atoms: N2_6  and  C2_8
REMARK       I    between atoms: C2_8  and  N3_10
REMARK    1  A    between atoms: N3_10  and  S1_12
REMARK    2  A    between atoms: S1_12  and  N4_15
REMARK    3  A    between atoms: N4_15  and  C3_17
ROOT
HETATM    1  N1  UNL     1      24.481  61.769   9.063  1.00  0.00    -0.352 N
ATOM      2  H11 UNL     1      23.569  62.160   8.826  1.00  0.00     0.160 HD
ATOM      3  H12 UNL     1      24.572  60.764   8.915  1.00  0.00     0.160 HD
HETATM    4  C1  UNL     1      25.643  62.297   9.551  1.00  0.00     0.321 C
HETATM    5  O1  UNL     1      26.669  61.857   9.819  1.00  0.00    -0.247 OA
HETATM    6  N2  UNL     1      25.490  63.990   9.801  1.00  0.00    -0.260 N
ATOM      7  H2  UNL     1      24.696  64.619   9.675  1.00  0.00     0.175 HD
HETATM    8  C2  UNL     1      26.786  64.229  10.228  1.00  0.00     0.338 C
HETATM    9  O2  UNL     1      27.769  63.468  10.290  1.00  0.00    -0.246 OA
HETATM   10  N3  UNL     1      27.032  65.628  10.679  1.00  0.00    -0.219 N
ATOM     11  H3  UNL     1      26.280  66.316  10.695  1.00  0.00     0.185 HD
ENDROOT
BRANCH  10  12
HETATM   12  S1  UNL     1      28.596  66.033  11.163  1.00  0.00     0.323 S
HETATM   13  O3  UNL     1      28.858  65.547  12.547  1.00  0.00    -0.182 OA
HETATM   14  O4  UNL     1      28.661  67.559  11.252  1.00  0.00    -0.182 OA
BRANCH  12  15
HETATM   15  N4  UNL     1      29.812  65.583  10.034  1.00  0.00    -0.298 N
ATOM     16  H4  UNL     1      30.176  64.634   9.937  1.00  0.00     0.174 HD
BRANCH  15  17
HETATM   17  C3  UNL     1      30.261  66.704   9.237  1.00  0.00     0.094 C
HETATM   18  C4  UNL     1      29.511  66.736   7.919  1.00  0.00     0.026 C
HETATM   19  C5  UNL     1      30.200  65.994   6.814  1.00  0.00     0.002 C
HETATM   20  C6  UNL     1      31.503  66.657   6.458  1.00  0.00     0.000 C
HETATM   21  C7  UNL     1      32.200  67.156   7.688  1.00  0.00     0.002 C
HETATM   22  C8  UNL     1      31.718  66.491   8.948  1.00  0.00     0.026 C
ENDBRANCH  15  17
ENDBRANCH  12  15
ENDBRANCH  10  12
TORSDOF 3
ENDMDL