MODEL 4
REMARK VINA RESULT: -6.447762847      1.954      5.808
REMARK  6 active torsions:
REMARK  status: ('A' for Active; 'I' for Inactive)
REMARK    1  A    between atoms: C2_2  and  C4_4
REMARK    2  A    between atoms: C4_4  and  C5_5
REMARK    3  A    between atoms: C4_4  and  C6_8
REMARK    4  A    between atoms: C6_8  and  N2_9
REMARK    5  A    between atoms: C6_8  and  N3_13
REMARK       I    between atoms: N3_13  and  C7_15
REMARK    6  A    between atoms: C7_15  and  C8_17
ROOT
HETATM    1  C6  UNL     1      29.409  66.673   9.562  1.00  0.00     0.297 C
ENDROOT
BRANCH   1   2
HETATM    2  C4  UNL     1      29.978  66.993   8.228  1.00  0.00     0.128 C
BRANCH   2   3
HETATM    3  C2  UNL     1      31.377  66.574   7.973  1.00  0.00    -0.006 C
HETATM    4  C1  UNL     1      31.895  67.375   6.793  1.00  0.00     0.010 C
HETATM    5  C3  UNL     1      32.340  66.693   9.088  1.00  0.00     0.010 C
ENDBRANCH   2   3
BRANCH   2   6
HETATM    6  C5  UNL     1      29.118  66.361   7.193  1.00  0.00     0.239 C
HETATM    7  N1  UNL     1      27.848  66.879   6.808  1.00  0.00    -0.062 NA
HETATM    8  O1  UNL     1      29.485  65.317   6.599  1.00  0.00    -0.276 OA
ENDBRANCH   2   6
ENDBRANCH   1   2
BRANCH   1   9
HETATM    9  N2  UNL     1      28.801  67.773  10.254  1.00  0.00    -0.058 N
ATOM     10  H23 UNL     1      29.493  68.505  10.421  1.00  0.00     0.276 HD
ATOM     11  H22 UNL     1      28.162  68.267   9.631  1.00  0.00     0.276 HD
ATOM     12  H21 UNL     1      28.326  67.536  11.125  1.00  0.00     0.276 HD
ENDBRANCH   1   9
BRANCH   1  13
HETATM   13  N3  UNL     1      28.385  65.659   9.388  1.00  0.00    -0.329 N
HETATM   14  C7  UNL     1      27.760  65.009  10.493  1.00  0.00     0.243 C
HETATM   15  O2  UNL     1      28.121  65.341  11.631  1.00  0.00    -0.269 OA
ATOM     16  H3  UNL     1      28.103  65.403   8.443  1.00  0.00     0.164 HD
BRANCH  14  17
HETATM   17  C8  UNL     1      26.745  64.006  10.283  1.00  0.00     0.087 C
HETATM   18  C9  UNL     1      25.655  64.082   9.568  1.00  0.00     0.016 C
HETATM   19  C10 UNL     1      24.679  62.932   9.444  1.00  0.00     0.064 C
HETATM   20  C12 UNL     1      25.073  65.136   8.769  1.00  0.00     0.247 C
HETATM   21  C11 UNL     1      24.132  63.103   8.041  1.00  0.00     0.128 C
HETATM   22  N4  UNL     1      24.367  64.481   7.700  1.00  0.00    -0.357 N
ATOM     23  H4  UNL     1      24.076  64.927   6.831  1.00  0.00     0.162 HD
HETATM   24  O3  UNL     1      25.151  66.369   8.953  1.00  0.00    -0.268 OA
ENDBRANCH  14  17
ENDBRANCH   1  13
TORSDOF 6
ENDMDL