MODEL 5
REMARK VINA RESULT: -5.941056592      2.377      3.610
REMARK  5 active torsions:
REMARK  status: ('A' for Active; 'I' for Inactive)
REMARK    1  A    between atoms: N1_2  and  C2_4
REMARK    2  A    between atoms: N2_5  and  N3_7
REMARK       I    between atoms: N3_7  and  C3_9
REMARK       I    between atoms: C3_9  and  N5_13
REMARK    3  A    between atoms: N5_13  and  C4_15
REMARK    4  A    between atoms: C4_15  and  C5_16
REMARK    5  A    between atoms: C5_16  and  O2_18
ROOT
HETATM    1  N3  UNL     1      28.197  66.178   8.912  1.00  0.00    -0.132 N
ATOM      2  H3  UNL     1      27.392  65.813   8.403  1.00  0.00     0.205 HD
HETATM    3  C3  UNL     1      28.043  66.524  10.281  1.00  0.00     0.688 C
HETATM    4  N4  UNL     1      28.691  67.584  10.653  1.00  0.00    -0.234 N
ATOM      5  H41 UNL     1      28.580  67.833  11.637  1.00  0.00     0.174 HD
ATOM      6  H42 UNL     1      29.243  68.063   9.942  1.00  0.00     0.174 HD
HETATM    7  N5  UNL     1      27.289  65.870  11.251  1.00  0.00    -0.180 N
ATOM      8  H5  UNL     1      26.544  66.404  11.698  1.00  0.00     0.181 HD
ENDROOT
BRANCH   7   9
HETATM    9  C4  UNL     1      27.470  64.481  11.688  1.00  0.00     0.307 C
HETATM   10  C7  UNL     1      28.738  64.240  12.476  1.00  0.00     0.082 C
HETATM   11  C8  UNL     1      28.697  65.388  13.460  1.00  0.00     0.039 C
HETATM   12  C11 UNL     1      27.897  63.272  13.241  1.00  0.00     0.250 C
HETATM   13  C9  UNL     1      27.202  65.315  13.768  1.00  0.00     0.241 C
HETATM   14  N6  UNL     1      26.819  64.191  12.925  1.00  0.00    -0.033 N
HETATM   15  C10 UNL     1      25.510  63.713  12.976  1.00  0.00     0.276 C
BRANCH   9  16
HETATM   16  C5  UNL     1      27.312  63.529  10.575  1.00  0.00     0.317 C
HETATM   17  O1  UNL     1      28.190  62.641  10.420  1.00  0.00    -0.260 OA
BRANCH  16  18
HETATM   18  O2  UNL     1      26.287  63.491   9.657  1.00  0.00    -0.323 OA
HETATM   19  C6  UNL     1      25.354  62.454   9.534  1.00  0.00     0.213 C
ENDBRANCH  16  18
ENDBRANCH   9  16
ENDBRANCH   7   9
BRANCH   1  20
HETATM   20  N2  UNL     1      29.417  66.319   8.238  1.00  0.00    -0.282 N
HETATM   21  C2  UNL     1      29.517  67.018   7.147  1.00  0.00     0.193 C
ATOM     22  H2  UNL     1      30.247  65.862   8.612  1.00  0.00     0.188 HD
BRANCH  21  23
HETATM   23  N1  UNL     1      30.758  67.157   6.466  1.00  0.00    -0.389 N
HETATM   24  C1  UNL     1      32.033  67.117   7.179  1.00  0.00     0.147 C
ATOM     25  H1  UNL     1      30.757  67.288   5.455  1.00  0.00     0.159 HD
ENDBRANCH  21  23
ENDBRANCH   1  20
TORSDOF 5
ENDMDL