MODEL 3
REMARK VINA RESULT: -7.675298965      2.848      6.610
REMARK  5 active torsions:
REMARK  status: ('A' for Active; 'I' for Inactive)
REMARK    1  A    between atoms: C3_9  and  N3_10
REMARK    2  A    between atoms: N3_10  and  C4_12
REMARK    3  A    between atoms: C4_12  and  C5_13
REMARK    4  A    between atoms: C5_13  and  C6_14
REMARK    5  A    between atoms: C6_14  and  N4_15
ROOT
HETATM    1  N3  UNL     1      30.113  64.638  10.101  1.00  0.00    -0.226 N
ATOM      2  H3  UNL     1      30.567  63.728  10.027  1.00  0.00     0.177 HD
ENDROOT
BRANCH   1   3
HETATM    3  C3  UNL     1      30.368  65.520   9.232  1.00  0.00     0.686 A
HETATM    4  N2  UNL     1      29.411  66.089   8.501  1.00  0.00    -0.141 N
HETATM    5  C2  UNL     1      29.795  67.032   7.589  1.00  0.00     0.342 A
ATOM      6  H2  UNL     1      28.431  65.831   8.618  1.00  0.00     0.189 HD
HETATM    7  N1  UNL     1      31.079  67.384   7.421  1.00  0.00    -0.260 N
HETATM    8  O2  UNL     1      28.904  67.589   6.880  1.00  0.00    -0.246 OA
HETATM    9  C1  UNL     1      32.043  66.803   8.168  1.00  0.00     0.342 A
ATOM     10  H1  UNL     1      31.326  68.092   6.729  1.00  0.00     0.175 HD
HETATM   11  O1  UNL     1      33.258  67.100   8.046  1.00  0.00    -0.246 OA
HETATM   12  N6  UNL     1      31.649  65.885   9.052  1.00  0.00    -0.141 N
ATOM     13  H6  UNL     1      32.361  65.433   9.624  1.00  0.00     0.189 HD
ENDBRANCH   1   3
BRANCH   1  14
HETATM   14  C4  UNL     1      29.204  64.873  11.192  1.00  0.00     0.139 C
BRANCH  14  15
HETATM   15  C5  UNL     1      28.633  63.528  11.627  1.00  0.00     0.040 C
BRANCH  15  16
HETATM   16  C6  UNL     1      27.218  63.783  12.169  1.00  0.00     0.122 C
BRANCH  16  17
HETATM   17  N4  UNL     1      26.298  63.027  11.378  1.00  0.00    -0.380 N
HETATM   18  C7  UNL     1      25.649  63.499  10.347  1.00  0.00     0.072 C
HETATM   19  C8  UNL     1      24.744  62.588   9.649  1.00  0.00     0.076 C
HETATM   20  N5  UNL     1      25.789  64.819   9.895  1.00  0.00    -0.380 N
HETATM   21  C9  UNL     1      24.278  63.035   8.316  1.00  0.00     0.009 C
HETATM   22  C10 UNL     1      24.167  64.490   8.075  1.00  0.00     0.020 C
HETATM   23  C11 UNL     1      24.730  65.392   9.127  1.00  0.00     0.121 C
ATOM     24  H5  UNL     1      26.629  65.358  10.109  1.00  0.00     0.160 HD
ATOM     25  H4  UNL     1      26.137  62.054  11.637  1.00  0.00     0.160 HD
ENDBRANCH  16  17
ENDBRANCH  15  16
ENDBRANCH  14  15
ENDBRANCH   1  14
TORSDOF 5
ENDMDL