MODEL 5
REMARK VINA RESULT: -8.802849139      4.340     11.117
REMARK  12 active torsions:
REMARK  status: ('A' for Active; 'I' for Inactive)
REMARK    1  A    between atoms: O1_2  and  C2_3
REMARK    2  A    between atoms: C7_8  and  O2_9
REMARK    3  A    between atoms: N1_12  and  C10_13
REMARK    4  A    between atoms: C10_13  and  C11_14
REMARK    5  A    between atoms: C11_14  and  C12_15
REMARK    6  A    between atoms: C12_15  and  C13_16
REMARK    7  A    between atoms: C13_16  and  O3_17
REMARK    8  A    between atoms: O3_17  and  C14_18
REMARK    9  A    between atoms: C17_21  and  N2_22
REMARK   10  A    between atoms: C20_26  and  N3_27
REMARK   11  A    between atoms: C27_41  and  C28_42
REMARK   12  A    between atoms: C28_42  and  N7_43
ROOT
HETATM    1  C14 UNL     1      23.302  27.788  16.260  1.00  0.00     0.076 A
HETATM    2  C15 UNL     1      23.185  26.983  17.396  1.00  0.00     0.039 A
HETATM    3  C16 UNL     1      22.013  26.471  17.851  1.00  0.00     0.032 A
HETATM    4  C17 UNL     1      20.854  26.759  17.152  1.00  0.00     0.034 A
HETATM    5  C26 UNL     1      20.904  27.541  16.033  1.00  0.00     0.041 A
HETATM    6  C27 UNL     1      22.103  28.050  15.588  1.00  0.00     0.003 A
ENDROOT
BRANCH   1   7
HETATM    7  O3  UNL     1      24.436  28.246  15.874  1.00  0.00    -0.351 OA
BRANCH   7   8
HETATM    8  C13 UNL     1      25.625  28.627  15.540  1.00  0.00     0.175 C
BRANCH   8   9
HETATM    9  C12 UNL     1      26.475  29.442  16.508  1.00  0.00     0.028 C
BRANCH   9  10
HETATM   10  C11 UNL     1      26.604  28.738  17.816  1.00  0.00     0.022 C
BRANCH  10  11
HETATM   11  C10 UNL     1      27.394  27.449  17.713  1.00  0.00     0.126 C
BRANCH  11  12
HETATM   12  N1  UNL     1      26.699  26.336  18.326  1.00  0.00    -0.348 N
HETATM   13  C9  UNL     1      26.332  26.501  19.715  1.00  0.00     0.165 C
HETATM   14  C5  UNL     1      25.172  25.649  20.020  1.00  0.00    -0.031 A
HETATM   15  C4  UNL     1      25.067  24.420  19.411  1.00  0.00    -0.039 A
HETATM   16  C6  UNL     1      24.197  26.093  20.926  1.00  0.00     0.049 A
HETATM   17  C3  UNL     1      23.977  23.614  19.703  1.00  0.00     0.047 A
HETATM   18  C30 UNL     1      26.108  23.942  18.432  1.00  0.00     0.142 C
HETATM   19  C2  UNL     1      23.009  24.038  20.596  1.00  0.00     0.102 A
HETATM   20  C7  UNL     1      23.120  25.281  21.207  1.00  0.00     0.102 A
HETATM   21  C29 UNL     1      26.405  25.156  17.593  1.00  0.00     0.224 C
HETATM   22  O4  UNL     1      26.393  25.122  16.355  1.00  0.00    -0.273 OA
BRANCH  19  23
HETATM   23  O1  UNL     1      21.911  23.251  20.905  1.00  0.00    -0.353 OA
HETATM   24  C1  UNL     1      20.869  23.147  19.957  1.00  0.00     0.210 C
ENDBRANCH  19  23
BRANCH  20  25
HETATM   25  O2  UNL     1      22.139  25.675  22.091  1.00  0.00    -0.353 OA
HETATM   26  C8  UNL     1      21.339  26.810  21.850  1.00  0.00     0.210 C
ENDBRANCH  20  25
ENDBRANCH  11  12
ENDBRANCH  10  11
ENDBRANCH   9  10
ENDBRANCH   8   9
ENDBRANCH   7   8
ENDBRANCH   1   7
BRANCH   6  27
HETATM   27  C28 UNL     1      22.198  28.901  14.380  1.00  0.00     0.271 C
BRANCH  27  28
HETATM   28  N7  UNL     1      21.012  28.658  13.575  1.00  0.00    -0.075 N
ATOM     29  H73 UNL     1      20.837  27.666  13.415  1.00  0.00     0.274 HD
ATOM     30  H72 UNL     1      20.146  28.869  14.071  1.00  0.00     0.274 HD
ATOM     31  H71 UNL     1      21.113  29.187  12.708  1.00  0.00     0.274 HD
ENDBRANCH  27  28
ENDBRANCH   6  27
BRANCH   4  32
HETATM   32  N2  UNL     1      19.644  26.210  17.646  1.00  0.00    -0.342 N
HETATM   33  C18 UNL     1      19.125  25.116  17.231  1.00  0.00     0.110 A
HETATM   34  C19 UNL     1      17.936  24.655  17.775  1.00  0.00     0.097 A
HETATM   35  N6  UNL     1      19.730  24.407  16.276  1.00  0.00    -0.338 N
HETATM   36  C20 UNL     1      17.350  23.476  17.358  1.00  0.00     0.107 A
HETATM   37  N5  UNL     1      18.003  22.805  16.395  1.00  0.00    -0.339 N
HETATM   38  C25 UNL     1      19.176  23.247  15.848  1.00  0.00     0.183 A
ATOM     39  H5  UNL     1      17.606  21.929  16.056  1.00  0.00     0.168 HD
ATOM     40  H6  UNL     1      20.605  24.738  15.869  1.00  0.00     0.168 HD
ATOM     41  H2  UNL     1      19.155  26.720  18.381  1.00  0.00     0.167 HD
BRANCH  36  42
HETATM   42  N3  UNL     1      16.129  23.004  17.941  1.00  0.00    -0.364 N
HETATM   43  C21 UNL     1      16.078  22.250  19.175  1.00  0.00     0.152 C
HETATM   44  C22 UNL     1      15.023  21.203  19.198  1.00  0.00     0.252 C
HETATM   45  N4  UNL     1      13.893  21.382  18.356  1.00  0.00    -0.072 N
HETATM   46  C23 UNL     1      14.229  21.905  17.045  1.00  0.00     0.252 C
ATOM     47  H42 UNL     1      13.361  20.515  18.274  1.00  0.00     0.277 HD
ATOM     48  H41 UNL     1      13.192  21.967  18.810  1.00  0.00     0.277 HD
HETATM   49  C24 UNL     1      14.843  23.284  17.332  1.00  0.00     0.152 C
ENDBRANCH  36  42
ENDBRANCH   4  32
TORSDOF 12
ENDMDL