MODEL 5
REMARK VINA RESULT: -8.560601666      2.574      4.527
REMARK  13 active torsions:
REMARK  status: ('A' for Active; 'I' for Inactive)
REMARK    1  A    between atoms: C2_2  and  C3_3
REMARK    2  A    between atoms: C4_4  and  C5_5
REMARK    3  A    between atoms: C5_5  and  C6_6
REMARK       I    between atoms: C6_6  and  N1_8
REMARK    4  A    between atoms: N1_8  and  C7_10
REMARK    5  A    between atoms: C7_10  and  C8_11
REMARK    6  A    between atoms: C7_10  and  C10_13
REMARK       I    between atoms: C10_13  and  N2_15
REMARK    7  A    between atoms: N2_15  and  C11_17
REMARK    8  A    between atoms: C11_17  and  C12_18
REMARK    9  A    between atoms: C12_18  and  O3_21
REMARK   10  A    between atoms: N4_27  and  C17_28
REMARK   11  A    between atoms: N5_33  and  C21_34
REMARK   12  A    between atoms: C21_34  and  C22_35
REMARK   13  A    between atoms: C26_39  and  O5_40
ROOT
HETATM    1  C3  UNL     1      20.017  24.711  18.991  1.00  0.00     0.027 A
HETATM    2  C4  UNL     1      19.362  24.114  17.903  1.00  0.00    -0.012 A
HETATM    3  C15 UNL     1      19.264  24.808  16.701  1.00  0.00     0.023 A
HETATM    4  C16 UNL     1      18.696  24.488  15.488  1.00  0.00     0.121 A
HETATM    5  N3  UNL     1      18.895  25.534  14.679  1.00  0.00    -0.308 N
ATOM      6  H3  UNL     1      18.585  25.592  13.709  1.00  0.00     0.186 HD
HETATM    7  N4  UNL     1      19.563  26.497  15.333  1.00  0.00    -0.287 N
HETATM    8  C19 UNL     1      19.797  26.056  16.589  1.00  0.00     0.131 A
HETATM    9  C20 UNL     1      20.418  26.568  17.695  1.00  0.00     0.281 A
HETATM   10  O4  UNL     1      20.897  27.697  17.589  1.00  0.00    -0.265 OA
HETATM   11  N5  UNL     1      20.551  25.936  18.903  1.00  0.00    -0.290 N
ENDROOT
BRANCH   2  12
HETATM   12  C5  UNL     1      18.662  22.806  17.954  1.00  0.00     0.144 C
BRANCH  12  13
HETATM   13  C6  UNL     1      17.188  22.931  18.058  1.00  0.00     0.222 C
HETATM   14  O1  UNL     1      16.697  23.734  18.864  1.00  0.00    -0.273 OA
HETATM   15  N1  UNL     1      16.352  22.142  17.242  1.00  0.00    -0.348 N
ATOM     16  H1  UNL     1      16.764  21.488  16.576  1.00  0.00     0.163 HD
BRANCH  15  17
HETATM   17  C7  UNL     1      14.914  22.255  17.342  1.00  0.00     0.176 C
BRANCH  17  18
HETATM   18  C8  UNL     1      14.431  22.876  16.046  1.00  0.00     0.030 C
HETATM   19  C9  UNL     1      15.446  22.611  14.988  1.00  0.00     0.007 C
ENDBRANCH  17  18
BRANCH  17  20
HETATM   20  C10 UNL     1      14.274  20.926  17.565  1.00  0.00     0.244 C
HETATM   21  O2  UNL     1      14.937  19.948  17.197  1.00  0.00    -0.271 OA
HETATM   22  N2  UNL     1      13.010  20.772  18.148  1.00  0.00    -0.336 N
ATOM     23  H2  UNL     1      12.562  21.651  18.405  1.00  0.00     0.168 HD
BRANCH  22  24
HETATM   24  C11 UNL     1      12.242  19.630  18.445  1.00  0.00     0.100 C
BRANCH  24  25
HETATM   25  C12 UNL     1      12.588  18.716  19.541  1.00  0.00     0.082 C
HETATM   26  C13 UNL     1      13.662  19.244  20.467  1.00  0.00     0.051 C
HETATM   27  C14 UNL     1      12.810  17.264  19.201  1.00  0.00     0.051 C
BRANCH  25  28
HETATM   28  O3  UNL     1      11.390  18.671  20.351  1.00  0.00    -0.385 OA
ATOM     29  H3  UNL     1      11.044  19.554  20.301  1.00  0.00     0.211 HD
ENDBRANCH  25  28
ENDBRANCH  24  25
ENDBRANCH  22  24
ENDBRANCH  17  20
ENDBRANCH  15  17
ENDBRANCH  12  13
ENDBRANCH   2  12
BRANCH   1  30
HETATM   30  C2  UNL     1      19.984  23.997  20.258  1.00  0.00     0.054 C
HETATM   31  C1  UNL     1      21.081  22.979  20.393  1.00  0.00     0.011 C
ENDBRANCH   1  30
BRANCH  11  32
HETATM   32  C21 UNL     1      21.309  26.583  19.907  1.00  0.00     0.112 C
BRANCH  32  33
HETATM   33  C22 UNL     1      22.623  26.136  20.353  1.00  0.00    -0.013 A
HETATM   34  C23 UNL     1      23.556  25.725  19.361  1.00  0.00     0.023 A
HETATM   35  C24 UNL     1      24.820  25.333  19.633  1.00  0.00    -0.028 A
HETATM   36  C25 UNL     1      25.788  24.902  18.583  1.00  0.00     0.051 C
HETATM   37  C26 UNL     1      25.237  25.328  20.946  1.00  0.00     0.074 A
HETATM   38  C28 UNL     1      24.348  25.723  21.927  1.00  0.00     0.044 A
HETATM   39  C29 UNL     1      23.035  26.129  21.631  1.00  0.00    -0.048 A
HETATM   40  C30 UNL     1      22.251  26.506  22.812  1.00  0.00     0.049 C
BRANCH  37  41
HETATM   41  O5  UNL     1      26.531  24.933  21.260  1.00  0.00    -0.355 OA
HETATM   42  C27 UNL     1      26.708  23.861  22.154  1.00  0.00     0.210 C
ENDBRANCH  37  41
ENDBRANCH  32  33
ENDBRANCH  11  32
BRANCH   7  43
HETATM   43  C17 UNL     1      19.964  27.779  14.800  1.00  0.00     0.145 C
HETATM   44  C18 UNL     1      21.360  27.618  14.188  1.00  0.00     0.028 C
ENDBRANCH   7  43
TORSDOF 13
ENDMDL