MODEL 1
REMARK VINA RESULT: -9.444987417      0.000      0.000
REMARK  13 active torsions:
REMARK  status: ('A' for Active; 'I' for Inactive)
REMARK    1  A    between atoms: C2_2  and  C3_3
REMARK    2  A    between atoms: C3_3  and  N1_4
REMARK    3  A    between atoms: N2_7  and  C6_8
REMARK    4  A    between atoms: C9_11  and  N3_12
REMARK    5  A    between atoms: C11_17  and  N5_18
REMARK    6  A    between atoms: N5_18  and  C12_20
REMARK    7  A    between atoms: C12_20  and  C13_21
REMARK    8  A    between atoms: C13_21  and  O1_22
REMARK    9  A    between atoms: C15_26  and  N7_27
REMARK   10  A    between atoms: N7_27  and  C16_29
REMARK   11  A    between atoms: C16_29  and  C17_30
REMARK   12  A    between atoms: C19_32  and  C20_33
REMARK   13  A    between atoms: C20_33  and  C21_34
ROOT
HETATM    1  N3  UNL     1      16.861  20.978  19.675  1.00  0.00    -0.191 N
ATOM      2  H3  UNL     1      16.601  20.316  20.406  1.00  0.00     0.184 HD
HETATM    3  C10 UNL     1      16.199  20.965  18.563  1.00  0.00     0.711 A
HETATM    4  N4  UNL     1      15.189  20.044  18.478  1.00  0.00    -0.021 N
ATOM      5  H4  UNL     1      14.993  19.422  19.263  1.00  0.00     0.203 HD
HETATM    6  C11 UNL     1      14.462  19.963  17.358  1.00  0.00     0.707 A
HETATM    7  N6  UNL     1      14.756  20.804  16.343  1.00  0.00    -0.022 N
ATOM      8  H6  UNL     1      14.205  20.748  15.486  1.00  0.00     0.203 HD
HETATM    9  C15 UNL     1      15.745  21.712  16.415  1.00  0.00     0.707 A
HETATM   10  N9  UNL     1      16.482  21.784  17.568  1.00  0.00    -0.021 N
ATOM     11  H9  UNL     1      17.240  22.461  17.654  1.00  0.00     0.203 HD
ENDROOT
BRANCH   1  12
HETATM   12  C9  UNL     1      17.928  21.869  19.917  1.00  0.00     0.049 A
HETATM   13  C8  UNL     1      19.220  21.372  20.010  1.00  0.00     0.032 A
HETATM   14  C7  UNL     1      20.302  22.198  20.259  1.00  0.00     0.031 A
HETATM   15  C6  UNL     1      20.156  23.549  20.426  1.00  0.00     0.030 A
HETATM   16  C27 UNL     1      18.881  24.048  20.335  1.00  0.00     0.031 A
HETATM   17  C26 UNL     1      17.771  23.228  20.084  1.00  0.00     0.032 A
BRANCH  15  18
HETATM   18  N2  UNL     1      21.237  24.411  20.703  1.00  0.00    -0.378 N
HETATM   19  C5  UNL     1      22.566  23.945  21.053  1.00  0.00     0.153 C
HETATM   20  C4  UNL     1      23.677  24.611  20.320  1.00  0.00     0.292 C
HETATM   21  N1  UNL     1      23.529  26.087  20.320  1.00  0.00     0.095 N
HETATM   22  C29 UNL     1      22.209  26.370  19.749  1.00  0.00     0.292 C
HETATM   23  C28 UNL     1      21.107  25.876  20.646  1.00  0.00     0.153 C
BRANCH  21  24
HETATM   24  C3  UNL     1      24.486  26.535  19.328  1.00  0.00     0.299 C
BRANCH  24  25
HETATM   25  C2  UNL     1      24.136  26.210  17.943  1.00  0.00    -0.007 C
HETATM   26  C1  UNL     1      24.968  26.297  16.932  1.00  0.00     0.008 C
ENDBRANCH  24  25
ENDBRANCH  21  24
ENDBRANCH  15  18
ENDBRANCH   1  12
BRANCH   6  27
HETATM   27  N5  UNL     1      13.527  19.108  17.280  1.00  0.00    -0.223 N
ATOM     28  H5  UNL     1      13.086  19.001  16.366  1.00  0.00     0.177 HD
BRANCH  27  29
HETATM   29  C12 UNL     1      13.019  18.276  18.331  1.00  0.00     0.164 C
BRANCH  29  30
HETATM   30  C13 UNL     1      11.634  18.714  18.715  1.00  0.00     0.187 C
BRANCH  30  31
HETATM   31  O1  UNL     1      11.371  18.703  20.055  1.00  0.00    -0.394 OA
HETATM   32  C14 UNL     1      12.478  18.421  20.822  1.00  0.00     0.201 C
ENDBRANCH  30  31
ENDBRANCH  29  30
ENDBRANCH  27  29
ENDBRANCH   6  27
BRANCH   9  33
HETATM   33  N7  UNL     1      16.062  22.529  15.471  1.00  0.00    -0.219 N
ATOM     34  H7  UNL     1      16.018  22.179  14.514  1.00  0.00     0.178 HD
BRANCH  33  35
HETATM   35  C16 UNL     1      16.468  23.878  15.657  1.00  0.00     0.205 C
BRANCH  35  36
HETATM   36  C17 UNL     1      17.957  24.033  15.603  1.00  0.00     0.096 A
HETATM   37  C18 UNL     1      18.637  25.195  15.333  1.00  0.00     0.063 A
HETATM   38  C19 UNL     1      19.990  24.938  15.371  1.00  0.00     0.035 A
HETATM   39  N8  UNL     1      20.051  23.600  15.671  1.00  0.00    -0.265 N
HETATM   40  O2  UNL     1      18.861  23.117  15.796  1.00  0.00    -0.240 OA
ATOM     41  H8  UNL     1      20.912  23.065  15.780  1.00  0.00     0.194 HD
BRANCH  38  42
HETATM   42  C20 UNL     1      21.147  25.825  15.150  1.00  0.00     0.064 C
BRANCH  42  43
HETATM   43  C21 UNL     1      20.776  27.272  15.213  1.00  0.00    -0.009 C
HETATM   44  C22 UNL     1      20.760  27.903  13.848  1.00  0.00     0.005 C
HETATM   45  C23 UNL     1      21.922  28.872  13.767  1.00  0.00     0.000 C
HETATM   46  C24 UNL     1      22.706  28.705  15.026  1.00  0.00     0.000 C
HETATM   47  C25 UNL     1      21.748  28.090  16.004  1.00  0.00     0.005 C
ENDBRANCH  42  43
ENDBRANCH  38  42
ENDBRANCH  35  36
ENDBRANCH  33  35
ENDBRANCH   9  33
TORSDOF 13
ENDMDL