MODEL 5
REMARK VINA RESULT: -6.999804416      2.293      6.675
REMARK  14 active torsions:
REMARK  status: ('A' for Active; 'I' for Inactive)
REMARK    1  A    between atoms: C2_2  and  C3_3
REMARK    2  A    between atoms: C3_3  and  N1_4
REMARK    3  A    between atoms: C4_5  and  O1_6
REMARK    4  A    between atoms: C7_10  and  O2_11
REMARK    5  A    between atoms: N2_17  and  C11_18
REMARK    6  A    between atoms: C11_18  and  C12_19
REMARK    7  A    between atoms: C12_19  and  C13_20
REMARK    8  A    between atoms: C13_20  and  O5_22
REMARK    9  A    between atoms: O5_22  and  C14_23
REMARK   10  A    between atoms: C18_28  and  C19_29
REMARK   11  A    between atoms: C19_29  and  C20_30
REMARK   12  A    between atoms: C22_32  and  O7_33
REMARK   13  A    between atoms: O7_33  and  C23_34
REMARK   14  A    between atoms: C25_36  and  N3_37
ROOT
HETATM    1  N1  UNL     1      18.925  25.672  15.250  1.00  0.00    -0.308 N
HETATM    2  C4  UNL     1      19.755  24.875  15.977  1.00  0.00     0.151 A
HETATM    3  C5  UNL     1      18.988  24.137  16.879  1.00  0.00     0.010 A
HETATM    4  C6  UNL     1      17.698  24.550  16.627  1.00  0.00     0.022 A
HETATM    5  C7  UNL     1      17.671  25.491  15.628  1.00  0.00     0.152 A
HETATM    6  C8  UNL     1      16.766  23.810  17.509  1.00  0.00     0.082 C
HETATM    7  C9  UNL     1      16.031  24.738  18.455  1.00  0.00     0.032 C
HETATM    8  C10 UNL     1      15.752  23.074  16.709  1.00  0.00     0.240 C
HETATM    9  O3  UNL     1      14.842  23.658  16.053  1.00  0.00    -0.272 OA
HETATM   10  N2  UNL     1      15.947  21.682  16.787  1.00  0.00    -0.287 N
HETATM   11  C16 UNL     1      17.192  21.501  17.453  1.00  0.00     0.233 C
HETATM   12  O6  UNL     1      17.910  20.471  17.464  1.00  0.00    -0.272 OA
HETATM   13  C17 UNL     1      17.555  22.749  18.171  1.00  0.00     0.109 C
HETATM   14  C18 UNL     1      19.009  23.128  17.958  1.00  0.00     0.044 C
ENDROOT
BRANCH  14  15
HETATM   15  C19 UNL     1      19.506  23.640  19.279  1.00  0.00     0.067 C
BRANCH  15  16
HETATM   16  C20 UNL     1      20.931  23.944  19.376  1.00  0.00     0.014 A
HETATM   17  C21 UNL     1      21.915  23.259  20.056  1.00  0.00     0.065 A
HETATM   18  C22 UNL     1      23.104  23.932  19.892  1.00  0.00     0.122 A
HETATM   19  C25 UNL     1      22.846  25.050  19.099  1.00  0.00     0.240 A
HETATM   20  N4  UNL     1      21.542  25.006  18.821  1.00  0.00    -0.337 N
ATOM     21  H4  UNL     1      21.062  25.702  18.251  1.00  0.00     0.167 HD
BRANCH  18  22
HETATM   22  O7  UNL     1      24.334  23.597  20.399  1.00  0.00    -0.348 OA
BRANCH  22  23
HETATM   23  C23 UNL     1      24.852  23.866  21.657  1.00  0.00     0.171 C
HETATM   24  C24 UNL     1      26.302  23.574  21.852  1.00  0.00     0.034 C
ENDBRANCH  22  23
ENDBRANCH  18  22
BRANCH  19  25
HETATM   25  N3  UNL     1      23.820  26.012  18.696  1.00  0.00    -0.031 N
HETATM   26  C26 UNL     1      24.993  25.358  18.131  1.00  0.00     0.280 C
HETATM   27  C27 UNL     1      24.263  26.805  19.840  1.00  0.00     0.280 C
HETATM   28  C28 UNL     1      23.305  26.904  17.670  1.00  0.00     0.280 C
ENDBRANCH  19  25
ENDBRANCH  15  16
ENDBRANCH  14  15
BRANCH   2  29
HETATM   29  O1  UNL     1      21.126  24.820  15.824  1.00  0.00    -0.345 OA
ATOM     30  H1  UNL     1      21.682  24.128  16.162  1.00  0.00     0.219 HD
ENDBRANCH   2  29
BRANCH   1  31
HETATM   31  C3  UNL     1      19.392  26.581  14.216  1.00  0.00     0.133 C
BRANCH  31  32
HETATM   32  C2  UNL     1      20.001  27.825  14.812  1.00  0.00     0.016 C
HETATM   33  C1  UNL     1      21.259  28.143  14.015  1.00  0.00     0.006 C
ENDBRANCH  31  32
ENDBRANCH   1  31
BRANCH   5  34
HETATM   34  O2  UNL     1      16.555  26.130  15.111  1.00  0.00    -0.345 OA
ATOM     35  H2  UNL     1      15.742  25.718  14.843  1.00  0.00     0.219 HD
ENDBRANCH   5  34
BRANCH  10  36
HETATM   36  C11 UNL     1      15.042  20.664  16.282  1.00  0.00     0.145 C
BRANCH  36  37
HETATM   37  C12 UNL     1      13.840  20.471  17.159  1.00  0.00     0.131 C
BRANCH  37  38
HETATM   38  C13 UNL     1      14.200  19.504  18.233  1.00  0.00     0.260 C
HETATM   39  O4  UNL     1      15.040  18.568  18.032  1.00  0.00    -0.265 OA
BRANCH  38  40
HETATM   40  O5  UNL     1      13.651  19.558  19.512  1.00  0.00    -0.322 OA
BRANCH  40  41
HETATM   41  C14 UNL     1      14.406  19.828  20.662  1.00  0.00     0.174 C
HETATM   42  C15 UNL     1      15.276  21.039  20.585  1.00  0.00     0.034 C
ENDBRANCH  40  41
ENDBRANCH  38  40
ENDBRANCH  37  38
ENDBRANCH  36  37
ENDBRANCH  10  36
TORSDOF 14
ENDMDL