MODEL 2
REMARK VINA RESULT: -9.372791614      0.705      1.136
REMARK  12 active torsions:
REMARK  status: ('A' for Active; 'I' for Inactive)
REMARK    1  A    between atoms: C2_2  and  C3_3
REMARK    2  A    between atoms: C3_3  and  C4_4
REMARK    3  A    between atoms: C4_4  and  C5_5
REMARK    4  A    between atoms: C7_7  and  N1_8
REMARK    5  A    between atoms: N1_8  and  C8_10
REMARK    6  A    between atoms: C10_12  and  O1_13
REMARK    7  A    between atoms: O1_13  and  C11_14
REMARK    8  A    between atoms: C11_14  and  C12_15
REMARK    9  A    between atoms: N4_24  and  C18_26
REMARK   10  A    between atoms: C18_26  and  C19_27
REMARK   11  A    between atoms: C19_27  and  C20_28
REMARK   12  A    between atoms: C20_28  and  N5_29
ROOT
HETATM    1  C8  UNL     1      18.313  22.749  17.290  1.00  0.00     0.126 A
HETATM    2  C9  UNL     1      18.895  23.498  18.245  1.00  0.00     0.105 A
HETATM    3  C10 UNL     1      18.676  23.236  19.626  1.00  0.00     0.161 A
HETATM    4  N3  UNL     1      17.850  22.176  19.896  1.00  0.00    -0.171 N
ATOM      5  H3  UNL     1      17.664  21.940  20.870  1.00  0.00     0.186 HD
HETATM    6  C17 UNL     1      17.282  21.440  18.946  1.00  0.00     0.681 A
HETATM    7  N4  UNL     1      16.448  20.453  19.179  1.00  0.00    -0.225 N
ATOM      8  H4  UNL     1      16.202  20.237  20.145  1.00  0.00     0.177 HD
HETATM    9  N7  UNL     1      17.510  21.725  17.606  1.00  0.00    -0.177 N
ATOM     10  H7  UNL     1      17.074  21.163  16.876  1.00  0.00     0.186 HD
ENDROOT
BRANCH   7  11
HETATM   11  C18 UNL     1      15.877  19.676  18.140  1.00  0.00     0.149 C
BRANCH  11  12
HETATM   12  C19 UNL     1      14.460  19.202  18.382  1.00  0.00     0.006 C
HETATM   13  C26 UNL     1      14.234  17.785  18.375  1.00  0.00     0.039 C
HETATM   14  C27 UNL     1      13.089  17.288  19.231  1.00  0.00     0.168 C
HETATM   15  O2  UNL     1      13.027  17.817  20.504  1.00  0.00    -0.391 OA
HETATM   16  C28 UNL     1      13.071  19.184  20.532  1.00  0.00     0.168 C
HETATM   17  C29 UNL     1      14.355  19.625  19.929  1.00  0.00     0.039 C
BRANCH  12  18
HETATM   18  C20 UNL     1      13.558  20.203  17.694  1.00  0.00     0.283 C
BRANCH  18  19
HETATM   19  N5  UNL     1      14.013  20.488  16.348  1.00  0.00     0.092 N
HETATM   20  C21 UNL     1      12.940  20.341  15.340  1.00  0.00     0.302 C
HETATM   21  C22 UNL     1      13.684  20.574  14.018  1.00  0.00     0.302 C
HETATM   22  N6  UNL     1      14.291  21.851  13.879  1.00  0.00     0.087 N
HETATM   23  C23 UNL     1      15.442  21.742  13.008  1.00  0.00     0.310 C
HETATM   24  C24 UNL     1      14.764  22.447  15.100  1.00  0.00     0.302 C
HETATM   25  C25 UNL     1      14.096  22.016  16.322  1.00  0.00     0.302 C
ENDBRANCH  18  19
ENDBRANCH  12  18
ENDBRANCH  11  12
ENDBRANCH   7  11
BRANCH   3  26
HETATM   26  O1  UNL     1      19.271  24.001  20.492  1.00  0.00    -0.333 OA
BRANCH  26  27
HETATM   27  C11 UNL     1      19.860  24.754  21.346  1.00  0.00     0.213 C
BRANCH  27  28
HETATM   28  C12 UNL     1      21.278  25.168  20.898  1.00  0.00     0.246 C
HETATM   29  C13 UNL     1      21.342  25.677  19.536  1.00  0.00     0.040 C
HETATM   30  C14 UNL     1      21.386  27.173  19.735  1.00  0.00     0.032 C
HETATM   31  C15 UNL     1      21.300  27.380  21.251  1.00  0.00     0.272 C
HETATM   32  N2  UNL     1      21.768  26.115  21.841  1.00  0.00     0.090 N
HETATM   33  C16 UNL     1      23.154  26.195  22.132  1.00  0.00     0.310 C
ENDBRANCH  27  28
ENDBRANCH  26  27
ENDBRANCH   3  26
BRANCH   1  34
HETATM   34  N1  UNL     1      18.403  22.992  15.866  1.00  0.00    -0.327 N
ATOM     35  H1  UNL     1      17.883  22.425  15.197  1.00  0.00     0.169 HD
BRANCH  34  36
HETATM   36  C7  UNL     1      19.188  23.979  15.464  1.00  0.00     0.123 A
HETATM   37  C6  UNL     1      18.756  25.220  15.110  1.00  0.00     0.076 A
HETATM   38  C5  UNL     1      19.860  25.961  14.698  1.00  0.00     0.029 A
HETATM   39  N9  UNL     1      20.906  25.158  14.815  1.00  0.00    -0.303 N
HETATM   40  N8  UNL     1      20.519  23.983  15.270  1.00  0.00    -0.285 N
ATOM     41  H9  UNL     1      21.868  25.411  14.586  1.00  0.00     0.186 HD
ATOM     42  H8  UNL     1      21.138  23.192  15.449  1.00  0.00     0.188 HD
BRANCH  38  43
HETATM   43  C4  UNL     1      19.788  27.369  14.298  1.00  0.00     0.058 C
BRANCH  43  44
HETATM   44  C3  UNL     1      20.948  28.087  14.991  1.00  0.00     0.006 C
BRANCH  44  45
HETATM   45  C2  UNL     1      21.850  28.722  13.938  1.00  0.00    -0.004 C
HETATM   46  C1  UNL     1      23.071  29.333  14.594  1.00  0.00     0.005 C
ENDBRANCH  44  45
ENDBRANCH  43  44
ENDBRANCH  38  43
ENDBRANCH  34  36
ENDBRANCH   1  34
TORSDOF 12
ENDMDL