MODEL 5
REMARK VINA RESULT: -8.696915950      2.095      3.210
REMARK  12 active torsions:
REMARK  status: ('A' for Active; 'I' for Inactive)
REMARK    1  A    between atoms: C1_2  and  C2_3
REMARK       I    between atoms: C1_2  and  N2_15
REMARK    2  A    between atoms: C2_3  and  C3_4
REMARK    3  A    between atoms: C3_4  and  C4_5
REMARK       I    between atoms: C4_5  and  N1_7
REMARK    4  A    between atoms: N1_7  and  C5_9
REMARK    5  A    between atoms: N2_15  and  C11_17
REMARK    6  A    between atoms: C12_22  and  C13_23
REMARK    7  A    between atoms: C13_23  and  C14_24
REMARK    8  A    between atoms: C14_24  and  S1_25
REMARK    9  A    between atoms: S1_25  and  C15_26
REMARK   10  A    between atoms: C15_26  and  C16_27
REMARK   11  A    between atoms: C16_27  and  C17_28
REMARK       I    between atoms: N7_34  and  C19_36
REMARK   12  A    between atoms: C19_36  and  C20_38
ROOT
HETATM    1  C11 UNL     1      18.020  23.543  15.780  1.00  0.00     0.167 A
HETATM    2  N3  UNL     1      17.278  24.443  16.427  1.00  0.00    -0.279 N
ATOM      3  H3  UNL     1      17.719  25.223  16.915  1.00  0.00     0.189 HD
HETATM    4  N4  UNL     1      16.016  24.315  16.427  1.00  0.00    -0.296 N
ATOM      5  H4  UNL     1      15.438  24.996  16.919  1.00  0.00     0.187 HD
HETATM    6  C12 UNL     1      15.444  23.305  15.792  1.00  0.00     0.070 A
HETATM    7  S3  UNL     1      16.808  22.490  15.160  1.00  0.00    -0.038 SA
ENDROOT
BRANCH   6   8
HETATM    8  C13 UNL     1      13.976  23.011  15.696  1.00  0.00     0.076 C
BRANCH   8   9
HETATM    9  C14 UNL     1      13.774  21.687  14.991  1.00  0.00     0.080 C
BRANCH   9  10
HETATM   10  S1  UNL     1      12.484  20.724  15.826  1.00  0.00    -0.168 SA
BRANCH  10  11
HETATM   11  C15 UNL     1      13.206  19.518  16.973  1.00  0.00     0.080 C
BRANCH  11  12
HETATM   12  C16 UNL     1      13.025  20.114  18.377  1.00  0.00     0.076 C
BRANCH  12  13
HETATM   13  C17 UNL     1      14.318  20.837  18.665  1.00  0.00     0.070 A
HETATM   14  N5  UNL     1      14.460  22.041  19.196  1.00  0.00    -0.296 N
HETATM   15  N6  UNL     1      15.619  22.526  19.378  1.00  0.00    -0.279 N
ATOM     16  H5  UNL     1      13.635  22.582  19.458  1.00  0.00     0.187 HD
HETATM   17  C18 UNL     1      16.684  21.799  19.026  1.00  0.00     0.167 A
ATOM     18  H6  UNL     1      15.736  23.453  19.786  1.00  0.00     0.189 HD
HETATM   19  N7  UNL     1      17.951  22.113  19.129  1.00  0.00    -0.306 N
HETATM   20  S2  UNL     1      15.946  20.382  18.417  1.00  0.00    -0.038 SA
HETATM   21  C19 UNL     1      18.375  23.350  19.663  1.00  0.00     0.227 C
ATOM     22  H7  UNL     1      18.653  21.444  18.814  1.00  0.00     0.171 HD
HETATM   23  O3  UNL     1      17.946  24.455  19.245  1.00  0.00    -0.273 OA
BRANCH  21  24
HETATM   24  C20 UNL     1      19.372  23.307  20.770  1.00  0.00     0.078 C
HETATM   25  C21 UNL     1      20.452  24.364  20.692  1.00  0.00     0.014 C
HETATM   26  C22 UNL     1      21.299  23.386  19.910  1.00  0.00     0.002 C
HETATM   27  C23 UNL     1      20.458  22.269  20.499  1.00  0.00     0.014 C
ENDBRANCH  21  24
ENDBRANCH  12  13
ENDBRANCH  11  12
ENDBRANCH  10  11
ENDBRANCH   9  10
ENDBRANCH   8   9
ENDBRANCH   6   8
BRANCH   1  28
HETATM   28  N2  UNL     1      19.321  23.478  15.648  1.00  0.00    -0.306 N
HETATM   29  C1  UNL     1      20.044  24.685  15.793  1.00  0.00     0.224 C
HETATM   30  O1  UNL     1      20.024  25.249  16.920  1.00  0.00    -0.273 OA
ATOM     31  H2  UNL     1      19.792  22.596  15.448  1.00  0.00     0.171 HD
BRANCH  29  32
HETATM   32  C2  UNL     1      20.812  25.304  14.694  1.00  0.00     0.112 C
BRANCH  32  33
HETATM   33  C3  UNL     1      20.437  26.708  14.376  1.00  0.00     0.112 C
BRANCH  33  34
HETATM   34  C4  UNL     1      21.295  27.698  15.060  1.00  0.00     0.218 C
HETATM   35  O2  UNL     1      20.861  28.798  15.466  1.00  0.00    -0.274 OA
HETATM   36  N1  UNL     1      22.666  27.397  15.269  1.00  0.00    -0.356 N
ATOM     37  H1  UNL     1      23.036  26.504  14.944  1.00  0.00     0.162 HD
BRANCH  36  38
HETATM   38  C5  UNL     1      23.556  28.338  15.937  1.00  0.00     0.084 C
HETATM   39  C6  UNL     1      24.643  27.528  16.576  1.00  0.00     0.025 C
HETATM   40  C7  UNL     1      25.630  28.342  17.356  1.00  0.00     0.002 C
HETATM   41  C8  UNL     1      25.952  29.590  16.575  1.00  0.00     0.000 C
HETATM   42  C9  UNL     1      25.620  29.342  15.123  1.00  0.00     0.002 C
HETATM   43  C10 UNL     1      24.122  29.309  14.948  1.00  0.00     0.025 C
ENDBRANCH  36  38
ENDBRANCH  33  34
ENDBRANCH  32  33
ENDBRANCH  29  32
ENDBRANCH   1  28
TORSDOF 12
ENDMDL