MODEL 3
REMARK VINA RESULT: -7.853741333      0.849      1.158
REMARK  13 active torsions:
REMARK  status: ('A' for Active; 'I' for Inactive)
REMARK    1  A    between atoms: C3_3  and  O1_4
REMARK    2  A    between atoms: C3_3  and  C4_6
REMARK    3  A    between atoms: C4_6  and  C5_7
REMARK    4  A    between atoms: C6_8  and  O2_9
REMARK    5  A    between atoms: O2_9  and  C7_10
REMARK    6  A    between atoms: C8_11  and  O3_12
REMARK    7  A    between atoms: C11_15  and  C12_16
REMARK    8  A    between atoms: C12_16  and  N1_17
REMARK    9  A    between atoms: C16_21  and  C17_22
REMARK   10  A    between atoms: C21_28  and  S1_29
REMARK   11  A    between atoms: S1_29  and  C22_30
REMARK   12  A    between atoms: C22_30  and  C23_31
REMARK   13  A    between atoms: C23_31  and  N3_32
ROOT
HETATM    1  C1  UNL     1      13.732  16.920  18.548  1.00  0.00     0.015 C
HETATM    2  C2  UNL     1      13.244  17.917  19.043  1.00  0.00    -0.085 C
HETATM    3  C3  UNL     1      12.633  19.134  19.663  1.00  0.00     0.200 C
ENDROOT
BRANCH   3   4
HETATM    4  O1  UNL     1      11.337  18.722  19.992  1.00  0.00    -0.383 OA
ATOM      5  H1  UNL     1      10.781  19.350  19.547  1.00  0.00     0.211 HD
ENDBRANCH   3   4
BRANCH   3   6
HETATM    6  C4  UNL     1      12.702  20.174  18.636  1.00  0.00     0.093 C
BRANCH   6   7
HETATM    7  C5  UNL     1      12.407  19.872  17.251  1.00  0.00     0.065 A
HETATM    8  C6  UNL     1      13.444  20.045  16.312  1.00  0.00     0.162 A
HETATM    9  N2  UNL     1      13.176  19.844  15.009  1.00  0.00    -0.316 N
HETATM   10  C21 UNL     1      11.975  19.482  14.524  1.00  0.00     0.149 A
ATOM     11  H2  UNL     1      13.937  19.975  14.342  1.00  0.00     0.170 HD
HETATM   12  N5  UNL     1      10.997  19.317  15.425  1.00  0.00    -0.303 N
HETATM   13  C27 UNL     1      11.191  19.501  16.745  1.00  0.00     0.258 A
ATOM     14  H5  UNL     1      10.071  19.041  15.099  1.00  0.00     0.171 HD
HETATM   15  O5  UNL     1      10.265  19.343  17.580  1.00  0.00    -0.267 OA
BRANCH   8  16
HETATM   16  O2  UNL     1      14.710  20.397  16.702  1.00  0.00    -0.290 OA
BRANCH  16  17
HETATM   17  C7  UNL     1      15.392  21.561  16.566  1.00  0.00     0.118 A
HETATM   18  C8  UNL     1      15.354  22.378  15.459  1.00  0.00     0.103 A
HETATM   19  C10 UNL     1      16.093  23.551  15.394  1.00  0.00     0.048 A
HETATM   20  C11 UNL     1      16.893  23.938  16.442  1.00  0.00    -0.027 A
HETATM   21  C15 UNL     1      16.915  23.104  17.542  1.00  0.00     0.019 A
HETATM   22  C16 UNL     1      16.203  21.936  17.650  1.00  0.00    -0.013 A
BRANCH  18  23
HETATM   23  O3  UNL     1      14.588  22.104  14.347  1.00  0.00    -0.353 OA
HETATM   24  C9  UNL     1      15.169  21.737  13.127  1.00  0.00     0.210 C
ENDBRANCH  18  23
BRANCH  20  25
HETATM   25  C12 UNL     1      17.685  25.207  16.367  1.00  0.00     0.310 C
BRANCH  25  26
HETATM   26  N1  UNL     1      18.696  25.051  15.328  1.00  0.00     0.084 N
HETATM   27  C13 UNL     1      18.885  26.311  14.609  1.00  0.00     0.309 C
HETATM   28  C14 UNL     1      19.985  24.755  15.970  1.00  0.00     0.309 C
ENDBRANCH  25  26
ENDBRANCH  20  25
BRANCH  22  29
HETATM   29  C17 UNL     1      16.342  21.147  18.855  1.00  0.00    -0.021 C
HETATM   30  C18 UNL     1      16.207  19.673  18.540  1.00  0.00     0.019 C
HETATM   31  C19 UNL     1      17.738  21.314  19.420  1.00  0.00     0.019 C
HETATM   32  C20 UNL     1      15.351  21.442  19.944  1.00  0.00     0.019 C
ENDBRANCH  22  29
ENDBRANCH  16  17
ENDBRANCH   8  16
BRANCH  10  33
HETATM   33  S1  UNL     1      11.662  19.231  12.793  1.00  0.00    -0.092 SA
BRANCH  33  34
HETATM   34  C22 UNL     1      10.669  17.713  12.504  1.00  0.00     0.102 C
BRANCH  34  35
HETATM   35  C23 UNL     1      11.482  16.534  12.952  1.00  0.00     0.138 C
BRANCH  35  36
HETATM   36  N3  UNL     1      10.764  15.574  13.732  1.00  0.00    -0.332 N
HETATM   37  C24 UNL     1       9.825  14.623  13.149  1.00  0.00     0.147 C
HETATM   38  C25 UNL     1       9.891  13.415  14.057  1.00  0.00     0.144 C
HETATM   39  N4  UNL     1      10.186  14.008  15.358  1.00  0.00    -0.341 N
HETATM   40  C26 UNL     1      10.748  15.291  15.114  1.00  0.00     0.318 C
ATOM     41  H4  UNL     1      10.020  13.584  16.271  1.00  0.00     0.164 HD
HETATM   42  O4  UNL     1      11.178  16.078  15.995  1.00  0.00    -0.247 OA
ENDBRANCH  35  36
ENDBRANCH  34  35
ENDBRANCH  33  34
ENDBRANCH  10  33
ENDBRANCH   6   7
ENDBRANCH   3   6
TORSDOF 13
ENDMDL