MODEL 4
REMARK VINA RESULT: -8.530381831      0.068      1.340
REMARK  13 active torsions:
REMARK  status: ('A' for Active; 'I' for Inactive)
REMARK    1  A    between atoms: C6_6  and  N1_7
REMARK    2  A    between atoms: N1_7  and  C7_9
REMARK    3  A    between atoms: C13_21  and  C14_22
REMARK       I    between atoms: C14_22  and  N5_24
REMARK    4  A    between atoms: N5_24  and  C15_26
REMARK    5  A    between atoms: C15_26  and  C16_27
REMARK    6  A    between atoms: C16_27  and  N6_28
REMARK    7  A    between atoms: N7_31  and  C19_32
REMARK    8  A    between atoms: C19_32  and  C20_33
REMARK    9  A    between atoms: C20_33  and  C21_34
REMARK   10  A    between atoms: C21_34  and  C22_35
REMARK   11  A    between atoms: C22_35  and  C23_36
REMARK   12  A    between atoms: C23_36  and  C24_37
REMARK   13  A    between atoms: C24_37  and  O3_38
ROOT
HETATM    1  C7  UNL     1      14.105  21.276  17.785  1.00  0.00     0.120 A
HETATM    2  N2  UNL     1      13.863  20.755  18.994  1.00  0.00    -0.338 N
ATOM      3  H2  UNL     1      14.400  21.074  19.801  1.00  0.00     0.168 HD
HETATM    4  C8  UNL     1      12.922  19.819  19.150  1.00  0.00     0.182 A
HETATM    5  N3  UNL     1      12.192  19.370  18.122  1.00  0.00    -0.347 N
ATOM      6  H3  UNL     1      11.481  18.655  18.273  1.00  0.00     0.167 HD
HETATM    7  C9  UNL     1      12.395  19.857  16.904  1.00  0.00     0.117 A
HETATM    8  C10 UNL     1      11.664  19.378  15.814  1.00  0.00     0.275 A
HETATM    9  O1  UNL     1      10.787  18.490  16.022  1.00  0.00    -0.265 OA
HETATM   10  N4  UNL     1      11.892  19.854  14.587  1.00  0.00    -0.326 N
HETATM   11  C11 UNL     1      11.138  19.369  13.430  1.00  0.00     0.159 C
HETATM   12  C12 UNL     1      12.814  20.795  14.355  1.00  0.00     0.112 A
HETATM   13  C13 UNL     1      13.573  21.304  15.427  1.00  0.00     0.064 A
HETATM   14  C27 UNL     1      13.379  20.846  16.704  1.00  0.00     0.057 A
ENDROOT
BRANCH  13  15
HETATM   15  C14 UNL     1      14.491  22.415  15.120  1.00  0.00     0.258 C
HETATM   16  O2  UNL     1      13.974  23.538  15.153  1.00  0.00    -0.267 OA
HETATM   17  N5  UNL     1      15.848  22.203  14.831  1.00  0.00    -0.332 N
ATOM     18  H5  UNL     1      16.137  21.225  14.823  1.00  0.00     0.168 HD
BRANCH  17  19
HETATM   19  C15 UNL     1      16.874  23.126  14.551  1.00  0.00     0.108 C
BRANCH  19  20
HETATM   20  C16 UNL     1      18.056  23.199  15.434  1.00  0.00     0.102 C
BRANCH  20  21
HETATM   21  N6  UNL     1      18.564  24.441  15.862  1.00  0.00    -0.385 N
HETATM   22  C17 UNL     1      17.990  25.611  15.286  1.00  0.00     0.152 C
HETATM   23  C18 UNL     1      18.850  26.362  14.329  1.00  0.00     0.292 C
HETATM   24  N7  UNL     1      20.229  26.479  14.737  1.00  0.00     0.091 N
HETATM   25  C25 UNL     1      20.731  25.140  14.923  1.00  0.00     0.292 C
HETATM   26  C26 UNL     1      19.971  24.413  16.029  1.00  0.00     0.152 C
BRANCH  24  27
HETATM   27  C19 UNL     1      20.349  27.242  15.956  1.00  0.00     0.272 C
BRANCH  27  28
HETATM   28  C20 UNL     1      21.775  27.693  16.179  1.00  0.00     0.030 C
BRANCH  28  29
HETATM   29  C21 UNL     1      22.288  27.251  17.555  1.00  0.00     0.002 C
BRANCH  29  30
HETATM   30  C22 UNL     1      21.098  27.287  18.475  1.00  0.00     0.002 C
BRANCH  30  31
HETATM   31  C23 UNL     1      21.319  26.322  19.604  1.00  0.00     0.026 C
BRANCH  31  32
HETATM   32  C24 UNL     1      21.479  27.054  20.915  1.00  0.00     0.164 C
BRANCH  32  33
HETATM   33  O3  UNL     1      20.763  28.248  20.885  1.00  0.00    -0.401 OA
ATOM     34  H3  UNL     1      21.357  28.985  20.966  1.00  0.00     0.209 HD
ENDBRANCH  32  33
ENDBRANCH  31  32
ENDBRANCH  30  31
ENDBRANCH  29  30
ENDBRANCH  28  29
ENDBRANCH  27  28
ENDBRANCH  24  27
ENDBRANCH  20  21
ENDBRANCH  19  20
ENDBRANCH  17  19
ENDBRANCH  13  15
BRANCH   1  35
HETATM   35  N1  UNL     1      15.030  22.137  17.599  1.00  0.00    -0.341 N
ATOM     36  H1  UNL     1      14.870  22.822  16.860  1.00  0.00     0.167 HD
BRANCH  35  37
HETATM   37  C6  UNL     1      16.237  22.244  18.296  1.00  0.00     0.045 A
HETATM   38  C4  UNL     1      16.681  23.440  18.798  1.00  0.00    -0.034 A
HETATM   39  C3  UNL     1      17.897  23.472  19.486  1.00  0.00     0.015 A
HETATM   40  C5  UNL     1      15.873  24.641  18.595  1.00  0.00     0.050 C
HETATM   41  C2  UNL     1      18.667  22.338  19.680  1.00  0.00    -0.061 A
HETATM   42  C1  UNL     1      19.933  22.492  20.425  1.00  0.00     0.048 C
HETATM   43  C30 UNL     1      18.207  21.140  19.171  1.00  0.00     0.015 A
HETATM   44  C28 UNL     1      17.003  21.094  18.485  1.00  0.00    -0.034 A
HETATM   45  C29 UNL     1      16.551  19.782  17.955  1.00  0.00     0.050 C
ENDBRANCH  35  37
ENDBRANCH   1  35
TORSDOF 13
ENDMDL