MODEL 4
REMARK VINA RESULT: -8.719317129      2.230      5.215
REMARK  12 active torsions:
REMARK  status: ('A' for Active; 'I' for Inactive)
REMARK    1  A    between atoms: C2_2  and  C3_3
REMARK    2  A    between atoms: C3_3  and  O1_4
REMARK    3  A    between atoms: O1_4  and  C4_5
REMARK    4  A    between atoms: C6_7  and  N1_8
REMARK       I    between atoms: N1_8  and  C7_10
REMARK    5  A    between atoms: C11_17  and  N3_18
REMARK    6  A    between atoms: N4_21  and  C14_22
REMARK    7  A    between atoms: C14_22  and  C15_23
REMARK    8  A    between atoms: C15_23  and  C16_24
REMARK    9  A    between atoms: C16_24  and  N5_25
REMARK       I    between atoms: N5_25  and  C17_27
REMARK   10  A    between atoms: C17_27  and  C18_29
REMARK   11  A    between atoms: C18_29  and  N6_30
REMARK   12  A    between atoms: C20_33  and  N7_35
ROOT
HETATM    1  N3  UNL     1      18.219  24.624  15.847  1.00  0.00    -0.355 N
HETATM    2  C12 UNL     1      19.408  24.564  16.630  1.00  0.00     0.169 C
HETATM    3  C13 UNL     1      20.595  24.806  15.718  1.00  0.00     0.083 C
HETATM    4  N4  UNL     1      20.492  25.913  14.869  1.00  0.00    -0.371 N
HETATM    5  C25 UNL     1      19.227  26.599  14.827  1.00  0.00     0.147 C
HETATM    6  C26 UNL     1      18.080  25.637  14.855  1.00  0.00     0.145 C
ENDROOT
BRANCH   4   7
HETATM    7  C14 UNL     1      21.616  26.713  14.691  1.00  0.00     0.065 C
BRANCH   7   8
HETATM    8  C15 UNL     1      22.813  26.600  15.536  1.00  0.00     0.064 C
BRANCH   8   9
HETATM    9  C16 UNL     1      23.141  27.718  16.467  1.00  0.00     0.128 C
BRANCH   9  10
HETATM   10  N5  UNL     1      22.974  27.373  17.846  1.00  0.00    -0.359 N
HETATM   11  C17 UNL     1      21.714  27.388  18.477  1.00  0.00     0.235 C
HETATM   12  O3  UNL     1      20.666  27.713  17.872  1.00  0.00    -0.272 OA
ATOM     13  H5  UNL     1      23.795  27.107  18.391  1.00  0.00     0.162 HD
BRANCH  11  14
HETATM   14  C18 UNL     1      21.565  27.013  19.920  1.00  0.00     0.229 C
BRANCH  14  15
HETATM   15  N6  UNL     1      22.201  25.735  20.179  1.00  0.00    -0.337 N
HETATM   16  C19 UNL     1      23.575  25.648  20.560  1.00  0.00     0.256 C
HETATM   17  O4  UNL     1      24.391  26.621  20.691  1.00  0.00    -0.271 OA
HETATM   18  C20 UNL     1      23.898  24.230  20.777  1.00  0.00     0.201 C
HETATM   19  C21 UNL     1      24.457  23.638  19.507  1.00  0.00     0.056 C
HETATM   20  C22 UNL     1      22.551  23.603  21.021  1.00  0.00     0.073 C
HETATM   21  C23 UNL     1      21.646  24.417  20.115  1.00  0.00     0.086 C
HETATM   22  C24 UNL     1      20.235  24.321  20.624  1.00  0.00     0.032 C
BRANCH  18  23
HETATM   23  N7  UNL     1      24.800  24.036  21.898  1.00  0.00    -0.062 N
ATOM     24  H73 UNL     1      25.760  23.904  21.579  1.00  0.00     0.275 HD
ATOM     25  H72 UNL     1      24.921  24.900  22.426  1.00  0.00     0.275 HD
ATOM     26  H71 UNL     1      24.504  23.272  22.505  1.00  0.00     0.275 HD
ENDBRANCH  18  23
ENDBRANCH  14  15
ENDBRANCH  11  14
ENDBRANCH   9  10
ENDBRANCH   8   9
ENDBRANCH   7   8
ENDBRANCH   4   7
BRANCH   1  27
HETATM   27  C11 UNL     1      17.155  23.680  16.033  1.00  0.00     0.148 A
HETATM   28  N2  UNL     1      16.494  22.983  15.138  1.00  0.00    -0.335 N
HETATM   29  C10 UNL     1      15.552  22.163  15.504  1.00  0.00     0.056 A
ATOM     30  H2  UNL     1      16.720  23.085  14.149  1.00  0.00     0.168 HD
HETATM   31  C9  UNL     1      14.773  21.365  14.654  1.00  0.00     0.060 A
HETATM   32  C27 UNL     1      15.288  22.060  16.840  1.00  0.00     0.068 A
HETATM   33  C6  UNL     1      13.809  20.535  15.136  1.00  0.00     0.039 A
HETATM   34  C5  UNL     1      13.547  20.436  16.484  1.00  0.00     0.067 A
HETATM   35  C4  UNL     1      14.302  21.214  17.342  1.00  0.00     0.090 A
HETATM   36  S1  UNL     1      16.415  23.158  17.501  1.00  0.00    -0.049 SA
BRANCH  33  37
HETATM   37  N1  UNL     1      13.058  19.779  14.172  1.00  0.00    -0.327 N
HETATM   38  C7  UNL     1      11.752  20.019  13.754  1.00  0.00     0.218 C
HETATM   39  C8  UNL     1      11.170  19.073  12.725  1.00  0.00     0.117 C
HETATM   40  O2  UNL     1      11.004  20.954  14.154  1.00  0.00    -0.274 OA
ATOM     41  H1  UNL     1      13.533  18.980  13.749  1.00  0.00     0.169 HD
ENDBRANCH  33  37
BRANCH  35  42
HETATM   42  O1  UNL     1      14.153  21.219  18.711  1.00  0.00    -0.350 OA
BRANCH  42  43
HETATM   43  C3  UNL     1      14.869  20.469  19.640  1.00  0.00     0.175 C
BRANCH  43  44
HETATM   44  C2  UNL     1      13.949  19.396  20.204  1.00  0.00     0.022 C
HETATM   45  C1  UNL     1      13.970  18.127  19.417  1.00  0.00     0.007 C
ENDBRANCH  43  44
ENDBRANCH  42  43
ENDBRANCH  35  42
ENDBRANCH   1  27
TORSDOF 12
ENDMDL