MODEL 5
REMARK VINA RESULT: -8.659314430      2.447     10.944
REMARK  15 active torsions:
REMARK  status: ('A' for Active; 'I' for Inactive)
REMARK    1  A    between atoms: C2_2  and  C3_3
REMARK    2  A    between atoms: C3_3  and  C4_4
REMARK    3  A    between atoms: C4_4  and  C5_5
REMARK    4  A    between atoms: C5_5  and  N1_6
REMARK    5  A    between atoms: C5_5  and  C28_43
REMARK    6  A    between atoms: N1_6  and  C6_7
REMARK    7  A    between atoms: N4_15  and  C10_16
REMARK    8  A    between atoms: C10_16  and  C11_17
REMARK       I    between atoms: C11_17  and  N5_19
REMARK    9  A    between atoms: C16_24  and  N6_25
REMARK   10  A    between atoms: C18_29  and  C19_30
REMARK   11  A    between atoms: C19_30  and  C20_31
REMARK   12  A    between atoms: C20_31  and  C21_32
REMARK   13  A    between atoms: C21_32  and  N7_33
REMARK   14  A    between atoms: N7_33  and  C22_35
REMARK   15  A    between atoms: C28_43  and  O3_45
ROOT
HETATM    1  C6  UNL     1      14.134  20.386  17.031  1.00  0.00     0.187 A
HETATM    2  N2  UNL     1      15.136  20.492  17.978  1.00  0.00    -0.328 N
ATOM      3  H2  UNL     1      15.116  20.064  18.904  1.00  0.00     0.168 HD
HETATM    4  C7  UNL     1      16.125  21.229  17.502  1.00  0.00     0.073 A
HETATM    5  C8  UNL     1      17.326  21.573  18.135  1.00  0.00     0.050 A
HETATM    6  C9  UNL     1      17.588  21.096  19.508  1.00  0.00     0.072 C
HETATM    7  N3  UNL     1      18.157  22.325  17.423  1.00  0.00    -0.299 N
ATOM      8  H3  UNL     1      19.041  22.594  17.855  1.00  0.00     0.187 HD
HETATM    9  N4  UNL     1      17.923  22.742  16.217  1.00  0.00    -0.267 N
HETATM   10  C16 UNL     1      16.764  22.426  15.571  1.00  0.00     0.129 A
HETATM   11  C17 UNL     1      15.831  21.649  16.223  1.00  0.00     0.049 A
HETATM   12  C18 UNL     1      14.575  21.120  15.919  1.00  0.00     0.017 A
ENDROOT
BRANCH  12  13
HETATM   13  C19 UNL     1      13.939  21.370  14.635  1.00  0.00     0.046 C
BRANCH  13  14
HETATM   14  C20 UNL     1      14.115  20.369  13.553  1.00  0.00     0.024 C
BRANCH  14  15
HETATM   15  C21 UNL     1      12.708  19.756  13.306  1.00  0.00     0.121 C
BRANCH  15  16
HETATM   16  N7  UNL     1      12.777  18.358  13.045  1.00  0.00    -0.376 N
ATOM     17  H7  UNL     1      13.603  17.826  13.320  1.00  0.00     0.161 HD
BRANCH  16  18
HETATM   18  C22 UNL     1      11.794  17.769  12.461  1.00  0.00     0.106 A
HETATM   19  N8  UNL     1      10.525  18.218  12.492  1.00  0.00    -0.352 N
HETATM   20  C23 UNL     1       9.496  17.594  11.864  1.00  0.00     0.089 A
ATOM     21  H8  UNL     1      10.328  19.071  13.014  1.00  0.00     0.166 HD
HETATM   22  C24 UNL     1       9.690  16.441  11.144  1.00  0.00     0.018 A
HETATM   23  C25 UNL     1      10.971  15.945  11.085  1.00  0.00     0.012 A
HETATM   24  C26 UNL     1      12.009  16.594  11.732  1.00  0.00    -0.018 A
HETATM   25  C27 UNL     1      13.374  16.071  11.672  1.00  0.00     0.052 C
ENDBRANCH  16  18
ENDBRANCH  15  16
ENDBRANCH  14  15
ENDBRANCH  13  14
ENDBRANCH  12  13
BRANCH   1  26
HETATM   26  N1  UNL     1      12.993  19.722  17.128  1.00  0.00    -0.385 NA
BRANCH  26  27
HETATM   27  C5  UNL     1      11.918  19.269  17.418  1.00  0.00     0.162 C
BRANCH  27  28
HETATM   28  C4  UNL     1      11.585  18.680  18.781  1.00  0.00     0.079 C
BRANCH  28  29
HETATM   29  C3  UNL     1      12.608  17.725  19.273  1.00  0.00     0.007 C
BRANCH  29  30
HETATM   30  C2  UNL     1      12.869  17.985  20.750  1.00  0.00    -0.004 C
HETATM   31  C1  UNL     1      13.863  19.102  20.959  1.00  0.00     0.005 C
ENDBRANCH  29  30
ENDBRANCH  28  29
ENDBRANCH  27  28
BRANCH  27  32
HETATM   32  C28 UNL     1      10.814  19.266  16.468  1.00  0.00     0.319 C
HETATM   33  O2  UNL     1      10.010  20.228  16.481  1.00  0.00    -0.257 OA
BRANCH  32  34
HETATM   34  O3  UNL     1      10.578  18.275  15.544  1.00  0.00    -0.321 OA
HETATM   35  C29 UNL     1      10.562  16.897  15.931  1.00  0.00     0.213 C
ENDBRANCH  32  34
ENDBRANCH  27  32
ENDBRANCH  26  27
ENDBRANCH   1  26
BRANCH  10  36
HETATM   36  N6  UNL     1      16.596  22.851  14.418  1.00  0.00    -0.384 N
ATOM     37  H62 UNL     1      17.203  22.593  13.641  1.00  0.00     0.157 HD
ATOM     38  H61 UNL     1      15.817  23.486  14.243  1.00  0.00     0.157 HD
ENDBRANCH  10  36
BRANCH   9  39
HETATM   39  C10 UNL     1      18.877  23.550  15.506  1.00  0.00     0.253 C
BRANCH  39  40
HETATM   40  C11 UNL     1      19.043  24.832  16.231  1.00  0.00     0.239 C
HETATM   41  O1  UNL     1      18.220  25.108  17.138  1.00  0.00    -0.271 OA
HETATM   42  N5  UNL     1      20.086  25.741  15.932  1.00  0.00    -0.351 N
HETATM   43  C12 UNL     1      21.108  25.546  14.911  1.00  0.00     0.126 C
HETATM   44  C15 UNL     1      20.348  27.020  16.550  1.00  0.00     0.126 C
HETATM   45  C13 UNL     1      21.537  26.953  14.513  1.00  0.00     0.021 C
HETATM   46  C14 UNL     1      20.643  27.869  15.317  1.00  0.00     0.021 C
ENDBRANCH  39  40
ENDBRANCH   9  39
TORSDOF 15
ENDMDL