MODEL 4
REMARK VINA RESULT: -9.509690995      1.274      2.036
REMARK  12 active torsions:
REMARK  status: ('A' for Active; 'I' for Inactive)
REMARK    1  A    between atoms: C2_3  and  C3_4
REMARK    2  A    between atoms: C3_4  and  N2_5
REMARK       I    between atoms: N2_5  and  C4_7
REMARK    3  A    between atoms: C4_7  and  C5_9
REMARK    4  A    between atoms: C5_9  and  C6_10
REMARK    5  A    between atoms: C5_9  and  O5_34
REMARK    6  A    between atoms: C6_10  and  C7_11
REMARK    7  A    between atoms: C7_11  and  C8_12
REMARK    8  A    between atoms: C8_12  and  O3_14
REMARK    9  A    between atoms: O3_14  and  C9_15
REMARK       I    between atoms: N5_24  and  C15_25
REMARK   10  A    between atoms: C15_25  and  C16_27
REMARK   11  A    between atoms: O5_34  and  C20_35
REMARK   12  A    between atoms: C20_35  and  C21_36
ROOT
HETATM    1  N1  UNL     1      15.203  67.378  20.060  1.00  0.00    -0.197 NA
HETATM    2  C1  UNL     1      15.046  66.308  19.648  1.00  0.00     0.060 C
HETATM    3  C2  UNL     1      14.852  64.965  19.116  1.00  0.00     0.143 C
ENDROOT
BRANCH   3   4
HETATM    4  C3  UNL     1      13.401  64.565  19.252  1.00  0.00     0.137 C
BRANCH   4   5
HETATM    5  N2  UNL     1      13.009  63.869  18.047  1.00  0.00    -0.358 N
HETATM    6  C4  UNL     1      12.129  64.485  17.076  1.00  0.00     0.246 C
HETATM    7  O1  UNL     1      11.749  65.646  17.356  1.00  0.00    -0.271 OA
ATOM      8  H2  UNL     1      13.359  62.926  17.878  1.00  0.00     0.162 HD
BRANCH   6   9
HETATM    9  C5  UNL     1      11.719  63.786  15.847  1.00  0.00     0.213 C
BRANCH   9  10
HETATM   10  C6  UNL     1      12.871  63.195  15.058  1.00  0.00     0.051 C
BRANCH  10  11
HETATM   11  C7  UNL     1      13.870  64.222  14.673  1.00  0.00     0.114 C
BRANCH  11  12
HETATM   12  C8  UNL     1      15.241  63.881  15.216  1.00  0.00     0.259 C
HETATM   13  O2  UNL     1      15.362  62.998  16.089  1.00  0.00    -0.265 OA
BRANCH  12  14
HETATM   14  O3  UNL     1      16.374  64.523  14.769  1.00  0.00    -0.316 OA
BRANCH  14  15
HETATM   15  C9  UNL     1      16.529  65.950  14.893  1.00  0.00     0.138 C
HETATM   16  C10 UNL     1      16.518  66.345  16.320  1.00  0.00     0.079 C
HETATM   17  C11 UNL     1      17.820  66.833  16.882  1.00  0.00     0.191 C
HETATM   18  N3  UNL     1      18.682  65.638  16.965  1.00  0.00    -0.359 N
HETATM   19  N5  UNL     1      18.561  67.620  15.928  1.00  0.00    -0.318 N
HETATM   20  C12 UNL     1      19.330  65.505  15.842  1.00  0.00     0.114 C
ATOM     21  H3  UNL     1      18.758  65.017  17.770  1.00  0.00     0.162 HD
HETATM   22  N4  UNL     1      20.257  64.470  15.540  1.00  0.00    -0.086 NA
HETATM   23  C13 UNL     1      18.941  66.633  14.921  1.00  0.00     0.156 C
HETATM   24  C14 UNL     1      17.739  66.311  14.110  1.00  0.00     0.065 C
HETATM   25  C15 UNL     1      18.897  68.979  15.897  1.00  0.00     0.253 C
HETATM   26  O4  UNL     1      19.583  69.385  14.890  1.00  0.00    -0.271 OA
BRANCH  25  27
HETATM   27  C16 UNL     1      18.547  69.991  16.899  1.00  0.00     0.277 C
HETATM   28  C17 UNL     1      18.709  71.399  16.354  1.00  0.00     0.044 C
HETATM   29  C18 UNL     1      20.117  71.794  16.748  1.00  0.00     0.030 C
HETATM   30  C19 UNL     1      20.596  70.742  17.715  1.00  0.00     0.233 C
HETATM   31  N6  UNL     1      19.474  69.907  18.014  1.00  0.00    -0.062 N
ATOM     32  H62 UNL     1      19.039  70.134  18.908  1.00  0.00     0.278 HD
ATOM     33  H61 UNL     1      19.742  68.948  18.234  1.00  0.00     0.278 HD
ENDBRANCH  25  27
ENDBRANCH  14  15
ENDBRANCH  12  14
ENDBRANCH  11  12
ENDBRANCH  10  11
ENDBRANCH   9  10
BRANCH   9  34
HETATM   34  O5  UNL     1      10.788  62.744  16.134  1.00  0.00    -0.376 OA
BRANCH  34  35
HETATM   35  C20 UNL     1      11.461  61.566  15.965  1.00  0.00     0.173 C
BRANCH  35  36
HETATM   36  C21 UNL     1      10.679  60.307  15.984  1.00  0.00     0.009 C
HETATM   37  C22 UNL     1       9.706  60.328  17.128  1.00  0.00     0.007 C
HETATM   38  C23 UNL     1       8.778  59.165  17.197  1.00  0.00     0.000 C
HETATM   39  C24 UNL     1       7.405  59.611  16.738  1.00  0.00     0.000 C
HETATM   40  C25 UNL     1       7.249  59.513  15.239  1.00  0.00     0.000 C
HETATM   41  C26 UNL     1       7.830  60.730  14.607  1.00  0.00     0.000 C
HETATM   42  C27 UNL     1       9.153  60.524  13.958  1.00  0.00     0.000 C
HETATM   43  C28 UNL     1      10.186  59.781  14.695  1.00  0.00     0.007 C
ENDBRANCH  35  36
ENDBRANCH  34  35
ENDBRANCH   9  34
ENDBRANCH   6   9
ENDBRANCH   4   5
ENDBRANCH   3   4
TORSDOF 12
ENDMDL