MODEL 1
REMARK VINA RESULT: -7.880740755      0.000      0.000
REMARK  13 active torsions:
REMARK  status: ('A' for Active; 'I' for Inactive)
REMARK    1  A    between atoms: C2_2  and  C3_3
REMARK    2  A    between atoms: C4_4  and  C5_5
REMARK    3  A    between atoms: C5_5  and  C6_6
REMARK    4  A    between atoms: C5_5  and  C19_22
REMARK    5  A    between atoms: C6_6  and  C7_7
REMARK    6  A    between atoms: C7_7  and  N1_8
REMARK    7  A    between atoms: C11_12  and  N2_13
REMARK    8  A    between atoms: N2_13  and  C13_15
REMARK    9  A    between atoms: C13_15  and  C14_16
REMARK   10  A    between atoms: C14_16  and  C15_17
REMARK   11  A    between atoms: C15_17  and  N3_18
REMARK   12  A    between atoms: C21_24  and  O1_25
REMARK   13  A    between atoms: N4_30  and  O2_31
ROOT
HETATM    1  C5  UNL     1      17.052  65.974  13.268  1.00  0.00     0.054 C
ENDROOT
BRANCH   1   2
HETATM    2  C4  UNL     1      17.894  65.867  14.458  1.00  0.00    -0.036 A
HETATM    3  C3  UNL     1      18.909  64.969  14.574  1.00  0.00     0.017 A
HETATM    4  C30 UNL     1      19.662  64.964  15.763  1.00  0.00     0.252 A
HETATM    5  N5  UNL     1      19.444  65.782  16.780  1.00  0.00    -0.327 N
HETATM    6  O5  UNL     1      20.613  64.134  15.890  1.00  0.00    -0.268 OA
HETATM    7  C28 UNL     1      18.454  66.677  16.698  1.00  0.00     0.009 A
ATOM      8  H5  UNL     1      20.025  65.731  17.617  1.00  0.00     0.169 HD
HETATM    9  C27 UNL     1      17.689  66.717  15.550  1.00  0.00     0.033 A
HETATM   10  C29 UNL     1      18.196  67.602  17.832  1.00  0.00     0.068 C
BRANCH   3  11
HETATM   11  C2  UNL     1      19.231  64.003  13.528  1.00  0.00     0.040 C
HETATM   12  C1  UNL     1      20.538  64.357  12.806  1.00  0.00     0.010 C
ENDBRANCH   3  11
ENDBRANCH   1   2
BRANCH   1  13
HETATM   13  C6  UNL     1      15.588  66.287  13.592  1.00  0.00     0.044 C
BRANCH  13  14
HETATM   14  C7  UNL     1      14.772  65.092  13.153  1.00  0.00     0.273 C
BRANCH  14  15
HETATM   15  N1  UNL     1      14.289  64.312  14.276  1.00  0.00     0.090 N
HETATM   16  C8  UNL     1      13.180  63.521  13.942  1.00  0.00     0.272 C
HETATM   17  C9  UNL     1      12.320  63.051  15.065  1.00  0.00     0.032 C
HETATM   18  C10 UNL     1      12.269  63.966  16.245  1.00  0.00     0.028 C
HETATM   19  C11 UNL     1      13.566  64.592  16.639  1.00  0.00     0.107 C
HETATM   20  C18 UNL     1      14.250  65.102  15.432  1.00  0.00     0.297 C
BRANCH  19  21
HETATM   21  N2  UNL     1      14.359  63.838  17.545  1.00  0.00    -0.411 N
HETATM   22  C12 UNL     1      13.842  62.668  18.114  1.00  0.00     0.143 C
BRANCH  21  23
HETATM   23  C13 UNL     1      15.168  64.612  18.417  1.00  0.00     0.118 C
BRANCH  23  24
HETATM   24  C14 UNL     1      14.459  65.798  19.002  1.00  0.00     0.049 C
BRANCH  24  25
HETATM   25  C15 UNL     1      15.421  66.476  19.953  1.00  0.00     0.273 C
BRANCH  25  26
HETATM   26  N3  UNL     1      15.201  67.901  20.027  1.00  0.00     0.080 N
HETATM   27  C16 UNL     1      16.340  68.586  20.580  1.00  0.00     0.309 C
HETATM   28  C17 UNL     1      14.839  68.510  18.787  1.00  0.00     0.309 C
ENDBRANCH  25  26
ENDBRANCH  24  25
ENDBRANCH  23  24
ENDBRANCH  21  23
ENDBRANCH  19  21
ENDBRANCH  14  15
ENDBRANCH  13  14
ENDBRANCH   1  13
BRANCH   1  29
HETATM   29  C19 UNL     1      17.457  67.081  12.328  1.00  0.00    -0.044 A
HETATM   30  C20 UNL     1      17.032  68.373  12.504  1.00  0.00     0.047 A
HETATM   31  C21 UNL     1      17.380  69.401  11.666  1.00  0.00     0.102 A
HETATM   32  C22 UNL     1      18.204  69.091  10.595  1.00  0.00     0.131 A
HETATM   33  C23 UNL     1      18.644  67.789  10.403  1.00  0.00     0.102 A
HETATM   34  O4  UNL     1      18.595  70.075   9.712  1.00  0.00    -0.337 OA
HETATM   35  C24 UNL     1      18.279  66.777  11.260  1.00  0.00     0.043 A
HETATM   36  N4  UNL     1      19.489  67.507   9.292  1.00  0.00    -0.187 N
HETATM   37  C25 UNL     1      19.850  68.573   8.419  1.00  0.00     0.272 C
HETATM   38  O3  UNL     1      20.869  68.494   7.687  1.00  0.00    -0.268 OA
HETATM   39  C26 UNL     1      18.997  69.804   8.381  1.00  0.00     0.281 C
BRANCH  31  40
HETATM   40  O1  UNL     1      16.937  70.712  11.859  1.00  0.00    -0.358 OA
ATOM     41  H1  UNL     1      17.510  71.464  11.768  1.00  0.00     0.217 HD
ENDBRANCH  31  40
BRANCH  36  42
HETATM   42  O2  UNL     1      19.950  66.246   9.059  1.00  0.00    -0.280 OA
ATOM     43  H2  UNL     1      19.576  65.706   8.372  1.00  0.00     0.245 HD
ENDBRANCH  36  42
ENDBRANCH   1  29
TORSDOF 13
ENDMDL