MODEL 4
REMARK VINA RESULT: -10.062069844      1.292      1.501
REMARK  12 active torsions:
REMARK  status: ('A' for Active; 'I' for Inactive)
REMARK    1  A    between atoms: C2_2  and  N1_3
REMARK    2  A    between atoms: C3_4  and  C4_5
REMARK    3  A    between atoms: C4_5  and  C5_6
REMARK    4  A    between atoms: C5_6  and  S1_7
REMARK    5  A    between atoms: S1_7  and  C6_8
REMARK    6  A    between atoms: C6_8  and  C7_9
REMARK    7  A    between atoms: C7_9  and  C8_10
REMARK       I    between atoms: N4_16  and  C10_18
REMARK    8  A    between atoms: C10_18  and  C11_20
REMARK    9  A    between atoms: C11_20  and  C14_23
REMARK   10  A    between atoms: C14_23  and  N5_24
REMARK       I    between atoms: N8_34  and  C16_36
REMARK   11  A    between atoms: C16_36  and  C17_38
REMARK   12  A    between atoms: C17_38  and  C18_39
ROOT
HETATM    1  N1  UNL     1      11.930  63.781  16.965  1.00  0.00    -0.170 N
HETATM    2  C3  UNL     1      10.980  62.860  16.662  1.00  0.00     0.115 A
HETATM    3  N6  UNL     1      10.143  62.784  17.704  1.00  0.00    -0.274 N
ATOM      4  H6  UNL     1       9.329  62.171  17.757  1.00  0.00     0.189 HD
HETATM    5  N7  UNL     1      10.519  63.604  18.635  1.00  0.00    -0.130 N
ATOM      6  H7  UNL     1      10.062  63.750  19.536  1.00  0.00     0.205 HD
HETATM    7  C15 UNL     1      11.656  64.244  18.175  1.00  0.00     0.703 A
HETATM    8  N8  UNL     1      12.236  65.090  18.909  1.00  0.00    -0.158 N
ATOM      9  H8  UNL     1      11.766  65.230  19.804  1.00  0.00     0.187 HD
HETATM   10  C16 UNL     1      13.363  65.866  18.765  1.00  0.00     0.240 C
HETATM   11  O2  UNL     1      13.415  66.972  18.141  1.00  0.00    -0.272 OA
ENDROOT
BRANCH   2  12
HETATM   12  C4  UNL     1      10.879  62.065  15.428  1.00  0.00     0.089 C
BRANCH  12  13
HETATM   13  C5  UNL     1       9.503  61.414  15.382  1.00  0.00     0.081 C
BRANCH  13  14
HETATM   14  S1  UNL     1       9.550  60.062  14.254  1.00  0.00    -0.168 SA
BRANCH  14  15
HETATM   15  C6  UNL     1       9.187  58.437  14.808  1.00  0.00     0.080 C
BRANCH  15  16
HETATM   16  C7  UNL     1       7.806  58.121  15.145  1.00  0.00     0.076 C
BRANCH  16  17
HETATM   17  C8  UNL     1       7.113  58.786  16.266  1.00  0.00     0.070 A
HETATM   18  N2  UNL     1       6.064  59.570  16.371  1.00  0.00    -0.296 N
HETATM   19  N3  UNL     1       5.662  60.019  17.480  1.00  0.00    -0.279 N
ATOM     20  H2  UNL     1       5.554  59.824  15.525  1.00  0.00     0.187 HD
HETATM   21  C9  UNL     1       6.332  59.683  18.586  1.00  0.00     0.167 A
ATOM     22  H3  UNL     1       4.843  60.626  17.531  1.00  0.00     0.189 HD
HETATM   23  N4  UNL     1       6.068  60.046  19.818  1.00  0.00    -0.305 N
HETATM   24  S2  UNL     1       7.566  58.690  17.959  1.00  0.00    -0.038 SA
HETATM   25  C10 UNL     1       6.940  59.549  20.825  1.00  0.00     0.233 C
ATOM     26  H4  UNL     1       5.280  60.654  20.043  1.00  0.00     0.171 HD
HETATM   27  O1  UNL     1       7.512  58.434  20.629  1.00  0.00    -0.272 OA
BRANCH  25  28
HETATM   28  C11 UNL     1       7.172  60.319  22.066  1.00  0.00     0.057 C
HETATM   29  C12 UNL     1       7.346  59.407  23.270  1.00  0.00     0.027 C
HETATM   30  C13 UNL     1       5.954  61.178  22.322  1.00  0.00     0.027 C
BRANCH  28  31
HETATM   31  C14 UNL     1       8.425  61.167  21.966  1.00  0.00     0.247 C
BRANCH  31  32
HETATM   32  N5  UNL     1       9.206  60.738  20.825  1.00  0.00    -0.078 N
ATOM     33  H53 UNL     1       9.903  60.037  21.076  1.00  0.00     0.274 HD
ATOM     34  H52 UNL     1       8.661  60.174  20.174  1.00  0.00     0.274 HD
ATOM     35  H51 UNL     1       9.623  61.552  20.374  1.00  0.00     0.274 HD
ENDBRANCH  31  32
ENDBRANCH  28  31
ENDBRANCH  25  28
ENDBRANCH  16  17
ENDBRANCH  15  16
ENDBRANCH  14  15
ENDBRANCH  13  14
ENDBRANCH  12  13
ENDBRANCH   2  12
BRANCH   1  36
HETATM   36  C2  UNL     1      12.994  64.134  16.073  1.00  0.00     0.144 C
HETATM   37  C1  UNL     1      14.242  63.285  16.271  1.00  0.00     0.027 C
ENDBRANCH   1  36
BRANCH  10  38
HETATM   38  C17 UNL     1      14.634  65.382  19.390  1.00  0.00     0.144 C
BRANCH  38  39
HETATM   39  C18 UNL     1      15.644  66.456  19.469  1.00  0.00    -0.022 A
HETATM   40  C19 UNL     1      15.632  67.344  20.513  1.00  0.00     0.010 A
HETATM   41  C20 UNL     1      16.545  68.369  20.649  1.00  0.00     0.002 A
HETATM   42  C21 UNL     1      17.518  68.509  19.692  1.00  0.00     0.014 A
HETATM   43  C22 UNL     1      17.545  67.625  18.636  1.00  0.00    -0.008 A
HETATM   44  C23 UNL     1      18.385  67.499  17.524  1.00  0.00     0.030 A
HETATM   45  C25 UNL     1      16.628  66.600  18.503  1.00  0.00     0.049 A
HETATM   46  C24 UNL     1      17.928  66.422  16.799  1.00  0.00     0.089 A
HETATM   47  N9  UNL     1      16.860  65.874  17.394  1.00  0.00    -0.365 N
ATOM     48  H9  UNL     1      16.328  65.066  17.070  1.00  0.00     0.165 HD
ENDBRANCH  38  39
ENDBRANCH  10  38
TORSDOF 12
ENDMDL