MODEL 3
REMARK VINA RESULT: -8.043116789      2.505      8.773
REMARK  15 active torsions:
REMARK  status: ('A' for Active; 'I' for Inactive)
REMARK    1  A    between atoms: C2_2  and  C3_3
REMARK    2  A    between atoms: C3_3  and  O1_5
REMARK    3  A    between atoms: O1_5  and  C5_6
REMARK       I    between atoms: C5_6  and  N1_8
REMARK    4  A    between atoms: C8_14  and  C9_15
REMARK       I    between atoms: C9_15  and  N3_17
REMARK    5  A    between atoms: N3_17  and  C10_19
REMARK    6  A    between atoms: C10_19  and  C11_20
REMARK    7  A    between atoms: C10_19  and  C26_39
REMARK    8  A    between atoms: C11_20  and  C12_21
REMARK    9  A    between atoms: C12_21  and  C13_22
REMARK       I    between atoms: C13_22  and  N4_24
REMARK   10  A    between atoms: N4_24  and  C14_26
REMARK   11  A    between atoms: C14_26  and  C15_27
REMARK   12  A    between atoms: C14_26  and  C18_30
REMARK   13  A    between atoms: C18_30  and  C21_33
REMARK   14  A    between atoms: C21_33  and  C22_35
REMARK   15  A    between atoms: C26_39  and  O7_41
ROOT
HETATM    1  C10 UNL     1      12.782  62.219  16.519  1.00  0.00     0.184 C
ENDROOT
BRANCH   1   2
HETATM    2  N3  UNL     1      13.498  63.467  16.390  1.00  0.00    -0.345 N
HETATM    3  C9  UNL     1      14.805  63.564  15.813  1.00  0.00     0.243 C
HETATM    4  O3  UNL     1      15.289  62.484  15.422  1.00  0.00    -0.271 OA
ATOM      5  H3  UNL     1      13.051  64.320  16.728  1.00  0.00     0.163 HD
BRANCH   3   6
HETATM    6  C8  UNL     1      15.538  64.809  15.680  1.00  0.00     0.209 C
HETATM    7  N1  UNL     1      15.972  65.520  16.809  1.00  0.00    -0.289 N
HETATM    8  C5  UNL     1      15.616  65.612  18.178  1.00  0.00     0.365 C
HETATM    9  C6  UNL     1      17.083  66.377  16.290  1.00  0.00     0.362 C
HETATM   10  O2  UNL     1      14.684  64.940  18.640  1.00  0.00    -0.238 OA
HETATM   11  N2  UNL     1      17.836  65.402  15.567  1.00  0.00    -0.057 N
HETATM   12  C7  UNL     1      16.864  64.550  14.915  1.00  0.00     0.269 C
ATOM     13  H22 UNL     1      18.518  65.806  14.926  1.00  0.00     0.279 HD
ATOM     14  H21 UNL     1      18.502  64.890  16.147  1.00  0.00     0.279 HD
BRANCH   8  15
HETATM   15  O1  UNL     1      16.279  66.450  19.064  1.00  0.00    -0.299 OA
BRANCH  15  16
HETATM   16  C3  UNL     1      15.649  67.476  19.796  1.00  0.00     0.129 C
HETATM   17  C4  UNL     1      14.897  68.430  18.861  1.00  0.00     0.040 C
BRANCH  16  18
HETATM   18  C2  UNL     1      16.739  68.300  20.451  1.00  0.00     0.028 C
HETATM   19  C1  UNL     1      17.905  68.316  19.451  1.00  0.00     0.007 C
ENDBRANCH  16  18
ENDBRANCH  15  16
ENDBRANCH   8  15
ENDBRANCH   3   6
ENDBRANCH   1   2
BRANCH   1  20
HETATM   20  C11 UNL     1      11.548  62.175  15.650  1.00  0.00     0.044 C
BRANCH  20  21
HETATM   21  C12 UNL     1      10.928  60.781  15.663  1.00  0.00     0.105 C
BRANCH  21  22
HETATM   22  C13 UNL     1       9.496  60.789  16.003  1.00  0.00     0.218 C
HETATM   23  O4  UNL     1       8.758  61.600  15.413  1.00  0.00    -0.274 OA
HETATM   24  N4  UNL     1       8.988  59.917  16.952  1.00  0.00    -0.355 N
ATOM     25  H4  UNL     1       9.661  59.285  17.388  1.00  0.00     0.162 HD
BRANCH  24  26
HETATM   26  C14 UNL     1       7.621  59.797  17.396  1.00  0.00     0.102 C
BRANCH  26  27
HETATM   27  C15 UNL     1       6.986  58.725  16.557  1.00  0.00     0.001 C
HETATM   28  C16 UNL     1       7.909  57.913  15.728  1.00  0.00     0.011 C
HETATM   29  C17 UNL     1       5.966  59.424  15.640  1.00  0.00     0.011 C
ENDBRANCH  26  27
BRANCH  26  30
HETATM   30  C18 UNL     1       7.446  59.688  18.856  1.00  0.00     0.035 C
HETATM   31  C19 UNL     1       6.002  59.316  19.231  1.00  0.00     0.025 C
HETATM   32  C20 UNL     1       8.243  58.445  19.287  1.00  0.00     0.025 C
BRANCH  30  33
HETATM   33  C21 UNL     1       7.868  60.882  19.609  1.00  0.00     0.144 C
HETATM   34  O5  UNL     1       8.255  61.832  18.887  1.00  0.00    -0.296 OA
BRANCH  33  35
HETATM   35  C22 UNL     1       7.907  61.134  21.036  1.00  0.00     0.010 C
HETATM   36  C23 UNL     1       7.640  60.003  21.966  1.00  0.00     0.022 C
HETATM   37  C24 UNL     1       6.997  62.280  21.482  1.00  0.00     0.022 C
HETATM   38  C25 UNL     1       9.318  61.633  21.425  1.00  0.00     0.022 C
ENDBRANCH  33  35
ENDBRANCH  30  33
ENDBRANCH  26  30
ENDBRANCH  24  26
ENDBRANCH  21  22
ENDBRANCH  20  21
ENDBRANCH   1  20
BRANCH   1  39
HETATM   39  C26 UNL     1      12.438  61.948  17.952  1.00  0.00     0.281 C
HETATM   40  O6  UNL     1      13.060  61.057  18.586  1.00  0.00    -0.263 OA
BRANCH  39  41
HETATM   41  O7  UNL     1      11.454  62.640  18.621  1.00  0.00    -0.325 OA
HETATM   42  C27 UNL     1      11.753  63.610  19.621  1.00  0.00     0.213 C
ENDBRANCH  39  41
ENDBRANCH   1  39
TORSDOF 15
ENDMDL