MODEL 3
REMARK VINA RESULT: -8.920079579      2.947     11.351
REMARK  12 active torsions:
REMARK  status: ('A' for Active; 'I' for Inactive)
REMARK    1  A    between atoms: C2_2  and  C3_3
REMARK    2  A    between atoms: C3_3  and  N1_4
REMARK    3  A    between atoms: C6_8  and  C7_9
REMARK    4  A    between atoms: N3_15  and  C11_17
REMARK    5  A    between atoms: C13_21  and  N5_22
REMARK    6  A    between atoms: N5_22  and  C14_23
REMARK       I    between atoms: N5_22  and  C20_32
REMARK    7  A    between atoms: C14_23  and  C15_24
REMARK       I    between atoms: C15_24  and  N6_26
REMARK    8  A    between atoms: N6_26  and  C16_28
REMARK    9  A    between atoms: C20_32  and  C21_34
REMARK   10  A    between atoms: C24_37  and  O3_38
REMARK   11  A    between atoms: O3_38  and  C25_39
REMARK   12  A    between atoms: C25_39  and  C26_40
ROOT
HETATM    1  C11 UNL     1      12.061  62.043  18.815  1.00  0.00     0.098 A
HETATM    2  C12 UNL     1      11.631  61.837  20.095  1.00  0.00     0.122 A
HETATM    3  N4  UNL     1      10.418  61.369  20.363  1.00  0.00    -0.350 N
ATOM      4  H4  UNL     1      10.155  61.237  21.340  1.00  0.00     0.166 HD
HETATM    5  C13 UNL     1       9.504  61.054  19.399  1.00  0.00     0.113 A
HETATM    6  C23 UNL     1       9.922  61.257  18.100  1.00  0.00     0.087 A
HETATM    7  C24 UNL     1      11.177  61.744  17.752  1.00  0.00     0.101 A
ENDROOT
BRANCH   1   8
HETATM    8  N3  UNL     1      13.362  62.559  18.528  1.00  0.00    -0.188 N
HETATM    9  C10 UNL     1      13.496  63.825  18.328  1.00  0.00     0.683 A
HETATM   10  N2  UNL     1      12.413  64.622  18.392  1.00  0.00    -0.202 N
HETATM   11  N7  UNL     1      14.706  64.369  18.081  1.00  0.00    -0.189 N
HETATM   12  C9  UNL     1      12.496  65.945  18.216  1.00  0.00     0.108 A
ATOM     13  H2  UNL     1      11.502  64.205  18.582  1.00  0.00     0.183 HD
HETATM   14  C8  UNL     1      13.747  66.474  17.964  1.00  0.00     0.050 A
HETATM   15  C7  UNL     1      14.872  65.681  17.895  1.00  0.00     0.077 A
ATOM     16  H7  UNL     1      15.521  63.757  18.034  1.00  0.00     0.184 HD
ATOM     17  H3  UNL     1      14.169  61.937  18.483  1.00  0.00     0.184 HD
BRANCH  15  18
HETATM   18  C6  UNL     1      16.181  66.282  17.655  1.00  0.00     0.064 A
HETATM   19  C5  UNL     1      16.515  67.521  18.145  1.00  0.00     0.080 A
HETATM   20  C4  UNL     1      17.770  68.086  17.878  1.00  0.00     0.104 A
HETATM   21  N1  UNL     1      18.030  69.241  18.351  1.00  0.00    -0.373 N
HETATM   22  N9  UNL     1      18.680  67.430  17.136  1.00  0.00    -0.333 N
ATOM     23  H1  UNL     1      17.295  69.683  18.903  1.00  0.00     0.161 HD
HETATM   24  C28 UNL     1      18.323  66.211  16.668  1.00  0.00     0.079 A
ATOM     25  H9  UNL     1      19.595  67.832  16.936  1.00  0.00     0.168 HD
HETATM   26  N8  UNL     1      17.127  65.665  16.918  1.00  0.00    -0.344 N
HETATM   27  C29 UNL     1      19.319  65.476  15.848  1.00  0.00     0.089 C
ATOM     28  H8  UNL     1      16.921  64.743  16.535  1.00  0.00     0.167 HD
BRANCH  21  29
HETATM   29  C3  UNL     1      19.233  69.976  18.191  1.00  0.00     0.147 C
BRANCH  29  30
HETATM   30  C2  UNL     1      19.033  71.268  17.476  1.00  0.00    -0.018 C
HETATM   31  C1  UNL     1      19.646  72.394  17.762  1.00  0.00     0.008 C
ENDBRANCH  29  30
ENDBRANCH  21  29
ENDBRANCH  15  18
ENDBRANCH   1   8
BRANCH   7  32
HETATM   32  O3  UNL     1      11.602  61.943  16.474  1.00  0.00    -0.349 OA
BRANCH  32  33
HETATM   33  C25 UNL     1      10.989  62.082  15.263  1.00  0.00     0.175 C
BRANCH  33  34
HETATM   34  C26 UNL     1      10.285  60.889  14.703  1.00  0.00     0.022 C
HETATM   35  C27 UNL     1       8.797  61.221  14.500  1.00  0.00     0.007 C
ENDBRANCH  33  34
ENDBRANCH  32  33
ENDBRANCH   7  32
BRANCH   5  36
HETATM   36  N5  UNL     1       8.230  60.580  19.785  1.00  0.00    -0.291 N
HETATM   37  C20 UNL     1       7.248  61.396  20.364  1.00  0.00     0.248 C
HETATM   38  O2  UNL     1       6.150  60.784  20.673  1.00  0.00    -0.268 OA
BRANCH  36  39
HETATM   39  C14 UNL     1       7.955  59.154  19.573  1.00  0.00     0.236 C
BRANCH  39  40
HETATM   40  C15 UNL     1       7.246  58.855  18.337  1.00  0.00     0.236 C
HETATM   41  O1  UNL     1       7.848  58.187  17.454  1.00  0.00    -0.272 OA
HETATM   42  N6  UNL     1       5.928  59.261  18.051  1.00  0.00    -0.352 N
ATOM     43  H6  UNL     1       5.425  59.798  18.758  1.00  0.00     0.163 HD
BRANCH  42  44
HETATM   44  C16 UNL     1       5.246  58.959  16.809  1.00  0.00     0.022 C
HETATM   45  C17 UNL     1       6.042  59.318  15.586  1.00  0.00     0.037 C
HETATM   46  C18 UNL     1       3.970  59.814  16.812  1.00  0.00     0.037 C
HETATM   47  C19 UNL     1       4.792  57.512  16.766  1.00  0.00     0.037 C
ENDBRANCH  42  44
ENDBRANCH  39  40
ENDBRANCH  36  39
BRANCH  37  48
HETATM   48  C21 UNL     1       7.308  62.802  20.655  1.00  0.00     0.064 C
HETATM   49  C22 UNL     1       7.860  63.188  21.837  1.00  0.00     0.017 C
ENDBRANCH  37  48
ENDBRANCH   5  36
TORSDOF 12
ENDMDL