MODEL 3
REMARK VINA RESULT: -8.163938842      2.541      6.759
REMARK  12 active torsions:
REMARK  status: ('A' for Active; 'I' for Inactive)
REMARK    1  A    between atoms: C2_2  and  C3_3
REMARK    2  A    between atoms: C4_4  and  N1_5
REMARK    3  A    between atoms: N1_5  and  C5_6
REMARK    4  A    between atoms: N3_10  and  C7_12
REMARK    5  A    between atoms: C7_12  and  C8_13
REMARK    6  A    between atoms: C8_13  and  C9_14
REMARK    7  A    between atoms: C9_14  and  C10_15
REMARK    8  A    between atoms: C10_15  and  C11_16
REMARK    9  A    between atoms: C11_16  and  C12_17
REMARK   10  A    between atoms: C12_17  and  C13_18
REMARK   11  A    between atoms: C13_18  and  C14_19
REMARK   12  A    between atoms: C16_25  and  C17_26
REMARK       I    between atoms: C17_26  and  N5_28
ROOT
HETATM    1  C5  UNL     1      17.636  66.453  15.718  1.00  0.00     0.213 A
HETATM    2  N2  UNL     1      16.461  66.305  16.424  1.00  0.00    -0.163 N
ATOM      3  H2  UNL     1      16.199  67.065  17.051  1.00  0.00     0.187 HD
HETATM    4  C6  UNL     1      15.650  65.278  16.364  1.00  0.00     0.680 A
HETATM    5  N3  UNL     1      14.555  65.145  17.022  1.00  0.00    -0.226 N
ATOM      6  H3  UNL     1      13.991  64.302  16.906  1.00  0.00     0.177 HD
HETATM    7  N4  UNL     1      15.989  64.251  15.527  1.00  0.00    -0.201 N
ATOM      8  H4  UNL     1      15.385  63.432  15.448  1.00  0.00     0.183 HD
HETATM    9  C15 UNL     1      17.098  64.326  14.823  1.00  0.00     0.128 A
HETATM   10  C16 UNL     1      17.973  65.402  14.870  1.00  0.00     0.106 A
ENDROOT
BRANCH   1  11
HETATM   11  N1  UNL     1      18.265  67.446  15.862  1.00  0.00    -0.367 NA
BRANCH  11  12
HETATM   12  C4  UNL     1      18.802  68.646  15.694  1.00  0.00     0.190 A
HETATM   13  C3  UNL     1      19.000  69.523  16.782  1.00  0.00     0.029 A
HETATM   14  C28 UNL     1      19.551  70.770  16.648  1.00  0.00     0.072 A
HETATM   15  C25 UNL     1      19.939  71.212  15.403  1.00  0.00     0.032 A
HETATM   16  N9  UNL     1      19.846  71.782  17.499  1.00  0.00    -0.298 N
HETATM   17  C23 UNL     1      19.747  70.358  14.333  1.00  0.00     0.022 A
HETATM   18  C26 UNL     1      20.455  72.478  15.542  1.00  0.00     0.125 A
HETATM   19  N7  UNL     1      19.207  69.148  14.499  1.00  0.00    -0.334 N
HETATM   20  C24 UNL     1      20.169  70.846  12.982  1.00  0.00     0.069 C
ATOM     21  H7  UNL     1      19.091  68.561  13.672  1.00  0.00     0.168 HD
HETATM   22  N8  UNL     1      20.382  72.797  16.850  1.00  0.00    -0.306 N
HETATM   23  C27 UNL     1      20.834  74.075  17.420  1.00  0.00     0.177 C
ATOM     24  H9  UNL     1      19.676  71.762  18.504  1.00  0.00     0.187 HD
BRANCH  13  25
HETATM   25  C2  UNL     1      18.578  69.025  18.105  1.00  0.00     0.041 C
HETATM   26  C1  UNL     1      17.114  69.314  18.352  1.00  0.00     0.010 C
ENDBRANCH  13  25
ENDBRANCH  11  12
ENDBRANCH   1  11
BRANCH  10  27
HETATM   27  C17 UNL     1      19.168  65.343  14.058  1.00  0.00     0.260 C
HETATM   28  O3  UNL     1      20.145  64.649  14.401  1.00  0.00    -0.267 OA
HETATM   29  N5  UNL     1      19.234  66.082  12.865  1.00  0.00    -0.344 N
HETATM   30  C18 UNL     1      20.404  66.068  12.015  1.00  0.00     0.156 C
HETATM   31  C22 UNL     1      18.112  66.889  12.432  1.00  0.00     0.156 C
HETATM   32  C19 UNL     1      20.274  67.229  11.037  1.00  0.00     0.291 C
HETATM   33  N6  UNL     1      19.083  67.182  10.245  1.00  0.00     0.087 N
HETATM   34  C20 UNL     1      18.814  68.545   9.783  1.00  0.00     0.310 C
HETATM   35  C21 UNL     1      17.907  66.746  10.937  1.00  0.00     0.291 C
ENDBRANCH  10  27
BRANCH   5  36
HETATM   36  C7  UNL     1      14.120  66.184  17.926  1.00  0.00     0.138 C
BRANCH  36  37
HETATM   37  C8  UNL     1      12.650  65.978  18.153  1.00  0.00     0.020 C
BRANCH  37  38
HETATM   38  C9  UNL     1      12.419  64.912  19.174  1.00  0.00     0.002 C
BRANCH  38  39
HETATM   39  C10 UNL     1      11.157  64.163  18.875  1.00  0.00     0.000 C
BRANCH  39  40
HETATM   40  C11 UNL     1      11.027  64.132  17.355  1.00  0.00     0.001 C
BRANCH  40  41
HETATM   41  C12 UNL     1      10.942  62.720  16.837  1.00  0.00     0.010 C
BRANCH  41  42
HETATM   42  C13 UNL     1      11.262  62.642  15.360  1.00  0.00     0.113 C
BRANCH  42  43
HETATM   43  C14 UNL     1      12.659  63.102  15.183  1.00  0.00     0.172 C
HETATM   44  O1  UNL     1      12.901  64.109  14.489  1.00  0.00    -0.648 OA
HETATM   45  O2  UNL     1      13.687  62.409  15.792  1.00  0.00    -0.648 OA
ENDBRANCH  42  43
ENDBRANCH  41  42
ENDBRANCH  40  41
ENDBRANCH  39  40
ENDBRANCH  38  39
ENDBRANCH  37  38
ENDBRANCH  36  37
ENDBRANCH   5  36
TORSDOF 12
ENDMDL