MODEL 1
REMARK VINA RESULT: -10.209006880      0.000      0.000
REMARK  11 active torsions:
REMARK  status: ('A' for Active; 'I' for Inactive)
REMARK    1  A    between atoms: N1_9  and  C8_10
REMARK    2  A    between atoms: C8_10  and  C9_11
REMARK    3  A    between atoms: C9_11  and  C10_12
REMARK    4  A    between atoms: C10_12  and  C11_13
REMARK       I    between atoms: C11_13  and  N2_15
REMARK    5  A    between atoms: N2_15  and  C12_17
REMARK    6  A    between atoms: C12_17  and  C13_18
REMARK    7  A    between atoms: C13_18  and  C14_19
REMARK    8  A    between atoms: C14_19  and  C15_20
REMARK    9  A    between atoms: C15_20  and  C16_21
REMARK   10  A    between atoms: C16_21  and  C17_22
REMARK       I    between atoms: C17_22  and  N3_24
REMARK   11  A    between atoms: N3_24  and  C18_26
ROOT
HETATM    1  C11 UNL     1      11.867  64.424  16.793  1.00  0.00     0.217 C
HETATM    2  O2  UNL     1      11.000  65.259  16.443  1.00  0.00    -0.274 OA
HETATM    3  N2  UNL     1      12.186  64.235  18.133  1.00  0.00    -0.361 N
ATOM      4  H2  UNL     1      12.911  63.552  18.354  1.00  0.00     0.162 HD
ENDROOT
BRANCH   3   5
HETATM    5  C12 UNL     1      11.570  64.934  19.233  1.00  0.00     0.122 C
BRANCH   5   6
HETATM    6  C13 UNL     1      11.114  63.960  20.329  1.00  0.00     0.020 C
BRANCH   6   7
HETATM    7  C14 UNL     1       9.876  64.608  20.920  1.00  0.00     0.002 C
BRANCH   7   8
HETATM    8  C15 UNL     1       9.291  63.890  22.080  1.00  0.00     0.009 C
BRANCH   8   9
HETATM    9  C16 UNL     1       7.936  63.315  21.903  1.00  0.00     0.103 C
BRANCH   9  10
HETATM   10  C17 UNL     1       7.785  62.549  20.624  1.00  0.00     0.222 C
HETATM   11  O3  UNL     1       6.929  62.979  19.834  1.00  0.00    -0.273 OA
HETATM   12  N3  UNL     1       8.560  61.423  20.342  1.00  0.00    -0.327 N
ATOM     13  H3  UNL     1       9.225  61.161  21.071  1.00  0.00     0.169 HD
BRANCH  12  14
HETATM   14  C18 UNL     1       8.563  60.595  19.204  1.00  0.00     0.035 A
HETATM   15  C19 UNL     1       8.109  59.311  19.183  1.00  0.00     0.030 A
HETATM   16  C20 UNL     1       8.125  58.536  18.034  1.00  0.00     0.020 A
HETATM   17  C21 UNL     1       8.611  59.038  16.848  1.00  0.00     0.048 A
HETATM   18  C22 UNL     1       9.073  60.316  16.843  1.00  0.00     0.050 A
HETATM   19  C25 UNL     1       8.736  58.431  15.533  1.00  0.00     0.259 A
HETATM   20  C23 UNL     1       9.056  61.090  17.988  1.00  0.00     0.047 A
HETATM   21  C24 UNL     1       9.521  60.576  15.488  1.00  0.00     0.259 A
HETATM   22  O4  UNL     1      10.015  61.650  15.071  1.00  0.00    -0.267 OA
HETATM   23  N4  UNL     1       9.316  59.433  14.694  1.00  0.00    -0.289 N
ATOM     24  H4  UNL     1       9.540  59.337  13.703  1.00  0.00     0.172 HD
HETATM   25  O5  UNL     1       8.404  57.264  15.197  1.00  0.00    -0.267 OA
ENDBRANCH  12  14
ENDBRANCH   9  10
ENDBRANCH   8   9
ENDBRANCH   7   8
ENDBRANCH   6   7
ENDBRANCH   5   6
ENDBRANCH   3   5
BRANCH   1  26
HETATM   26  C10 UNL     1      12.533  63.648  15.707  1.00  0.00     0.104 C
BRANCH  26  27
HETATM   27  C9  UNL     1      13.778  64.368  15.245  1.00  0.00     0.029 C
BRANCH  27  28
HETATM   28  C8  UNL     1      14.996  64.075  16.031  1.00  0.00     0.137 C
BRANCH  28  29
HETATM   29  N1  UNL     1      15.871  65.199  16.282  1.00  0.00    -0.265 N
HETATM   30  C7  UNL     1      15.735  66.105  17.257  1.00  0.00     0.264 A
HETATM   31  C6  UNL     1      16.621  67.150  17.444  1.00  0.00     0.065 A
HETATM   32  O1  UNL     1      14.763  65.992  18.020  1.00  0.00    -0.267 OA
HETATM   33  C4  UNL     1      16.418  68.065  18.483  1.00  0.00    -0.043 A
HETATM   34  C28 UNL     1      17.686  67.267  16.596  1.00  0.00     0.055 A
HETATM   35  C3  UNL     1      17.384  69.079  18.564  1.00  0.00     0.014 A
HETATM   36  C5  UNL     1      15.293  67.980  19.413  1.00  0.00     0.049 C
HETATM   37  C2  UNL     1      18.443  69.207  17.735  1.00  0.00    -0.059 A
HETATM   38  C1  UNL     1      19.421  70.335  17.925  1.00  0.00     0.048 C
HETATM   39  C29 UNL     1      18.612  68.289  16.723  1.00  0.00     0.037 A
HETATM   40  N5  UNL     1      17.828  66.351  15.607  1.00  0.00    -0.303 N
HETATM   41  C26 UNL     1      16.952  65.352  15.453  1.00  0.00     0.331 A
HETATM   42  C27 UNL     1      18.986  66.515  14.733  1.00  0.00     0.161 C
HETATM   43  O6  UNL     1      17.129  64.516  14.509  1.00  0.00    -0.246 OA
ENDBRANCH  28  29
ENDBRANCH  27  28
ENDBRANCH  26  27
ENDBRANCH   1  26
TORSDOF 11
ENDMDL