MODEL 1
REMARK VINA RESULT: -8.723710183      0.000      0.000
REMARK  14 active torsions:
REMARK  status: ('A' for Active; 'I' for Inactive)
REMARK    1  A    between atoms: N1_2  and  C2_3
REMARK    2  A    between atoms: C2_3  and  C3_4
REMARK    3  A    between atoms: C3_4  and  C4_5
REMARK    4  A    between atoms: C4_5  and  C5_6
REMARK    5  A    between atoms: C5_6  and  C6_7
REMARK    6  A    between atoms: C6_7  and  C7_8
REMARK    7  A    between atoms: C7_8  and  N2_9
REMARK    8  A    between atoms: C12_14  and  C13_15
REMARK    9  A    between atoms: C14_16  and  C15_17
REMARK   10  A    between atoms: C15_17  and  O1_18
REMARK   11  A    between atoms: O1_18  and  C16_19
REMARK   12  A    between atoms: C21_30  and  N6_31
REMARK   13  A    between atoms: C24_36  and  C25_37
REMARK   14  A    between atoms: C25_37  and  O4_38
ROOT
HETATM    1  C16 UNL     1       5.001  60.474  21.679  1.00  0.00     0.109 A
HETATM    2  C17 UNL     1       4.254  61.204  22.574  1.00  0.00     0.080 A
HETATM    3  C18 UNL     1       3.371  62.153  22.069  1.00  0.00     0.118 A
HETATM    4  C19 UNL     1       2.586  62.922  23.015  1.00  0.00     0.117 C
HETATM    5  N3  UNL     1       1.943  63.533  23.768  1.00  0.00    -0.190 NA
HETATM    6  N4  UNL     1       3.256  62.344  20.746  1.00  0.00    -0.332 N
ATOM      7  H4  UNL     1       2.602  63.047  20.402  1.00  0.00     0.168 HD
HETATM    8  C20 UNL     1       3.985  61.631  19.856  1.00  0.00     0.136 A
HETATM    9  N5  UNL     1       3.852  61.836  18.596  1.00  0.00    -0.383 N
ATOM     10  H51 UNL     1       4.400  61.299  17.925  1.00  0.00     0.157 HD
ATOM     11  H52 UNL     1       3.193  62.540  18.265  1.00  0.00     0.157 HD
HETATM   12  C21 UNL     1       4.867  60.688  20.299  1.00  0.00     0.179 A
ENDROOT
BRANCH   1  13
HETATM   13  O1  UNL     1       5.879  59.537  22.099  1.00  0.00    -0.337 OA
BRANCH  13  14
HETATM   14  C15 UNL     1       7.020  59.646  22.855  1.00  0.00     0.269 C
BRANCH  14  15
HETATM   15  C14 UNL     1       7.892  60.671  22.283  1.00  0.00    -0.074 C
HETATM   16  C13 UNL     1       8.627  61.518  21.780  1.00  0.00    -0.065 C
BRANCH  16  17
HETATM   17  C12 UNL     1       9.493  62.486  21.174  1.00  0.00     0.018 A
HETATM   18  C11 UNL     1       9.165  63.821  21.138  1.00  0.00     0.021 A
HETATM   19  C10 UNL     1      10.005  64.760  20.553  1.00  0.00     0.011 A
HETATM   20  C9  UNL     1      11.185  64.376  19.996  1.00  0.00    -0.032 A
HETATM   21  C8  UNL     1      12.259  65.153  19.314  1.00  0.00     0.162 C
HETATM   22  C23 UNL     1      11.552  63.035  20.012  1.00  0.00    -0.024 A
HETATM   23  N2  UNL     1      13.143  64.187  18.765  1.00  0.00    -0.378 N
HETATM   24  C24 UNL     1      12.881  62.914  19.336  1.00  0.00     0.141 C
HETATM   25  C22 UNL     1      10.716  62.135  20.590  1.00  0.00     0.030 A
BRANCH  23  26
HETATM   26  C7  UNL     1      13.417  64.239  17.390  1.00  0.00     0.059 C
BRANCH  26  27
HETATM   27  C6  UNL     1      12.246  64.838  16.634  1.00  0.00     0.044 C
BRANCH  27  28
HETATM   28  C5  UNL     1      11.923  63.841  15.526  1.00  0.00     0.005 C
BRANCH  28  29
HETATM   29  C4  UNL     1      10.767  63.007  15.961  1.00  0.00     0.002 C
BRANCH  29  30
HETATM   30  C3  UNL     1      10.605  61.714  15.200  1.00  0.00     0.028 C
BRANCH  30  31
HETATM   31  C2  UNL     1       9.133  61.378  15.171  1.00  0.00     0.237 C
BRANCH  31  32
HETATM   32  N1  UNL     1       8.820  60.010  15.409  1.00  0.00    -0.067 N
HETATM   33  C1  UNL     1       9.461  59.605  16.663  1.00  0.00     0.272 C
HETATM   34  C26 UNL     1       9.136  59.117  14.320  1.00  0.00     0.263 C
HETATM   35  C27 UNL     1       8.956  57.687  14.820  1.00  0.00     0.195 C
HETATM   36  O5  UNL     1       7.963  57.570  15.762  1.00  0.00    -0.388 OA
HETATM   37  C28 UNL     1       6.943  58.465  15.552  1.00  0.00     0.195 C
HETATM   38  C29 UNL     1       7.368  59.907  15.621  1.00  0.00     0.263 C
ENDBRANCH  31  32
ENDBRANCH  30  31
ENDBRANCH  29  30
ENDBRANCH  28  29
ENDBRANCH  27  28
ENDBRANCH  26  27
ENDBRANCH  23  26
BRANCH  24  39
HETATM   39  C25 UNL     1      12.780  61.790  18.339  1.00  0.00     0.194 C
BRANCH  39  40
HETATM   40  O4  UNL     1      13.446  60.665  18.855  1.00  0.00    -0.398 OA
ATOM     41  H4  UNL     1      13.104  59.886  18.432  1.00  0.00     0.209 HD
ENDBRANCH  39  40
ENDBRANCH  24  39
ENDBRANCH  16  17
ENDBRANCH  14  15
ENDBRANCH  13  14
ENDBRANCH   1  13
BRANCH  12  42
HETATM   42  N6  UNL     1       5.643  59.924  19.402  1.00  0.00    -0.109 N
HETATM   43  O2  UNL     1       6.779  60.246  19.000  1.00  0.00    -0.532 OA
HETATM   44  O3  UNL     1       5.133  58.740  18.926  1.00  0.00    -0.532 OA
ENDBRANCH  12  42
TORSDOF 14
ENDMDL