MODEL 1
REMARK VINA RESULT: -9.443245965      0.000      0.000
REMARK  12 active torsions:
REMARK  status: ('A' for Active; 'I' for Inactive)
REMARK    1  A    between atoms: O1_2  and  C2_3
REMARK    2  A    between atoms: C2_3  and  C3_4
REMARK    3  A    between atoms: C3_4  and  C4_5
REMARK    4  A    between atoms: C4_5  and  N1_6
REMARK    5  A    between atoms: C11_14  and  N2_15
REMARK    6  A    between atoms: N2_15  and  C12_17
REMARK    7  A    between atoms: C13_20  and  O3_21
REMARK    8  A    between atoms: O3_21  and  C14_22
REMARK    9  A    between atoms: C14_22  and  C15_23
REMARK   10  A    between atoms: C15_23  and  C16_24
REMARK   11  A    between atoms: C16_24  and  C17_25
REMARK   12  A    between atoms: C17_25  and  N4_26
ROOT
HETATM    1  C12 UNL     1      13.637  62.531  17.313  1.00  0.00     0.686 A
HETATM    2  N3  UNL     1      13.066  63.510  18.032  1.00  0.00    -0.170 N
ATOM      3  H3  UNL     1      13.629  64.309  18.325  1.00  0.00     0.186 HD
HETATM    4  C13 UNL     1      11.756  63.460  18.378  1.00  0.00     0.169 A
HETATM    5  C20 UNL     1      11.047  62.356  17.953  1.00  0.00     0.062 A
HETATM    6  C21 UNL     1      11.663  61.366  17.216  1.00  0.00     0.172 A
HETATM    7  N5  UNL     1      12.947  61.441  16.893  1.00  0.00    -0.169 N
ATOM      8  H5  UNL     1      13.400  60.706  16.348  1.00  0.00     0.186 HD
HETATM    9  O4  UNL     1      10.812  60.302  16.854  1.00  0.00    -0.303 OA
HETATM   10  C22 UNL     1       9.493  60.587  16.395  1.00  0.00     0.141 C
HETATM   11  C23 UNL     1       8.610  59.369  16.512  1.00  0.00     0.088 C
HETATM   12  C24 UNL     1       7.790  59.134  15.260  1.00  0.00     0.237 C
HETATM   13  N6  UNL     1       7.229  60.338  14.715  1.00  0.00    -0.075 N
ATOM     14  H61 UNL     1       6.481  60.692  15.312  1.00  0.00     0.277 HD
ATOM     15  H62 UNL     1       6.691  60.139  13.873  1.00  0.00     0.277 HD
HETATM   16  C25 UNL     1       8.214  61.364  14.465  1.00  0.00     0.237 C
HETATM   17  C26 UNL     1       9.595  60.920  14.901  1.00  0.00     0.088 C
HETATM   18  N7  UNL     1       8.909  61.707  17.051  1.00  0.00    -0.387 N
ATOM     19  H7  UNL     1       8.066  62.166  16.706  1.00  0.00     0.156 HD
HETATM   20  C27 UNL     1       9.601  62.146  18.243  1.00  0.00     0.164 C
ENDROOT
BRANCH   1  21
HETATM   21  N2  UNL     1      14.890  62.662  17.019  1.00  0.00    -0.192 N
ATOM     22  H2  UNL     1      15.599  62.107  17.498  1.00  0.00     0.184 HD
BRANCH  21  23
HETATM   23  C11 UNL     1      15.258  63.600  16.009  1.00  0.00     0.051 A
HETATM   24  C10 UNL     1      14.530  63.649  14.813  1.00  0.00     0.030 A
HETATM   25  C9  UNL     1      14.877  64.536  13.834  1.00  0.00     0.012 A
HETATM   26  C8  UNL     1      15.943  65.416  13.971  1.00  0.00    -0.030 A
HETATM   27  C7  UNL     1      16.236  66.323  12.820  1.00  0.00     0.050 C
HETATM   28  C29 UNL     1      16.668  65.383  15.140  1.00  0.00     0.050 A
HETATM   29  C6  UNL     1      16.884  67.573  13.345  1.00  0.00     0.108 C
HETATM   30  C5  UNL     1      18.051  67.139  14.158  1.00  0.00     0.228 C
HETATM   31  N1  UNL     1      17.769  66.270  15.267  1.00  0.00    -0.296 N
HETATM   32  O2  UNL     1      19.183  67.525  13.864  1.00  0.00    -0.273 OA
HETATM   33  C28 UNL     1      16.308  64.482  16.118  1.00  0.00     0.060 A
BRANCH  31  34
HETATM   34  C4  UNL     1      18.603  66.307  16.403  1.00  0.00     0.075 C
BRANCH  34  35
HETATM   35  C3  UNL     1      18.330  67.360  17.434  1.00  0.00     0.071 C
BRANCH  35  36
HETATM   36  C2  UNL     1      17.389  67.042  18.518  1.00  0.00     0.172 C
BRANCH  36  37
HETATM   37  O1  UNL     1      17.891  67.408  19.750  1.00  0.00    -0.396 OA
HETATM   38  C1  UNL     1      16.985  67.772  20.702  1.00  0.00     0.201 C
ENDBRANCH  36  37
ENDBRANCH  35  36
ENDBRANCH  34  35
ENDBRANCH  31  34
ENDBRANCH  21  23
ENDBRANCH   1  21
BRANCH   4  39
HETATM   39  O3  UNL     1      11.087  64.402  19.103  1.00  0.00    -0.335 OA
BRANCH  39  40
HETATM   40  C14 UNL     1      11.005  64.539  20.487  1.00  0.00     0.178 C
BRANCH  40  41
HETATM   41  C15 UNL     1       9.495  64.712  20.794  1.00  0.00     0.032 C
BRANCH  41  42
HETATM   42  C16 UNL     1       9.243  63.876  21.994  1.00  0.00     0.046 C
BRANCH  42  43
HETATM   43  C17 UNL     1       9.438  62.430  21.789  1.00  0.00     0.057 C
BRANCH  43  44
HETATM   44  N4  UNL     1       8.282  61.648  21.888  1.00  0.00    -0.402 N
HETATM   45  C18 UNL     1       7.012  62.231  21.844  1.00  0.00     0.148 C
HETATM   46  C19 UNL     1       8.400  60.355  21.286  1.00  0.00     0.148 C
ENDBRANCH  43  44
ENDBRANCH  42  43
ENDBRANCH  41  42
ENDBRANCH  40  41
ENDBRANCH  39  40
ENDBRANCH   4  39
TORSDOF 12
ENDMDL