MODEL 2
REMARK VINA RESULT: -8.374002827      2.212      3.563
REMARK  14 active torsions:
REMARK  status: ('A' for Active; 'I' for Inactive)
REMARK    1  A    between atoms: C2_2  and  C3_3
REMARK    2  A    between atoms: C3_3  and  O1_4
REMARK    3  A    between atoms: O1_4  and  C4_5
REMARK    4  A    between atoms: C4_5  and  C5_7
REMARK    5  A    between atoms: C5_7  and  C6_8
REMARK       I    between atoms: N1_12  and  C10_13
REMARK    6  A    between atoms: C10_13  and  C11_15
REMARK    7  A    between atoms: C11_15  and  C12_16
REMARK    8  A    between atoms: C11_15  and  N2_24
REMARK    9  A    between atoms: C12_16  and  C13_17
REMARK   10  A    between atoms: C13_17  and  O5_19
REMARK   11  A    between atoms: O5_19  and  C14_20
REMARK       I    between atoms: N2_24  and  C18_26
REMARK   12  A    between atoms: C18_26  and  C19_28
REMARK   13  A    between atoms: C19_28  and  N3_29
REMARK       I    between atoms: N3_29  and  C20_31
REMARK   14  A    between atoms: C20_31  and  C21_33
ROOT
HETATM    1  C11 UNL     1       9.583  61.980  18.631  1.00  0.00     0.186 C
ENDROOT
BRANCH   1   2
HETATM    2  C10 UNL     1      10.304  63.212  18.327  1.00  0.00     0.243 C
HETATM    3  N1  UNL     1      11.174  63.377  17.239  1.00  0.00    -0.345 N
HETATM    4  C6  UNL     1      11.867  64.548  16.760  1.00  0.00     0.096 C
HETATM    5  C9  UNL     1      11.510  62.242  16.350  1.00  0.00     0.126 C
HETATM    6  C7  UNL     1      13.054  63.954  16.041  1.00  0.00     0.027 C
HETATM    7  C8  UNL     1      12.287  62.895  15.208  1.00  0.00     0.022 C
HETATM    8  O3  UNL     1      10.101  64.213  19.116  1.00  0.00    -0.271 OA
BRANCH   4   9
HETATM    9  C5  UNL     1      12.143  65.635  17.705  1.00  0.00     0.136 C
BRANCH   9  10
HETATM   10  C4  UNL     1      13.353  65.507  18.511  1.00  0.00     0.260 C
HETATM   11  O2  UNL     1      13.419  64.638  19.377  1.00  0.00    -0.265 OA
BRANCH  10  12
HETATM   12  O1  UNL     1      14.432  66.348  18.321  1.00  0.00    -0.321 OA
BRANCH  12  13
HETATM   13  C3  UNL     1      15.471  66.431  19.240  1.00  0.00     0.178 C
BRANCH  13  14
HETATM   14  C2  UNL     1      15.340  67.526  20.261  1.00  0.00     0.022 C
HETATM   15  C1  UNL     1      16.711  67.772  20.858  1.00  0.00     0.007 C
ENDBRANCH  13  14
ENDBRANCH  12  13
ENDBRANCH  10  12
ENDBRANCH   9  10
ENDBRANCH   4   9
ENDBRANCH   1   2
BRANCH   1  16
HETATM   16  C12 UNL     1       8.562  62.000  19.678  1.00  0.00     0.146 C
BRANCH  16  17
HETATM   17  C13 UNL     1       8.893  61.546  21.007  1.00  0.00     0.262 C
HETATM   18  O4  UNL     1      10.157  61.457  21.295  1.00  0.00    -0.265 OA
BRANCH  17  19
HETATM   19  O5  UNL     1       8.114  61.171  22.061  1.00  0.00    -0.311 OA
BRANCH  19  20
HETATM   20  C14 UNL     1       7.374  59.977  22.069  1.00  0.00     0.060 C
HETATM   21  C15 UNL     1       5.944  60.203  21.633  1.00  0.00     0.045 C
HETATM   22  C16 UNL     1       7.380  59.368  23.438  1.00  0.00     0.045 C
HETATM   23  C17 UNL     1       7.967  58.936  21.137  1.00  0.00     0.045 C
ENDBRANCH  19  20
ENDBRANCH  17  19
ENDBRANCH  16  17
ENDBRANCH   1  16
BRANCH   1  24
HETATM   24  N2  UNL     1       8.925  61.613  17.329  1.00  0.00    -0.345 N
HETATM   25  C18 UNL     1       8.674  60.272  16.999  1.00  0.00     0.246 C
HETATM   26  O6  UNL     1       9.009  59.383  17.810  1.00  0.00    -0.271 OA
ATOM     27  H2  UNL     1       8.658  62.349  16.676  1.00  0.00     0.163 HD
BRANCH  25  28
HETATM   28  C19 UNL     1       8.035  59.906  15.726  1.00  0.00     0.114 C
HETATM   29  C23 UNL     1       8.450  58.483  15.414  1.00  0.00     0.041 C
HETATM   30  C24 UNL     1       9.315  58.518  14.193  1.00  0.00     0.003 C
HETATM   31  C25 UNL     1       9.548  59.950  13.842  1.00  0.00     0.003 C
HETATM   32  C26 UNL     1       8.564  60.777  14.625  1.00  0.00     0.041 C
BRANCH  28  33
HETATM   33  N3  UNL     1       6.602  60.031  15.863  1.00  0.00    -0.342 N
HETATM   34  C20 UNL     1       5.735  59.047  16.370  1.00  0.00     0.233 C
HETATM   35  O7  UNL     1       6.191  57.950  16.744  1.00  0.00    -0.272 OA
ATOM     36  H3  UNL     1       6.182  60.911  15.564  1.00  0.00     0.163 HD
BRANCH  34  37
HETATM   37  C21 UNL     1       4.290  59.316  16.461  1.00  0.00     0.146 C
HETATM   38  C22 UNL     1       3.511  58.397  15.515  1.00  0.00     0.032 C
HETATM   39  S1  UNL     1       3.657  59.124  18.159  1.00  0.00    -0.083 SA
ENDBRANCH  34  37
ENDBRANCH  28  33
ENDBRANCH  25  28
ENDBRANCH   1  24
TORSDOF 14
ENDMDL