MODEL 4
REMARK VINA RESULT: -8.494275114      3.636     11.486
REMARK  13 active torsions:
REMARK  status: ('A' for Active; 'I' for Inactive)
REMARK    1  A    between atoms: C4_4  and  O1_5
REMARK    2  A    between atoms: C5_7  and  O2_8
REMARK    3  A    between atoms: C6_10  and  N1_11
REMARK    4  A    between atoms: C8_13  and  C9_14
REMARK    5  A    between atoms: C9_14  and  C10_15
REMARK    6  A    between atoms: C10_15  and  C11_16
REMARK    7  A    between atoms: C11_16  and  C12_17
REMARK    8  A    between atoms: C12_17  and  C13_18
REMARK    9  A    between atoms: C13_18  and  C14_19
REMARK   10  A    between atoms: C14_19  and  C15_20
REMARK   11  A    between atoms: C15_20  and  N2_21
REMARK       I    between atoms: N6_32  and  C19_33
REMARK   12  A    between atoms: C19_33  and  C20_35
REMARK   13  A    between atoms: N7_37  and  C22_38
ROOT
HETATM    1  C1  UNL     1      18.803  21.439  18.899  1.00  0.00     0.032 C
HETATM    2  C2  UNL     1      17.546  22.283  18.983  1.00  0.00     0.087 C
HETATM    3  C3  UNL     1      17.397  22.916  20.374  1.00  0.00     0.059 C
HETATM    4  C4  UNL     1      18.363  24.017  20.627  1.00  0.00     0.152 C
HETATM    5  C5  UNL     1      18.934  24.689  19.427  1.00  0.00     0.191 C
HETATM    6  C6  UNL     1      18.215  24.523  18.149  1.00  0.00     0.243 C
HETATM    7  N6  UNL     1      17.478  23.308  17.966  1.00  0.00    -0.322 N
HETATM    8  C19 UNL     1      16.696  23.163  16.794  1.00  0.00     0.227 C
HETATM    9  O4  UNL     1      16.673  24.076  15.895  1.00  0.00    -0.273 OA
ENDROOT
BRANCH   6  10
HETATM   10  N1  UNL     1      19.124  24.838  17.062  1.00  0.00    -0.261 N
HETATM   11  C7  UNL     1      19.282  25.914  16.302  1.00  0.00     0.140 A
HETATM   12  C8  UNL     1      20.310  25.669  15.416  1.00  0.00     0.044 A
HETATM   13  N4  UNL     1      20.734  24.441  15.678  1.00  0.00    -0.289 N
HETATM   14  N5  UNL     1      20.037  23.939  16.653  1.00  0.00    -0.239 N
ATOM     15  H4  UNL     1      21.491  23.964  15.189  1.00  0.00     0.188 HD
ATOM     16  H5  UNL     1      20.163  23.006  17.047  1.00  0.00     0.208 HD
BRANCH  12  17
HETATM   17  C9  UNL     1      20.872  26.553  14.366  1.00  0.00     0.060 C
BRANCH  17  18
HETATM   18  C10 UNL     1      21.148  27.946  14.818  1.00  0.00     0.006 C
BRANCH  18  19
HETATM   19  C11 UNL     1      22.145  28.060  15.933  1.00  0.00     0.000 C
BRANCH  19  20
HETATM   20  C12 UNL     1      23.404  27.297  15.601  1.00  0.00     0.000 C
BRANCH  20  21
HETATM   21  C13 UNL     1      24.019  26.695  16.830  1.00  0.00     0.002 C
BRANCH  21  22
HETATM   22  C14 UNL     1      23.068  26.575  17.978  1.00  0.00     0.020 C
BRANCH  22  23
HETATM   23  C15 UNL     1      23.805  26.246  19.261  1.00  0.00     0.127 C
BRANCH  23  24
HETATM   24  N2  UNL     1      23.075  26.625  20.443  1.00  0.00    -0.333 N
HETATM   25  C16 UNL     1      21.830  27.330  20.610  1.00  0.00     0.147 C
HETATM   26  C17 UNL     1      21.336  26.907  21.976  1.00  0.00     0.144 C
HETATM   27  N3  UNL     1      22.561  26.686  22.719  1.00  0.00    -0.341 N
HETATM   28  C18 UNL     1      23.528  26.322  21.758  1.00  0.00     0.318 C
ATOM     29  H3  UNL     1      22.695  26.776  23.726  1.00  0.00     0.164 HD
HETATM   30  O3  UNL     1      24.649  25.791  22.063  1.00  0.00    -0.247 OA
ENDBRANCH  23  24
ENDBRANCH  22  23
ENDBRANCH  21  22
ENDBRANCH  20  21
ENDBRANCH  19  20
ENDBRANCH  18  19
ENDBRANCH  17  18
ENDBRANCH  12  17
ENDBRANCH   6  10
BRANCH   5  31
HETATM   31  O2  UNL     1      20.300  24.419  19.396  1.00  0.00    -0.389 OA
ATOM     32  H2  UNL     1      20.753  25.162  19.777  1.00  0.00     0.210 HD
ENDBRANCH   5  31
BRANCH   4  33
HETATM   33  O1  UNL     1      17.731  24.929  21.509  1.00  0.00    -0.393 OA
ATOM     34  H1  UNL     1      18.103  24.785  22.371  1.00  0.00     0.210 HD
ENDBRANCH   4  33
BRANCH   8  35
HETATM   35  C20 UNL     1      15.841  21.995  16.476  1.00  0.00     0.098 C
HETATM   36  C21 UNL     1      14.550  22.049  17.224  1.00  0.00     0.132 C
HETATM   37  N7  UNL     1      13.669  21.212  16.435  1.00  0.00    -0.400 N
HETATM   38  C25 UNL     1      13.925  21.490  15.124  1.00  0.00     0.021 C
HETATM   39  C26 UNL     1      13.056  22.699  14.728  1.00  0.00     0.038 C
HETATM   40  C27 UNL     1      13.670  20.451  14.064  1.00  0.00     0.038 C
HETATM   41  C28 UNL     1      15.369  21.998  15.042  1.00  0.00     0.045 C
BRANCH  37  42
HETATM   42  C22 UNL     1      13.365  20.030  17.048  1.00  0.00     0.071 C
HETATM   43  C23 UNL     1      13.825  20.077  18.513  1.00  0.00     0.031 C
HETATM   44  C24 UNL     1      11.992  19.468  17.068  1.00  0.00     0.031 C
ENDBRANCH  37  42
ENDBRANCH   8  35
TORSDOF 13
ENDMDL