MODEL 1
REMARK VINA RESULT: -7.404982369      0.000      0.000
REMARK  14 active torsions:
REMARK  status: ('A' for Active; 'I' for Inactive)
REMARK    1  A    between atoms: C2_2  and  C3_3
REMARK    2  A    between atoms: C3_3  and  C4_4
REMARK    3  A    between atoms: C4_4  and  N1_5
REMARK    4  A    between atoms: C6_8  and  N3_9
REMARK    5  A    between atoms: N3_9  and  C7_10
REMARK       I    between atoms: N3_9  and  C10_14
REMARK    6  A    between atoms: C7_10  and  C8_11
REMARK    7  A    between atoms: C8_11  and  O1_12
REMARK    8  A    between atoms: C10_14  and  C11_16
REMARK    9  A    between atoms: C17_22  and  N4_23
REMARK       I    between atoms: N4_23  and  C18_25
REMARK   10  A    between atoms: C18_25  and  C19_27
REMARK   11  A    between atoms: C19_27  and  N5_28
REMARK   12  A    between atoms: C20_32  and  C21_33
REMARK   13  A    between atoms: C22_34  and  C23_35
REMARK   14  A    between atoms: N6_40  and  C27_41
ROOT
HETATM    1  C11 UNL     1      20.099  23.377  19.561  1.00  0.00     0.059 A
HETATM    2  C12 UNL     1      19.689  22.568  20.611  1.00  0.00    -0.044 A
HETATM    3  C13 UNL     1      20.601  22.321  21.732  1.00  0.00     0.049 C
HETATM    4  C14 UNL     1      18.423  22.004  20.668  1.00  0.00     0.017 A
HETATM    5  C15 UNL     1      17.517  22.229  19.679  1.00  0.00    -0.033 A
HETATM    6  C16 UNL     1      16.137  21.627  19.717  1.00  0.00     0.050 C
HETATM    7  C17 UNL     1      17.882  23.025  18.623  1.00  0.00     0.060 A
HETATM    8  C20 UNL     1      19.140  23.586  18.563  1.00  0.00     0.061 A
ENDROOT
BRANCH   1   9
HETATM    9  C10 UNL     1      21.419  23.951  19.464  1.00  0.00     0.260 C
HETATM   10  N3  UNL     1      21.886  25.180  19.929  1.00  0.00    -0.304 N
HETATM   11  O2  UNL     1      22.296  23.223  18.862  1.00  0.00    -0.267 OA
BRANCH  10  12
HETATM   12  C6  UNL     1      23.221  25.650  19.693  1.00  0.00     0.148 A
HETATM   13  C5  UNL     1      23.532  26.450  18.620  1.00  0.00     0.155 A
HETATM   14  N1  UNL     1      24.807  26.899  18.392  1.00  0.00    -0.285 N
HETATM   15  N2  UNL     1      22.489  26.806  17.743  1.00  0.00    -0.080 NA
HETATM   16  C29 UNL     1      25.744  26.515  19.272  1.00  0.00     0.333 A
HETATM   17  N6  UNL     1      25.467  25.729  20.338  1.00  0.00    -0.265 N
HETATM   18  O5  UNL     1      26.929  26.895  19.105  1.00  0.00    -0.246 OA
HETATM   19  C26 UNL     1      24.210  25.290  20.558  1.00  0.00     0.282 A
HETATM   20  O4  UNL     1      23.940  24.557  21.544  1.00  0.00    -0.265 OA
BRANCH  14  21
HETATM   21  C4  UNL     1      25.102  27.666  17.232  1.00  0.00     0.135 C
BRANCH  21  22
HETATM   22  C3  UNL     1      25.391  26.906  16.013  1.00  0.00     0.020 C
BRANCH  22  23
HETATM   23  C2  UNL     1      26.674  26.939  15.318  1.00  0.00    -0.003 C
HETATM   24  C1  UNL     1      27.759  25.989  15.708  1.00  0.00     0.005 C
ENDBRANCH  22  23
ENDBRANCH  21  22
ENDBRANCH  14  21
BRANCH  17  25
HETATM   25  C27 UNL     1      26.564  25.378  21.222  1.00  0.00     0.133 C
HETATM   26  C28 UNL     1      26.555  26.376  22.362  1.00  0.00     0.027 C
ENDBRANCH  17  25
ENDBRANCH  10  12
BRANCH  10  27
HETATM   27  C7  UNL     1      21.022  26.032  20.702  1.00  0.00     0.159 C
BRANCH  27  28
HETATM   28  C8  UNL     1      21.517  27.397  20.997  1.00  0.00     0.187 C
BRANCH  28  29
HETATM   29  O1  UNL     1      21.312  27.719  22.328  1.00  0.00    -0.394 OA
HETATM   30  C9  UNL     1      21.967  26.906  23.226  1.00  0.00     0.201 C
ENDBRANCH  28  29
ENDBRANCH  27  28
ENDBRANCH  10  27
ENDBRANCH   1   9
BRANCH   8  31
HETATM   31  C21 UNL     1      19.425  24.412  17.437  1.00  0.00    -0.063 C
HETATM   32  C22 UNL     1      19.680  25.095  16.472  1.00  0.00    -0.097 C
BRANCH  32  33
HETATM   33  C23 UNL     1      20.006  25.911  15.281  1.00  0.00     0.057 C
HETATM   34  C24 UNL     1      18.835  25.961  14.327  1.00  0.00     0.023 C
HETATM   35  C25 UNL     1      21.192  25.246  14.616  1.00  0.00     0.023 C
ENDBRANCH  32  33
ENDBRANCH   8  31
BRANCH   7  36
HETATM   36  N4  UNL     1      16.911  23.251  17.588  1.00  0.00    -0.324 N
HETATM   37  C18 UNL     1      16.853  22.358  16.500  1.00  0.00     0.247 C
HETATM   38  O3  UNL     1      17.635  21.378  16.428  1.00  0.00    -0.271 OA
ATOM     39  H4  UNL     1      16.273  24.045  17.641  1.00  0.00     0.169 HD
BRANCH  37  40
HETATM   40  C19 UNL     1      15.862  22.554  15.406  1.00  0.00     0.332 C
BRANCH  40  41
HETATM   41  N5  UNL     1      14.738  23.315  15.869  1.00  0.00    -0.071 N
ATOM     42  H53 UNL     1      14.856  23.611  16.838  1.00  0.00     0.274 HD
ATOM     43  H52 UNL     1      14.697  24.234  15.430  1.00  0.00     0.274 HD
ATOM     44  H51 UNL     1      13.870  22.795  15.737  1.00  0.00     0.274 HD
ENDBRANCH  40  41
ENDBRANCH  37  40
ENDBRANCH   7  36
TORSDOF 14
ENDMDL