MODEL 4
REMARK VINA RESULT: -9.754194173      2.059      4.524
REMARK  12 active torsions:
REMARK  status: ('A' for Active; 'I' for Inactive)
REMARK    1  A    between atoms: O1_2  and  C2_3
REMARK    2  A    between atoms: C5_6  and  C6_7
REMARK    3  A    between atoms: C6_7  and  C7_8
REMARK       I    between atoms: C7_8  and  N1_10
REMARK    4  A    between atoms: N1_10  and  C8_12
REMARK    5  A    between atoms: C9_17  and  C10_18
REMARK    6  A    between atoms: C10_18  and  C11_19
REMARK    7  A    between atoms: C11_19  and  C12_20
REMARK    8  A    between atoms: C12_20  and  C13_21
REMARK    9  A    between atoms: C13_21  and  C14_22
REMARK       I    between atoms: N6_28  and  C16_30
REMARK   10  A    between atoms: C16_30  and  C17_32
REMARK   11  A    between atoms: C17_32  and  C18_33
REMARK   12  A    between atoms: C24_43  and  O4_44
ROOT
HETATM    1  C10 UNL     1      18.306  23.390  20.742  1.00  0.00     0.066 C
ENDROOT
BRANCH   1   2
HETATM    2  C9  UNL     1      17.527  23.592  19.491  1.00  0.00     0.069 A
HETATM    3  N3  UNL     1      16.650  24.550  19.242  1.00  0.00    -0.296 N
HETATM    4  N2  UNL     1      16.063  24.629  18.126  1.00  0.00    -0.279 N
ATOM      5  H3  UNL     1      16.444  25.239  19.966  1.00  0.00     0.187 HD
HETATM    6  C8  UNL     1      16.355  23.703  17.183  1.00  0.00     0.167 A
ATOM      7  H2  UNL     1      15.387  25.371  17.941  1.00  0.00     0.189 HD
HETATM    8  S2  UNL     1      17.501  22.739  17.997  1.00  0.00    -0.038 SA
BRANCH   6   9
HETATM    9  N1  UNL     1      15.837  23.647  15.982  1.00  0.00    -0.306 N
HETATM   10  C7  UNL     1      14.660  22.908  15.771  1.00  0.00     0.227 C
HETATM   11  O2  UNL     1      13.551  23.520  15.767  1.00  0.00    -0.273 OA
ATOM     12  H1  UNL     1      16.284  24.135  15.206  1.00  0.00     0.171 HD
BRANCH  10  13
HETATM   13  C6  UNL     1      14.691  21.425  15.549  1.00  0.00     0.141 C
BRANCH  13  14
HETATM   14  C5  UNL     1      13.839  20.734  16.551  1.00  0.00    -0.047 A
HETATM   15  C4  UNL     1      14.203  20.797  17.883  1.00  0.00     0.010 A
HETATM   16  C3  UNL     1      13.423  20.163  18.814  1.00  0.00     0.040 A
HETATM   17  C2  UNL     1      12.292  19.465  18.488  1.00  0.00     0.101 A
HETATM   18  C24 UNL     1      11.914  19.397  17.138  1.00  0.00     0.102 A
HETATM   19  C23 UNL     1      12.702  20.036  16.208  1.00  0.00     0.047 A
BRANCH  17  20
HETATM   20  O1  UNL     1      11.551  18.848  19.469  1.00  0.00    -0.353 OA
HETATM   21  C1  UNL     1      12.163  18.338  20.614  1.00  0.00     0.210 C
ENDBRANCH  17  20
BRANCH  18  22
HETATM   22  O4  UNL     1      10.776  18.690  16.857  1.00  0.00    -0.353 OA
HETATM   23  C25 UNL     1      10.678  17.333  16.577  1.00  0.00     0.210 C
ENDBRANCH  18  22
ENDBRANCH  13  14
ENDBRANCH  10  13
ENDBRANCH   6   9
ENDBRANCH   1   2
BRANCH   1  24
HETATM   24  C11 UNL     1      19.276  22.254  20.531  1.00  0.00     0.007 C
BRANCH  24  25
HETATM   25  C12 UNL     1      20.650  22.747  20.164  1.00  0.00     0.007 C
BRANCH  25  26
HETATM   26  C13 UNL     1      20.991  23.903  21.074  1.00  0.00     0.066 C
BRANCH  26  27
HETATM   27  C14 UNL     1      21.260  25.124  20.214  1.00  0.00     0.069 A
HETATM   28  N4  UNL     1      20.712  26.325  20.337  1.00  0.00    -0.296 N
HETATM   29  N5  UNL     1      21.046  27.259  19.548  1.00  0.00    -0.279 N
ATOM     30  H4  UNL     1      20.020  26.496  21.068  1.00  0.00     0.187 HD
HETATM   31  C15 UNL     1      21.957  27.007  18.598  1.00  0.00     0.167 A
ATOM     32  H5  UNL     1      20.630  28.187  19.635  1.00  0.00     0.189 HD
HETATM   33  N6  UNL     1      22.418  27.856  17.707  1.00  0.00    -0.306 N
HETATM   34  S1  UNL     1      22.311  25.360  18.891  1.00  0.00    -0.038 SA
HETATM   35  C16 UNL     1      23.376  27.427  16.775  1.00  0.00     0.227 C
ATOM     36  H6  UNL     1      22.083  28.820  17.693  1.00  0.00     0.171 HD
HETATM   37  O3  UNL     1      24.540  27.888  16.828  1.00  0.00    -0.273 OA
BRANCH  35  38
HETATM   38  C17 UNL     1      23.032  26.442  15.732  1.00  0.00     0.143 C
BRANCH  38  39
HETATM   39  C18 UNL     1      21.666  26.757  15.192  1.00  0.00    -0.032 A
HETATM   40  C19 UNL     1      21.238  27.967  14.760  1.00  0.00     0.095 A
HETATM   41  N7  UNL     1      19.945  27.821  14.354  1.00  0.00    -0.369 N
HETATM   42  C20 UNL     1      19.556  26.556  14.521  1.00  0.00     0.005 A
ATOM     43  H7  UNL     1      19.362  28.568  13.978  1.00  0.00     0.165 HD
HETATM   44  C21 UNL     1      18.215  26.007  14.199  1.00  0.00     0.068 C
HETATM   45  C22 UNL     1      20.619  25.855  15.050  1.00  0.00     0.033 A
ENDBRANCH  38  39
ENDBRANCH  35  38
ENDBRANCH  26  27
ENDBRANCH  25  26
ENDBRANCH  24  25
ENDBRANCH   1  24
TORSDOF 12
ENDMDL