MODEL 5
REMARK VINA RESULT: -8.546734477      2.263      4.418
REMARK  14 active torsions:
REMARK  status: ('A' for Active; 'I' for Inactive)
REMARK    1  A    between atoms: O1_2  and  C2_3
REMARK    2  A    between atoms: C7_10  and  N2_11
REMARK    3  A    between atoms: N2_11  and  C8_12
REMARK    4  A    between atoms: C8_12  and  C9_13
REMARK    5  A    between atoms: C9_13  and  C10_14
REMARK    6  A    between atoms: C10_14  and  N3_15
REMARK    7  A    between atoms: N3_15  and  C11_17
REMARK    8  A    between atoms: C12_20  and  N5_21
REMARK    9  A    between atoms: N5_21  and  C13_23
REMARK   10  A    between atoms: C13_23  and  C14_24
REMARK   11  A    between atoms: C14_24  and  C15_25
REMARK   12  A    between atoms: C15_25  and  N6_26
REMARK   13  A    between atoms: N6_26  and  C17_28
REMARK   14  A    between atoms: C23_38  and  O3_39
ROOT
HETATM    1  C9  UNL     1      16.948  23.891  16.562  1.00  0.00     0.079 C
ENDROOT
BRANCH   1   2
HETATM    2  C8  UNL     1      18.260  23.145  16.774  1.00  0.00     0.157 C
BRANCH   2   3
HETATM    3  N2  UNL     1      19.295  23.966  17.010  1.00  0.00    -0.421 NA
BRANCH   3   4
HETATM    4  C7  UNL     1      19.971  24.908  17.347  1.00  0.00     0.126 A
HETATM    5  C6  UNL     1      20.411  25.887  16.419  1.00  0.00     0.006 A
HETATM    6  C5  UNL     1      21.179  26.951  16.782  1.00  0.00     0.019 A
HETATM    7  C25 UNL     1      19.968  25.671  14.994  1.00  0.00     0.044 C
HETATM    8  N1  UNL     1      21.528  27.071  18.069  1.00  0.00    -0.358 N
HETATM    9  C28 UNL     1      21.643  27.983  15.796  1.00  0.00     0.057 C
HETATM   10  C4  UNL     1      21.151  26.188  19.008  1.00  0.00     0.049 A
ATOM     11  H1  UNL     1      22.104  27.865  18.347  1.00  0.00     0.166 HD
HETATM   12  C3  UNL     1      21.544  26.364  20.335  1.00  0.00     0.070 A
HETATM   13  C21 UNL     1      20.375  25.103  18.675  1.00  0.00     0.035 A
HETATM   14  C2  UNL     1      21.179  25.483  21.324  1.00  0.00     0.103 A
HETATM   15  C23 UNL     1      20.404  24.394  21.006  1.00  0.00     0.102 A
HETATM   16  C22 UNL     1      20.017  24.227  19.687  1.00  0.00     0.057 A
HETATM   17  C27 UNL     1      20.775  27.952  14.579  1.00  0.00     0.006 C
HETATM   18  C26 UNL     1      20.791  26.516  14.071  1.00  0.00     0.005 C
BRANCH  14  19
HETATM   19  O1  UNL     1      21.596  25.703  22.625  1.00  0.00    -0.353 OA
HETATM   20  C1  UNL     1      21.891  26.963  23.144  1.00  0.00     0.210 C
ENDBRANCH  14  19
BRANCH  15  21
HETATM   21  O3  UNL     1      20.054  23.532  22.011  1.00  0.00    -0.353 OA
HETATM   22  C24 UNL     1      20.077  22.121  21.881  1.00  0.00     0.210 C
ENDBRANCH  15  21
ENDBRANCH   3   4
ENDBRANCH   2   3
ENDBRANCH   1   2
BRANCH   1  23
HETATM   23  C10 UNL     1      16.136  24.028  17.821  1.00  0.00     0.128 C
BRANCH  23  24
HETATM   24  N3  UNL     1      14.742  23.733  17.666  1.00  0.00    -0.370 N
ATOM     25  H3  UNL     1      14.028  24.392  17.976  1.00  0.00     0.161 HD
BRANCH  24  26
HETATM   26  C11 UNL     1      14.417  22.604  17.123  1.00  0.00     0.164 A
HETATM   27  N4  UNL     1      14.580  21.404  17.714  1.00  0.00    -0.170 N
HETATM   28  C12 UNL     1      14.263  20.226  17.203  1.00  0.00     0.683 A
ATOM     29  H4  UNL     1      14.989  21.404  18.648  1.00  0.00     0.186 HD
HETATM   30  N7  UNL     1      13.717  19.990  15.995  1.00  0.00    -0.150 N
HETATM   31  C20 UNL     1      13.394  20.922  15.085  1.00  0.00     0.305 A
ATOM     32  H7  UNL     1      13.532  19.017  15.749  1.00  0.00     0.188 HD
HETATM   33  O2  UNL     1      12.880  20.603  13.965  1.00  0.00    -0.259 OA
HETATM   34  S1  UNL     1      13.731  22.521  15.566  1.00  0.00     0.008 SA
BRANCH  28  35
HETATM   35  N5  UNL     1      14.487  19.158  17.908  1.00  0.00    -0.226 N
ATOM     36  H5  UNL     1      14.206  18.243  17.556  1.00  0.00     0.177 HD
BRANCH  35  37
HETATM   37  C13 UNL     1      15.131  19.271  19.184  1.00  0.00     0.140 C
BRANCH  37  38
HETATM   38  C14 UNL     1      14.278  18.648  20.292  1.00  0.00     0.050 C
BRANCH  38  39
HETATM   39  C15 UNL     1      12.824  18.700  19.924  1.00  0.00     0.274 C
BRANCH  39  40
HETATM   40  N6  UNL     1      12.180  17.418  20.005  1.00  0.00     0.088 N
HETATM   41  C16 UNL     1      11.831  17.048  21.348  1.00  0.00     0.310 C
BRANCH  40  42
HETATM   42  C17 UNL     1      11.047  17.335  19.101  1.00  0.00     0.222 A
HETATM   43  C18 UNL     1      11.147  16.449  17.894  1.00  0.00     0.038 A
HETATM   44  C19 UNL     1      11.186  17.918  17.741  1.00  0.00     0.038 A
ENDBRANCH  40  42
ENDBRANCH  39  40
ENDBRANCH  38  39
ENDBRANCH  37  38
ENDBRANCH  35  37
ENDBRANCH  28  35
ENDBRANCH  24  26
ENDBRANCH  23  24
ENDBRANCH   1  23
TORSDOF 14
ENDMDL