MODEL 3
REMARK VINA RESULT: -8.565304443      2.111      3.618
REMARK  12 active torsions:
REMARK  status: ('A' for Active; 'I' for Inactive)
REMARK    1  A    between atoms: C2_2  and  C3_3
REMARK    2  A    between atoms: C3_3  and  C5_5
REMARK    3  A    between atoms: C5_5  and  N1_6
REMARK    4  A    between atoms: C5_5  and  C12_19
REMARK    5  A    between atoms: C7_13  and  C8_14
REMARK       I    between atoms: C12_19  and  N4_21
REMARK    6  A    between atoms: C16_26  and  C17_27
REMARK    7  A    between atoms: C17_27  and  C18_28
REMARK    8  A    between atoms: C18_28  and  S2_29
REMARK    9  A    between atoms: S2_29  and  C19_30
REMARK   10  A    between atoms: C19_30  and  C20_31
REMARK   11  A    between atoms: C20_31  and  C21_32
REMARK   12  A    between atoms: N7_38  and  C23_40
ROOT
HETATM    1  C12 UNL     1      16.769  23.955  18.719  1.00  0.00     0.246 C
HETATM    2  O1  UNL     1      16.522  24.991  18.079  1.00  0.00    -0.271 OA
HETATM    3  N4  UNL     1      15.734  23.078  19.109  1.00  0.00    -0.310 N
ATOM      4  H4  UNL     1      15.565  22.960  20.108  1.00  0.00     0.170 HD
HETATM    5  C13 UNL     1      14.991  22.418  18.298  1.00  0.00     0.122 A
HETATM    6  C14 UNL     1      15.063  22.446  16.932  1.00  0.00     0.052 A
HETATM    7  C15 UNL     1      14.189  21.692  16.172  1.00  0.00     0.030 A
HETATM    8  C16 UNL     1      13.222  20.886  16.755  1.00  0.00     0.026 A
HETATM    9  N8  UNL     1      13.201  20.900  18.093  1.00  0.00    -0.303 N
ATOM     10  H8  UNL     1      12.505  20.324  18.565  1.00  0.00     0.186 HD
HETATM   11  N9  UNL     1      14.015  21.603  18.833  1.00  0.00    -0.285 N
ATOM     12  H9  UNL     1      13.925  21.547  19.847  1.00  0.00     0.188 HD
ENDROOT
BRANCH   1  13
HETATM   13  C5  UNL     1      18.187  23.610  19.105  1.00  0.00     0.180 C
BRANCH  13  14
HETATM   14  C3  UNL     1      18.111  22.686  20.292  1.00  0.00     0.013 C
HETATM   15  C4  UNL     1      18.323  21.261  19.901  1.00  0.00     0.012 C
BRANCH  14  16
HETATM   16  C2  UNL     1      19.042  23.124  21.407  1.00  0.00     0.002 C
HETATM   17  C1  UNL     1      19.959  22.049  21.856  1.00  0.00     0.005 C
ENDBRANCH  14  16
ENDBRANCH  13  14
BRANCH  13  18
HETATM   18  N1  UNL     1      18.921  24.808  19.343  1.00  0.00    -0.356 N
HETATM   19  C6  UNL     1      19.664  25.387  18.450  1.00  0.00     0.161 A
HETATM   20  N2  UNL     1      20.383  26.513  18.606  1.00  0.00    -0.279 N
HETATM   21  S1  UNL     1      20.026  24.991  16.816  1.00  0.00    -0.037 SA
HETATM   22  N3  UNL     1      21.062  26.954  17.645  1.00  0.00    -0.295 N
ATOM     23  H2  UNL     1      20.377  27.005  19.500  1.00  0.00     0.189 HD
HETATM   24  C7  UNL     1      21.066  26.308  16.477  1.00  0.00     0.077 A
ATOM     25  H3  UNL     1      21.611  27.807  17.758  1.00  0.00     0.187 HD
ATOM     26  H1  UNL     1      18.860  25.235  20.268  1.00  0.00     0.162 HD
BRANCH  24  27
HETATM   27  C8  UNL     1      21.801  26.667  15.218  1.00  0.00    -0.001 C
HETATM   28  C9  UNL     1      21.080  27.739  14.445  1.00  0.00     0.021 C
HETATM   29  C10 UNL     1      21.895  25.398  14.400  1.00  0.00     0.021 C
HETATM   30  C11 UNL     1      23.199  27.047  15.601  1.00  0.00     0.021 C
ENDBRANCH  24  27
ENDBRANCH  13  18
ENDBRANCH   1  13
BRANCH   8  31
HETATM   31  C17 UNL     1      12.245  20.056  16.071  1.00  0.00     0.068 C
BRANCH  31  32
HETATM   32  C18 UNL     1      11.247  19.343  16.906  1.00  0.00     0.080 C
BRANCH  32  33
HETATM   33  S2  UNL     1      10.875  17.660  16.380  1.00  0.00    -0.168 SA
BRANCH  33  34
HETATM   34  C19 UNL     1      11.365  16.459  17.648  1.00  0.00     0.082 C
BRANCH  34  35
HETATM   35  C20 UNL     1      10.677  16.867  18.943  1.00  0.00     0.096 C
BRANCH  35  36
HETATM   36  C21 UNL     1      11.676  17.549  19.815  1.00  0.00     0.142 A
HETATM   37  N5  UNL     1      11.492  18.091  21.023  1.00  0.00    -0.280 N
HETATM   38  N6  UNL     1      12.628  18.609  21.455  1.00  0.00    -0.263 N
ATOM     39  H5  UNL     1      10.609  18.104  21.533  1.00  0.00     0.189 HD
HETATM   40  C22 UNL     1      13.550  18.389  20.512  1.00  0.00     0.247 A
ATOM     41  H6  UNL     1      12.774  19.088  22.343  1.00  0.00     0.190 HD
HETATM   42  N7  UNL     1      14.808  18.751  20.586  1.00  0.00    -0.298 N
HETATM   43  O3  UNL     1      12.943  17.749  19.540  1.00  0.00    -0.264 OA
ATOM     44  H7  UNL     1      15.180  19.245  21.397  1.00  0.00     0.171 HD
BRANCH  42  45
HETATM   45  C23 UNL     1      15.617  18.419  19.477  1.00  0.00     0.356 C
HETATM   46  O2  UNL     1      15.582  19.098  18.423  1.00  0.00    -0.283 OA
ENDBRANCH  42  45
ENDBRANCH  35  36
ENDBRANCH  34  35
ENDBRANCH  33  34
ENDBRANCH  32  33
ENDBRANCH  31  32
ENDBRANCH   8  31
TORSDOF 12
ENDMDL