MODEL 5
REMARK VINA RESULT: -8.851066384      0.998      1.136
REMARK  12 active torsions:
REMARK  status: ('A' for Active; 'I' for Inactive)
REMARK    1  A    between atoms: C2_2  and  C3_3
REMARK    2  A    between atoms: C5_7  and  N2_8
REMARK    3  A    between atoms: N2_8  and  C6_10
REMARK    4  A    between atoms: C7_13  and  N4_14
REMARK    5  A    between atoms: N4_14  and  C8_16
REMARK    6  A    between atoms: C8_16  and  C9_17
REMARK    7  A    between atoms: C9_17  and  O1_18
REMARK    8  A    between atoms: C12_22  and  C13_23
REMARK       I    between atoms: C13_23  and  N5_25
REMARK    9  A    between atoms: C21_35  and  N7_36
REMARK       I    between atoms: N7_36  and  C22_38
REMARK   10  A    between atoms: C22_38  and  C23_40
REMARK   11  A    between atoms: C24_41  and  C25_42
REMARK   12  A    between atoms: C25_42  and  N8_43
ROOT
HETATM    1  C6  UNL     1      16.614  20.959  19.173  1.00  0.00     0.684 A
HETATM    2  N3  UNL     1      16.108  21.874  18.339  1.00  0.00    -0.175 N
ATOM      3  H3  UNL     1      16.667  22.651  17.987  1.00  0.00     0.186 HD
HETATM    4  C7  UNL     1      14.787  21.707  17.982  1.00  0.00     0.136 A
HETATM    5  C11 UNL     1      14.068  20.620  18.497  1.00  0.00     0.077 A
HETATM    6  S1  UNL     1      12.470  20.060  18.326  1.00  0.00    -0.079 SA
HETATM    7  C12 UNL     1      12.535  18.660  19.350  1.00  0.00     0.075 A
HETATM    8  C18 UNL     1      13.825  18.700  19.783  1.00  0.00     0.056 A
HETATM    9  C19 UNL     1      14.615  19.704  19.347  1.00  0.00     0.071 A
HETATM   10  N6  UNL     1      15.931  19.924  19.664  1.00  0.00    -0.190 N
ATOM     11  H6  UNL     1      16.402  19.276  20.295  1.00  0.00     0.184 HD
ENDROOT
BRANCH   1  12
HETATM   12  N2  UNL     1      17.881  21.108  19.523  1.00  0.00    -0.190 N
ATOM     13  H2  UNL     1      18.403  20.294  19.850  1.00  0.00     0.184 HD
BRANCH  12  14
HETATM   14  C5  UNL     1      18.541  22.374  19.457  1.00  0.00     0.066 A
HETATM   15  C4  UNL     1      18.495  23.279  20.488  1.00  0.00     0.118 A
HETATM   16  N1  UNL     1      19.124  24.455  20.383  1.00  0.00    -0.365 N
HETATM   17  C3  UNL     1      19.820  24.816  19.295  1.00  0.00     0.035 A
ATOM     18  H1  UNL     1      19.072  25.107  21.166  1.00  0.00     0.165 HD
HETATM   19  C21 UNL     1      19.891  23.911  18.215  1.00  0.00     0.059 A
HETATM   20  C20 UNL     1      19.250  22.693  18.303  1.00  0.00     0.063 A
BRANCH  17  21
HETATM   21  C2  UNL     1      20.504  26.140  19.235  1.00  0.00     0.055 C
HETATM   22  C1  UNL     1      21.377  26.279  20.450  1.00  0.00     0.011 C
ENDBRANCH  17  21
BRANCH  19  23
HETATM   23  N7  UNL     1      20.616  24.330  17.108  1.00  0.00    -0.322 N
HETATM   24  C22 UNL     1      20.092  24.938  15.939  1.00  0.00     0.245 C
HETATM   25  O3  UNL     1      18.872  25.165  15.784  1.00  0.00    -0.268 OA
ATOM     26  H7  UNL     1      21.625  24.186  17.139  1.00  0.00     0.169 HD
BRANCH  24  27
HETATM   27  C23 UNL     1      20.955  25.336  14.844  1.00  0.00     0.072 C
HETATM   28  C24 UNL     1      21.918  26.172  14.847  1.00  0.00     0.008 C
BRANCH  28  29
HETATM   29  C25 UNL     1      22.501  27.016  15.892  1.00  0.00     0.299 C
BRANCH  29  30
HETATM   30  N8  UNL     1      23.838  26.571  16.274  1.00  0.00     0.083 N
HETATM   31  C26 UNL     1      24.873  27.373  15.669  1.00  0.00     0.309 C
HETATM   32  C27 UNL     1      23.921  26.722  17.711  1.00  0.00     0.309 C
ENDBRANCH  29  30
ENDBRANCH  28  29
ENDBRANCH  24  27
ENDBRANCH  19  23
ENDBRANCH  12  14
ENDBRANCH   1  12
BRANCH   4  33
HETATM   33  N4  UNL     1      14.234  22.510  17.212  1.00  0.00    -0.373 N
ATOM     34  H4  UNL     1      13.533  23.036  17.733  1.00  0.00     0.161 HD
BRANCH  33  35
HETATM   35  C8  UNL     1      14.234  22.940  15.903  1.00  0.00     0.147 C
BRANCH  35  36
HETATM   36  C9  UNL     1      13.165  22.138  15.124  1.00  0.00     0.186 C
BRANCH  36  37
HETATM   37  O1  UNL     1      13.744  21.035  14.528  1.00  0.00    -0.394 OA
HETATM   38  C10 UNL     1      14.896  21.357  13.823  1.00  0.00     0.201 C
ENDBRANCH  36  37
ENDBRANCH  35  36
ENDBRANCH  33  35
ENDBRANCH   4  33
BRANCH   7  39
HETATM   39  C13 UNL     1      11.438  17.725  19.617  1.00  0.00     0.260 C
HETATM   40  O2  UNL     1      10.878  17.890  20.772  1.00  0.00    -0.267 OA
HETATM   41  N5  UNL     1      10.952  16.710  18.787  1.00  0.00    -0.347 N
HETATM   42  C14 UNL     1      11.381  16.305  17.486  1.00  0.00     0.126 C
HETATM   43  C17 UNL     1       9.818  15.824  19.154  1.00  0.00     0.126 C
HETATM   44  C15 UNL     1      10.586  15.065  17.094  1.00  0.00     0.021 C
HETATM   45  C16 UNL     1      10.118  14.525  18.433  1.00  0.00     0.021 C
ENDBRANCH   7  39
TORSDOF 12
ENDMDL