MODEL 2
REMARK VINA RESULT: -7.767414843      1.245      1.697
REMARK  14 active torsions:
REMARK  status: ('A' for Active; 'I' for Inactive)
REMARK    1  A    between atoms: C3_3  and  C4_4
REMARK    2  A    between atoms: C4_4  and  C5_5
REMARK    3  A    between atoms: C5_5  and  N1_7
REMARK       I    between atoms: N1_7  and  C8_9
REMARK    4  A    between atoms: C8_9  and  C9_11
REMARK    5  A    between atoms: C14_16  and  C15_17
REMARK    6  A    between atoms: C18_26  and  N5_27
REMARK    7  A    between atoms: N5_27  and  C20_29
REMARK    8  A    between atoms: C20_29  and  C21_30
REMARK    9  A    between atoms: C21_30  and  O4_32
REMARK   10  A    between atoms: C23_36  and  N7_37
REMARK   11  A    between atoms: N7_37  and  C24_39
REMARK   12  A    between atoms: C24_39  and  C25_40
REMARK   13  A    between atoms: C24_39  and  C27_42
REMARK   14  A    between atoms: C27_42  and  O5_43
ROOT
HETATM    1  C1  UNL     1      11.794  19.202  13.043  1.00  0.00     0.096 C
HETATM    2  C2  UNL     1      12.787  19.806  13.416  1.00  0.00    -0.188 C
HETATM    3  C3  UNL     1      13.994  20.518  13.843  1.00  0.00     0.081 C
ENDROOT
BRANCH   3   4
HETATM    4  C4  UNL     1      14.079  20.638  15.323  1.00  0.00     0.036 C
BRANCH   4   5
HETATM    5  C5  UNL     1      15.133  21.540  15.862  1.00  0.00     0.083 C
HETATM    6  C6  UNL     1      15.944  22.019  14.638  1.00  0.00     0.032 C
BRANCH   5   7
HETATM    7  N1  UNL     1      14.573  22.677  16.590  1.00  0.00    -0.348 N
HETATM    8  C7  UNL     1      13.533  23.454  15.940  1.00  0.00     0.153 C
HETATM    9  C8  UNL     1      15.026  23.093  17.871  1.00  0.00     0.254 C
HETATM   10  O1  UNL     1      14.375  24.007  18.438  1.00  0.00    -0.267 OA
BRANCH   9  11
HETATM   11  C9  UNL     1      16.197  22.539  18.554  1.00  0.00     0.050 A
HETATM   12  C10 UNL     1      17.375  23.317  18.466  1.00  0.00     0.033 A
HETATM   13  C11 UNL     1      18.521  22.888  19.037  1.00  0.00     0.009 A
HETATM   14  C12 UNL     1      18.520  21.684  19.701  1.00  0.00     0.046 A
HETATM   15  C28 UNL     1      19.807  23.443  19.105  1.00  0.00     0.065 A
HETATM   16  C13 UNL     1      17.346  20.919  19.786  1.00  0.00     0.049 A
HETATM   17  N3  UNL     1      19.767  21.499  20.160  1.00  0.00    -0.340 N
HETATM   18  C14 UNL     1      16.176  21.357  19.209  1.00  0.00     0.064 A
HETATM   19  C17 UNL     1      20.552  22.535  19.815  1.00  0.00     0.136 A
ATOM     20  H3  UNL     1      20.076  20.687  20.694  1.00  0.00     0.167 HD
HETATM   21  N4  UNL     1      21.864  22.849  20.034  1.00  0.00    -0.175 N
HETATM   22  C18 UNL     1      22.397  23.990  19.582  1.00  0.00     0.683 A
ATOM     23  H4  UNL     1      22.450  22.197  20.555  1.00  0.00     0.186 HD
HETATM   24  N6  UNL     1      21.625  24.872  18.885  1.00  0.00    -0.176 N
HETATM   25  C23 UNL     1      20.344  24.654  18.624  1.00  0.00     0.132 A
ATOM     26  H6  UNL     1      22.051  25.737  18.550  1.00  0.00     0.186 HD
BRANCH  18  27
HETATM   27  C15 UNL     1      14.926  20.532  19.360  1.00  0.00     0.321 C
HETATM   28  O2  UNL     1      13.932  21.115  19.805  1.00  0.00    -0.251 OA
HETATM   29  N2  UNL     1      15.018  19.215  18.997  1.00  0.00    -0.416 NA
HETATM   30  C16 UNL     1      15.107  17.896  18.633  1.00  0.00     0.264 C
ENDBRANCH  18  27
BRANCH  22  31
HETATM   31  N5  UNL     1      23.739  24.403  19.802  1.00  0.00    -0.213 N
HETATM   32  C19 UNL     1      24.147  25.752  19.415  1.00  0.00     0.169 C
BRANCH  31  33
HETATM   33  C20 UNL     1      24.723  23.528  20.407  1.00  0.00     0.251 C
BRANCH  33  34
HETATM   34  C21 UNL     1      25.431  22.734  19.368  1.00  0.00     0.277 C
HETATM   35  O3  UNL     1      26.510  23.189  18.924  1.00  0.00    -0.263 OA
BRANCH  34  36
HETATM   36  O4  UNL     1      24.924  21.535  18.896  1.00  0.00    -0.325 OA
HETATM   37  C22 UNL     1      25.847  20.526  18.446  1.00  0.00     0.213 C
ENDBRANCH  34  36
ENDBRANCH  33  34
ENDBRANCH  31  33
ENDBRANCH  22  31
BRANCH  25  38
HETATM   38  N7  UNL     1      19.525  25.448  18.105  1.00  0.00    -0.368 N
ATOM     39  H7  UNL     1      18.787  25.716  18.755  1.00  0.00     0.161 HD
BRANCH  38  40
HETATM   40  C24 UNL     1      19.371  26.058  16.854  1.00  0.00     0.106 C
BRANCH  40  41
HETATM   41  C25 UNL     1      19.106  25.131  15.696  1.00  0.00     0.023 C
HETATM   42  C26 UNL     1      19.342  25.790  14.359  1.00  0.00     0.007 C
ENDBRANCH  40  41
BRANCH  40  43
HETATM   43  C27 UNL     1      20.615  26.850  16.425  1.00  0.00     0.189 C
BRANCH  43  44
HETATM   44  O5  UNL     1      21.083  27.687  17.417  1.00  0.00    -0.399 OA
ATOM     45  H5  UNL     1      22.020  27.833  17.362  1.00  0.00     0.209 HD
ENDBRANCH  43  44
ENDBRANCH  40  43
ENDBRANCH  38  40
ENDBRANCH  25  38
ENDBRANCH   9  11
ENDBRANCH   5   7
ENDBRANCH   4   5
ENDBRANCH   3   4
TORSDOF 13
ENDMDL