MODEL 5
REMARK VINA RESULT: -9.744513550      1.384      1.623
REMARK  11 active torsions:
REMARK  status: ('A' for Active; 'I' for Inactive)
REMARK    1  A    between atoms: C2_2  and  C3_3
REMARK    2  A    between atoms: C3_3  and  C4_4
REMARK    3  A    between atoms: C4_4  and  C5_5
REMARK    4  A    between atoms: C5_5  and  C6_6
REMARK    5  A    between atoms: C6_6  and  C7_7
REMARK    6  A    between atoms: C8_10  and  C9_11
REMARK    7  A    between atoms: C11_13  and  N2_14
REMARK       I    between atoms: N2_14  and  C12_16
REMARK    8  A    between atoms: N5_25  and  C16_26
REMARK    9  A    between atoms: C16_26  and  C17_27
REMARK       I    between atoms: C17_27  and  N6_29
REMARK   10  A    between atoms: N7_32  and  C20_33
REMARK   11  A    between atoms: C24_39  and  C25_40
REMARK       I    between atoms: C25_40  and  N9_42
ROOT
HETATM    1  C7  UNL     1      19.518  23.867  18.522  1.00  0.00     0.100 A
HETATM    2  N1  UNL     1      20.637  24.462  18.075  1.00  0.00    -0.329 N
ATOM      3  H1  UNL     1      21.583  24.109  18.219  1.00  0.00     0.168 HD
HETATM    4  C8  UNL     1      20.329  25.596  17.406  1.00  0.00     0.134 A
HETATM    5  N4  UNL     1      19.000  25.680  17.452  1.00  0.00    -0.281 N
ATOM      6  H4  UNL     1      18.444  26.427  17.036  1.00  0.00     0.189 HD
HETATM    7  N5  UNL     1      18.499  24.629  18.131  1.00  0.00    -0.270 N
ENDROOT
BRANCH   7   8
HETATM    8  C16 UNL     1      17.107  24.414  18.353  1.00  0.00     0.253 C
BRANCH   8   9
HETATM    9  C17 UNL     1      16.406  24.015  17.092  1.00  0.00     0.239 C
HETATM   10  O2  UNL     1      16.684  24.563  15.970  1.00  0.00    -0.271 OA
HETATM   11  N6  UNL     1      15.406  23.018  17.080  1.00  0.00    -0.348 N
HETATM   12  C18 UNL     1      15.069  22.370  18.344  1.00  0.00     0.145 C
HETATM   13  C28 UNL     1      14.712  22.615  15.875  1.00  0.00     0.145 C
HETATM   14  C19 UNL     1      15.281  20.879  18.139  1.00  0.00     0.144 C
HETATM   15  N7  UNL     1      14.223  20.558  17.084  1.00  0.00    -0.363 N
HETATM   16  C27 UNL     1      14.585  21.086  15.829  1.00  0.00     0.144 C
BRANCH  15  17
HETATM   17  C20 UNL     1      13.157  19.807  17.573  1.00  0.00     0.119 A
HETATM   18  N8  UNL     1      13.276  19.315  18.868  1.00  0.00    -0.352 N
HETATM   19  C21 UNL     1      12.315  18.621  19.476  1.00  0.00     0.089 A
ATOM     20  H8  UNL     1      14.141  19.494  19.377  1.00  0.00     0.166 HD
HETATM   21  C22 UNL     1      11.119  18.337  18.856  1.00  0.00     0.018 A
HETATM   22  C23 UNL     1      10.960  18.798  17.585  1.00  0.00     0.022 A
HETATM   23  C24 UNL     1      11.999  19.540  16.947  1.00  0.00     0.075 A
BRANCH  23  24
HETATM   24  C25 UNL     1      11.723  19.926  15.582  1.00  0.00     0.255 C
HETATM   25  O3  UNL     1      11.153  21.010  15.354  1.00  0.00    -0.268 OA
HETATM   26  N9  UNL     1      12.078  19.085  14.512  1.00  0.00    -0.361 N
HETATM   27  C26 UNL     1      11.840  19.352  13.111  1.00  0.00     0.149 C
ATOM     28  H9  UNL     1      12.545  18.209  14.745  1.00  0.00     0.162 HD
ENDBRANCH  23  24
ENDBRANCH  15  17
ENDBRANCH   8   9
ENDBRANCH   7   8
BRANCH   1  29
HETATM   29  C6  UNL     1      19.514  22.604  19.315  1.00  0.00     0.078 C
BRANCH  29  30
HETATM   30  C5  UNL     1      19.478  22.880  20.785  1.00  0.00     0.007 C
BRANCH  30  31
HETATM   31  C4  UNL     1      20.798  22.550  21.414  1.00  0.00     0.000 C
BRANCH  31  32
HETATM   32  C3  UNL     1      21.764  23.710  21.459  1.00  0.00    -0.000 C
BRANCH  32  33
HETATM   33  C2  UNL     1      21.076  25.010  21.808  1.00  0.00    -0.005 C
HETATM   34  C1  UNL     1      21.588  26.198  21.067  1.00  0.00     0.005 C
ENDBRANCH  32  33
ENDBRANCH  31  32
ENDBRANCH  30  31
ENDBRANCH  29  30
ENDBRANCH   1  29
BRANCH   4  35
HETATM   35  C9  UNL     1      21.325  26.507  16.780  1.00  0.00     0.035 A
HETATM   36  C10 UNL     1      22.348  27.168  17.402  1.00  0.00     0.066 A
HETATM   37  C11 UNL     1      23.022  27.900  16.409  1.00  0.00     0.108 A
HETATM   38  N3  UNL     1      22.402  27.663  15.253  1.00  0.00    -0.345 N
HETATM   39  C14 UNL     1      21.379  26.828  15.455  1.00  0.00     0.021 A
ATOM     40  H3  UNL     1      22.669  28.059  14.352  1.00  0.00     0.167 HD
HETATM   41  C15 UNL     1      20.453  26.336  14.418  1.00  0.00     0.069 C
BRANCH  37  42
HETATM   42  N2  UNL     1      24.169  28.724  16.678  1.00  0.00    -0.313 N
HETATM   43  C12 UNL     1      25.438  28.348  16.247  1.00  0.00     0.219 C
HETATM   44  C13 UNL     1      26.606  29.256  16.567  1.00  0.00     0.117 C
HETATM   45  O1  UNL     1      25.708  27.332  15.620  1.00  0.00    -0.274 OA
ATOM     46  H2  UNL     1      24.051  29.596  17.193  1.00  0.00     0.170 HD
ENDBRANCH  37  42
ENDBRANCH   4  35
TORSDOF 11
ENDMDL