MODEL 5
REMARK VINA RESULT: -7.853486953      4.494     10.451
REMARK  14 active torsions:
REMARK  status: ('A' for Active; 'I' for Inactive)
REMARK    1  A    between atoms: C2_2  and  C3_3
REMARK    2  A    between atoms: C3_3  and  N1_4
REMARK    3  A    between atoms: N2_6  and  C5_8
REMARK    4  A    between atoms: C11_15  and  N3_16
REMARK    5  A    between atoms: N3_16  and  C12_18
REMARK    6  A    between atoms: C12_18  and  O1_19
REMARK    7  A    between atoms: C12_18  and  C13_21
REMARK    8  A    between atoms: C15_23  and  C16_24
REMARK       I    between atoms: C16_24  and  N4_26
REMARK    9  A    between atoms: N4_26  and  C17_28
REMARK   10  A    between atoms: C17_28  and  C18_29
REMARK   11  A    between atoms: C17_28  and  C20_33
REMARK   12  A    between atoms: C18_29  and  C19_30
REMARK   13  A    between atoms: C22_37  and  O7_38
REMARK   14  A    between atoms: C24_40  and  O8_41
ROOT
HETATM    1  C13 UNL     1      15.957  21.845  18.355  1.00  0.00     0.052 A
HETATM    2  C14 UNL     1      15.376  20.657  18.761  1.00  0.00     0.035 A
HETATM    3  C15 UNL     1      14.320  20.029  18.144  1.00  0.00     0.035 A
HETATM    4  C21 UNL     1      13.785  20.626  17.021  1.00  0.00     0.056 A
HETATM    5  C22 UNL     1      14.319  21.810  16.563  1.00  0.00     0.103 A
HETATM    6  C24 UNL     1      15.400  22.409  17.233  1.00  0.00     0.116 A
ENDROOT
BRANCH   1   7
HETATM    7  C12 UNL     1      17.041  22.443  19.126  1.00  0.00     0.154 C
BRANCH   7   8
HETATM    8  N3  UNL     1      18.342  22.607  18.834  1.00  0.00    -0.324 N
ATOM      9  H3  UNL     1      18.545  22.368  17.864  1.00  0.00     0.169 HD
BRANCH   8  10
HETATM   10  C11 UNL     1      19.385  22.982  19.454  1.00  0.00     0.106 C
HETATM   11  N1  UNL     1      20.094  24.221  19.104  1.00  0.00    -0.312 N
HETATM   12  C4  UNL     1      20.436  24.984  20.236  1.00  0.00     0.145 C
HETATM   13  N2  UNL     1      20.783  26.209  20.362  1.00  0.00    -0.367 N
HETATM   14  S1  UNL     1      20.303  23.844  21.627  1.00  0.00    -0.077 SA
ATOM     15  H2  UNL     1      20.837  26.786  19.523  1.00  0.00     0.162 HD
HETATM   16  C8  UNL     1      20.128  22.335  20.561  1.00  0.00     0.067 C
HETATM   17  C9  UNL     1      19.485  21.237  21.283  1.00  0.00     0.035 C
HETATM   18  C10 UNL     1      21.562  22.022  20.144  1.00  0.00     0.035 C
BRANCH  11  19
HETATM   19  C3  UNL     1      20.397  24.641  17.751  1.00  0.00     0.159 C
BRANCH  19  20
HETATM   20  C2  UNL     1      19.361  25.603  17.284  1.00  0.00    -0.017 C
HETATM   21  C1  UNL     1      19.439  26.089  16.062  1.00  0.00     0.008 C
ENDBRANCH  19  20
ENDBRANCH  11  19
BRANCH  13  22
HETATM   22  C5  UNL     1      21.097  26.807  21.619  1.00  0.00     0.075 C
HETATM   23  C6  UNL     1      22.593  26.792  21.798  1.00  0.00     0.032 C
HETATM   24  C7  UNL     1      20.661  28.262  21.614  1.00  0.00     0.032 C
ENDBRANCH  13  22
ENDBRANCH   8  10
ENDBRANCH   7   8
BRANCH   7  25
HETATM   25  O1  UNL     1      16.658  22.891  20.287  1.00  0.00    -0.345 OA
ATOM     26  H1  UNL     1      15.881  23.437  20.286  1.00  0.00     0.219 HD
ENDBRANCH   7  25
ENDBRANCH   1   7
BRANCH   6  27
HETATM   27  O8  UNL     1      15.861  23.576  16.696  1.00  0.00    -0.352 OA
HETATM   28  C25 UNL     1      16.867  23.467  15.682  1.00  0.00     0.210 C
ENDBRANCH   6  27
BRANCH   3  29
HETATM   29  C16 UNL     1      13.780  18.764  18.660  1.00  0.00     0.252 C
HETATM   30  O2  UNL     1      14.602  17.961  19.170  1.00  0.00    -0.268 OA
HETATM   31  N4  UNL     1      12.407  18.417  18.610  1.00  0.00    -0.342 N
ATOM     32  H4  UNL     1      11.752  19.079  18.193  1.00  0.00     0.163 HD
BRANCH  31  33
HETATM   33  C17 UNL     1      11.895  17.171  19.121  1.00  0.00     0.195 C
BRANCH  33  34
HETATM   34  C18 UNL     1      10.852  16.541  18.259  1.00  0.00     0.149 C
BRANCH  34  35
HETATM   35  C19 UNL     1      11.073  16.691  16.809  1.00  0.00     0.175 C
HETATM   36  O3  UNL     1      11.446  15.669  16.180  1.00  0.00    -0.648 OA
HETATM   37  O4  UNL     1      10.902  17.863  16.098  1.00  0.00    -0.648 OA
ENDBRANCH  34  35
ENDBRANCH  33  34
BRANCH  33  38
HETATM   38  C20 UNL     1      11.233  17.473  20.437  1.00  0.00     0.197 C
HETATM   39  O5  UNL     1      11.383  18.572  21.010  1.00  0.00    -0.646 OA
HETATM   40  O6  UNL     1      10.424  16.528  21.062  1.00  0.00    -0.646 OA
ENDBRANCH  33  38
ENDBRANCH  31  33
ENDBRANCH   3  29
BRANCH   5  41
HETATM   41  O7  UNL     1      13.794  22.420  15.442  1.00  0.00    -0.353 OA
HETATM   42  C23 UNL     1      12.582  22.108  14.837  1.00  0.00     0.210 C
ENDBRANCH   5  41
TORSDOF 14
ENDMDL