MODEL 4
REMARK VINA RESULT: -7.218705155      2.377      3.846
REMARK  15 active torsions:
REMARK  status: ('A' for Active; 'I' for Inactive)
REMARK    1  A    between atoms: C2_2  and  C3_3
REMARK    2  A    between atoms: C8_8  and  C9_9
REMARK    3  A    between atoms: C10_10  and  C11_11
REMARK    4  A    between atoms: C15_17  and  C16_18
REMARK    5  A    between atoms: C16_18  and  O3_19
REMARK    6  A    between atoms: C16_18  and  C17_21
REMARK    7  A    between atoms: C17_21  and  O4_22
REMARK    8  A    between atoms: O4_22  and  C18_23
REMARK    9  A    between atoms: C23_29  and  C24_30
REMARK   10  A    between atoms: C25_31  and  C26_32
REMARK   11  A    between atoms: C26_32  and  O6_33
REMARK   12  A    between atoms: C26_32  and  C27_35
REMARK   13  A    between atoms: C27_35  and  O7_36
REMARK   14  A    between atoms: C28_38  and  C29_39
REMARK   15  A    between atoms: C29_39  and  C30_41
ROOT
HETATM    1  C3  UNL     1      19.941  24.951  16.343  1.00  0.00    -0.015 C
HETATM    2  C4  UNL     1      18.752  25.828  16.241  1.00  0.00     0.020 C
HETATM    3  C5  UNL     1      19.538  23.525  16.246  1.00  0.00     0.019 C
HETATM    4  C6  UNL     1      18.274  23.150  16.989  1.00  0.00    -0.010 C
HETATM    5  C7  UNL     1      17.561  22.088  16.183  1.00  0.00     0.010 C
HETATM    6  C8  UNL     1      18.559  22.587  18.352  1.00  0.00     0.015 C
HETATM    7  C20 UNL     1      18.551  23.574  19.449  1.00  0.00    -0.010 C
HETATM    8  C21 UNL     1      17.199  24.304  19.499  1.00  0.00     0.010 C
HETATM    9  C22 UNL     1      19.620  24.633  19.443  1.00  0.00     0.014 C
HETATM   10  C23 UNL     1      20.821  24.438  18.646  1.00  0.00     0.021 C
HETATM   11  C28 UNL     1      20.973  25.282  17.383  1.00  0.00     0.082 C
ENDROOT
BRANCH   6  12
HETATM   12  C9  UNL     1      17.622  21.507  18.653  1.00  0.00    -0.023 C
HETATM   13  C10 UNL     1      16.556  21.463  19.405  1.00  0.00     0.002 C
BRANCH  13  14
HETATM   14  C11 UNL     1      15.726  20.236  19.576  1.00  0.00     0.161 C
HETATM   15  O1  UNL     1      15.998  19.273  18.579  1.00  0.00    -0.311 OA
HETATM   16  C12 UNL     1      14.989  18.329  18.677  1.00  0.00     0.263 C
HETATM   17  O2  UNL     1      15.009  17.079  18.480  1.00  0.00    -0.265 OA
HETATM   18  C13 UNL     1      13.757  19.093  19.090  1.00  0.00     0.091 C
HETATM   19  C14 UNL     1      12.755  18.924  18.020  1.00  0.00     0.021 C
HETATM   20  C15 UNL     1      14.256  20.434  19.416  1.00  0.00     0.063 C
BRANCH  20  21
HETATM   21  C16 UNL     1      13.878  21.576  18.552  1.00  0.00     0.150 C
BRANCH  21  22
HETATM   22  O3  UNL     1      14.110  22.834  19.068  1.00  0.00    -0.393 OA
ATOM     23  H3  UNL     1      13.409  23.213  19.583  1.00  0.00     0.210 HD
ENDBRANCH  21  22
BRANCH  21  24
HETATM   24  C17 UNL     1      14.346  21.445  17.113  1.00  0.00     0.210 C
BRANCH  24  25
HETATM   25  O4  UNL     1      13.414  22.075  16.261  1.00  0.00    -0.319 OA
BRANCH  25  26
HETATM   26  C18 UNL     1      12.931  21.418  15.135  1.00  0.00     0.254 C
HETATM   27  C19 UNL     1      13.829  20.662  14.237  1.00  0.00     0.126 C
HETATM   28  O5  UNL     1      11.696  21.500  14.921  1.00  0.00    -0.266 OA
ENDBRANCH  25  26
ENDBRANCH  24  25
ENDBRANCH  21  24
ENDBRANCH  20  21
ENDBRANCH  13  14
ENDBRANCH   6  12
BRANCH   1  29
HETATM   29  C2  UNL     1      20.674  25.248  15.023  1.00  0.00    -0.027 C
HETATM   30  C1  UNL     1      20.025  25.748  14.003  1.00  0.00     0.007 C
ENDBRANCH   1  29
BRANCH  10  31
HETATM   31  C24 UNL     1      22.106  24.583  19.393  1.00  0.00    -0.023 C
HETATM   32  C25 UNL     1      22.270  25.087  20.592  1.00  0.00     0.003 C
BRANCH  32  33
HETATM   33  C26 UNL     1      23.638  25.159  21.203  1.00  0.00     0.164 C
BRANCH  33  34
HETATM   34  O6  UNL     1      24.238  23.903  21.121  1.00  0.00    -0.390 OA
ATOM     35  H6  UNL     1      24.120  23.561  20.243  1.00  0.00     0.210 HD
ENDBRANCH  33  34
BRANCH  33  36
HETATM   36  C27 UNL     1      24.499  26.177  20.475  1.00  0.00     0.199 C
BRANCH  36  37
HETATM   37  O7  UNL     1      23.699  27.320  20.301  1.00  0.00    -0.398 OA
ATOM     38  H7  UNL     1      23.292  27.234  19.447  1.00  0.00     0.209 HD
ENDBRANCH  36  37
ENDBRANCH  33  36
ENDBRANCH  32  33
ENDBRANCH  10  31
BRANCH  11  39
HETATM   39  C29 UNL     1      21.075  26.729  17.652  1.00  0.00     0.192 C
HETATM   40  O8  UNL     1      20.422  27.280  18.612  1.00  0.00    -0.289 OA
BRANCH  39  41
HETATM   41  C30 UNL     1      21.901  27.661  16.896  1.00  0.00     0.309 C
HETATM   42  O9  UNL     1      21.456  28.466  16.034  1.00  0.00    -0.298 OA
ENDBRANCH  39  41
ENDBRANCH  11  39
TORSDOF 15
ENDMDL