MODEL 5
REMARK VINA RESULT: -7.573404521      2.902      7.259
REMARK  13 active torsions:
REMARK  status: ('A' for Active; 'I' for Inactive)
REMARK       I    between atoms: C2_2  and  N1_4
REMARK    1  A    between atoms: N1_4  and  C3_6
REMARK    2  A    between atoms: C3_6  and  C4_7
REMARK    3  A    between atoms: C3_6  and  C14_30
REMARK    4  A    between atoms: C7_10  and  N2_11
REMARK    5  A    between atoms: N2_11  and  C8_13
REMARK    6  A    between atoms: C8_13  and  C9_14
REMARK    7  A    between atoms: C8_13  and  C11_18
REMARK    8  A    between atoms: C9_14  and  C10_15
REMARK    9  A    between atoms: C11_18  and  N3_19
REMARK   10  A    between atoms: C11_18  and  N4_23
REMARK   11  A    between atoms: N4_23  and  N5_25
REMARK   12  A    between atoms: C14_30  and  N6_31
REMARK   13  A    between atoms: C14_30  and  O4_35
ROOT
HETATM    1  C4  UNL     1      16.541  76.324  26.240  1.00  0.00    -0.031 A
HETATM    2  C5  UNL     1      15.768  77.301  26.827  1.00  0.00     0.011 A
HETATM    3  C6  UNL     1      14.552  77.727  26.276  1.00  0.00     0.030 A
HETATM    4  C7  UNL     1      14.079  77.171  25.109  1.00  0.00     0.028 A
HETATM    5  C12 UNL     1      14.864  76.188  24.527  1.00  0.00     0.030 A
HETATM    6  C13 UNL     1      16.063  75.770  25.070  1.00  0.00     0.011 A
ENDROOT
BRANCH   4   7
HETATM    7  N2  UNL     1      12.837  77.558  24.515  1.00  0.00    -0.381 N
ATOM      8  H2  UNL     1      12.868  78.109  23.657  1.00  0.00     0.160 HD
BRANCH   7   9
HETATM    9  C8  UNL     1      11.535  77.216  25.059  1.00  0.00     0.143 C
BRANCH   9  10
HETATM   10  C9  UNL     1      10.773  76.290  24.205  1.00  0.00     0.142 C
BRANCH  10  11
HETATM   11  C10 UNL     1      11.449  75.924  22.962  1.00  0.00     0.174 C
HETATM   12  O2  UNL     1      12.073  74.866  22.825  1.00  0.00    -0.648 OA
HETATM   13  O3  UNL     1      11.403  76.787  21.870  1.00  0.00    -0.648 OA
ENDBRANCH  10  11
ENDBRANCH   9  10
BRANCH   9  14
HETATM   14  C11 UNL     1      10.886  78.508  25.452  1.00  0.00     0.319 C
BRANCH  14  15
HETATM   15  N3  UNL     1      10.682  78.465  26.926  1.00  0.00    -0.055 N
ATOM     16  H33 UNL     1      10.881  77.549  27.331  1.00  0.00     0.276 HD
ATOM     17  H32 UNL     1      11.385  78.991  27.443  1.00  0.00     0.276 HD
ATOM     18  H31 UNL     1       9.730  78.784  27.107  1.00  0.00     0.276 HD
ENDBRANCH  14  15
BRANCH  14  19
HETATM   19  N4  UNL     1      11.731  79.627  25.230  1.00  0.00    -0.311 N
ATOM     20  H4  UNL     1      12.139  79.801  24.310  1.00  0.00     0.182 HD
BRANCH  19  21
HETATM   21  N5  UNL     1      11.983  80.461  26.273  1.00  0.00    -0.347 N
ATOM     22  H52 UNL     1      12.707  80.223  26.951  1.00  0.00     0.176 HD
ATOM     23  H51 UNL     1      11.434  81.317  26.351  1.00  0.00     0.176 HD
ENDBRANCH  19  21
ENDBRANCH  14  19
ENDBRANCH   9  14
ENDBRANCH   7   9
ENDBRANCH   4   7
BRANCH   1  24
HETATM   24  C3  UNL     1      17.820  75.916  26.871  1.00  0.00     0.173 C
BRANCH  24  25
HETATM   25  N1  UNL     1      17.744  75.926  28.318  1.00  0.00    -0.348 N
HETATM   26  C2  UNL     1      18.708  76.511  29.156  1.00  0.00     0.214 C
HETATM   27  C1  UNL     1      18.588  76.496  30.626  1.00  0.00     0.117 C
HETATM   28  O1  UNL     1      19.709  77.067  28.653  1.00  0.00    -0.274 OA
ATOM     29  H1  UNL     1      16.938  75.480  28.756  1.00  0.00     0.163 HD
ENDBRANCH  24  25
BRANCH  24  30
HETATM   30  C14 UNL     1      18.309  74.568  26.346  1.00  0.00     0.343 C
BRANCH  30  31
HETATM   31  N6  UNL     1      19.723  74.415  26.484  1.00  0.00    -0.051 N
ATOM     32  H63 UNL     1      20.102  73.812  25.754  1.00  0.00     0.277 HD
ATOM     33  H62 UNL     1      20.211  75.279  26.250  1.00  0.00     0.277 HD
ATOM     34  H61 UNL     1      19.987  74.083  27.411  1.00  0.00     0.277 HD
ENDBRANCH  30  31
BRANCH  30  35
HETATM   35  O4  UNL     1      17.628  73.599  27.117  1.00  0.00    -0.368 OA
ATOM     36  H4  UNL     1      17.804  72.770  26.689  1.00  0.00     0.212 HD
ENDBRANCH  30  35
ENDBRANCH  24  30
ENDBRANCH   1  24
TORSDOF 13
ENDMDL