MODEL 1
REMARK VINA RESULT: -7.888497786      0.000      0.000
REMARK  12 active torsions:
REMARK  status: ('A' for Active; 'I' for Inactive)
REMARK    1  A    between atoms: C1_4  and  C2_6
REMARK    2  A    between atoms: C2_6  and  C3_7
REMARK    3  A    between atoms: C3_7  and  N3_8
REMARK    4  A    between atoms: C3_7  and  C4_12
REMARK       I    between atoms: C4_12  and  N4_14
REMARK    5  A    between atoms: N4_14  and  C5_16
REMARK    6  A    between atoms: C5_16  and  C6_17
REMARK    7  A    between atoms: C6_17  and  C7_18
REMARK    8  A    between atoms: C6_17  and  N6_23
REMARK    9  A    between atoms: C7_18  and  N5_19
REMARK   10  A    between atoms: N6_23  and  O2_24
REMARK   11  A    between atoms: O2_24  and  C8_25
REMARK   12  A    between atoms: C8_25  and  C9_26
ROOT
HETATM    1  C6  UNL     1      15.188  82.445  24.884  1.00  0.00     0.150 C
ENDROOT
BRANCH   1   2
HETATM    2  C5  UNL     1      14.922  81.424  23.820  1.00  0.00     0.148 C
BRANCH   2   3
HETATM    3  N4  UNL     1      13.986  80.456  24.353  1.00  0.00    -0.358 N
HETATM    4  C4  UNL     1      14.373  79.097  24.559  1.00  0.00     0.248 C
HETATM    5  O1  UNL     1      15.552  78.768  24.265  1.00  0.00    -0.271 OA
ATOM      6  H4  UNL     1      13.036  80.749  24.583  1.00  0.00     0.162 HD
BRANCH   4   7
HETATM    7  C3  UNL     1      13.436  78.101  25.099  1.00  0.00     0.281 C
BRANCH   7   8
HETATM    8  C2  UNL     1      11.984  78.444  24.853  1.00  0.00     0.115 C
BRANCH   8   9
HETATM    9  C1  UNL     1      11.345  79.104  26.008  1.00  0.00     0.089 C
HETATM   10  N1  UNL     1      10.492  78.518  26.777  1.00  0.00    -0.391 N
ATOM     11  H12 UNL     1      10.051  78.974  27.576  1.00  0.00     0.157 HD
ATOM     12  H11 UNL     1      10.253  77.549  26.567  1.00  0.00     0.157 HD
HETATM   13  N2  UNL     1      11.678  80.452  26.301  1.00  0.00    -0.088 NA
ENDBRANCH   8   9
ENDBRANCH   7   8
BRANCH   7  14
HETATM   14  N3  UNL     1      13.715  77.898  26.502  1.00  0.00    -0.066 N
ATOM     15  H33 UNL     1      14.715  77.789  26.668  1.00  0.00     0.275 HD
ATOM     16  H32 UNL     1      13.554  78.750  27.038  1.00  0.00     0.275 HD
ATOM     17  H31 UNL     1      13.188  77.114  26.887  1.00  0.00     0.275 HD
ENDBRANCH   7  14
ENDBRANCH   4   7
ENDBRANCH   2   3
ENDBRANCH   1   2
BRANCH   1  18
HETATM   18  C7  UNL     1      15.595  81.805  26.165  1.00  0.00     0.254 C
BRANCH  18  19
HETATM   19  N5  UNL     1      16.902  81.149  26.002  1.00  0.00    -0.078 N
ATOM     20  H53 UNL     1      17.503  81.649  25.347  1.00  0.00     0.274 HD
ATOM     21  H52 UNL     1      17.484  81.240  26.835  1.00  0.00     0.274 HD
ATOM     22  H51 UNL     1      16.769  80.174  25.732  1.00  0.00     0.274 HD
ENDBRANCH  18  19
ENDBRANCH   1  18
BRANCH   1  23
HETATM   23  N6  UNL     1      16.063  83.504  24.459  1.00  0.00    -0.087 NA
BRANCH  23  24
HETATM   24  O2  UNL     1      16.869  83.189  23.458  1.00  0.00    -0.255 OA
BRANCH  24  25
HETATM   25  C8  UNL     1      18.102  83.765  23.463  1.00  0.00     0.177 C
BRANCH  25  26
HETATM   26  C9  UNL     1      18.284  85.052  22.827  1.00  0.00     0.031 A
HETATM   27  C10 UNL     1      18.750  85.197  21.552  1.00  0.00     0.018 A
HETATM   28  C11 UNL     1      18.937  86.438  20.955  1.00  0.00     0.018 A
HETATM   29  C12 UNL     1      18.640  87.568  21.678  1.00  0.00     0.089 A
HETATM   30  N7  UNL     1      18.182  87.432  22.934  1.00  0.00    -0.352 N
HETATM   31  C13 UNL     1      17.998  86.238  23.518  1.00  0.00     0.111 A
ATOM     32  H7  UNL     1      17.963  88.274  23.467  1.00  0.00     0.166 HD
HETATM   33  N8  UNL     1      17.554  86.173  24.726  1.00  0.00    -0.385 N
ATOM     34  H82 UNL     1      17.415  85.266  25.170  1.00  0.00     0.157 HD
ATOM     35  H81 UNL     1      17.347  87.036  25.229  1.00  0.00     0.157 HD
ENDBRANCH  25  26
ENDBRANCH  24  25
ENDBRANCH  23  24
ENDBRANCH   1  23
TORSDOF 12
ENDMDL