MODEL 3
REMARK VINA RESULT: -7.640647329      2.313      3.534
REMARK  10 active torsions:
REMARK  status: ('A' for Active; 'I' for Inactive)
REMARK       I    between atoms: C1_4  and  N3_6
REMARK    1  A    between atoms: N3_6  and  C2_8
REMARK    2  A    between atoms: C2_8  and  C3_9
REMARK    3  A    between atoms: C2_8  and  C11_24
REMARK    4  A    between atoms: C3_9  and  O1_10
REMARK    5  A    between atoms: O1_10  and  C4_11
REMARK    6  A    between atoms: C8_17  and  N5_18
REMARK    7  A    between atoms: N5_18  and  C9_20
REMARK    8  A    between atoms: C9_20  and  C10_21
REMARK    9  A    between atoms: C11_24  and  N6_25
REMARK   10  A    between atoms: C11_24  and  C12_29
ROOT
HETATM    1  C2  UNL     1      17.720  76.045  27.124  1.00  0.00     0.149 C
ENDROOT
BRANCH   1   2
HETATM    2  N3  UNL     1      17.939  74.609  27.031  1.00  0.00    -0.356 N
HETATM    3  C1  UNL     1      18.174  73.923  25.821  1.00  0.00     0.182 C
HETATM    4  N1  UNL     1      17.309  73.099  25.363  1.00  0.00    -0.374 N
HETATM    5  N2  UNL     1      19.373  74.145  25.110  1.00  0.00    -0.064 NA
ATOM      6  H12 UNL     1      17.479  72.603  24.488  1.00  0.00     0.158 HD
ATOM      7  H11 UNL     1      16.443  72.939  25.877  1.00  0.00     0.158 HD
ATOM      8  H3  UNL     1      17.922  74.065  27.893  1.00  0.00     0.162 HD
ENDBRANCH   1   2
BRANCH   1   9
HETATM    9  C3  UNL     1      16.535  76.481  26.325  1.00  0.00     0.203 C
BRANCH   9  10
HETATM   10  O1  UNL     1      15.627  77.256  27.124  1.00  0.00    -0.345 OA
BRANCH  10  11
HETATM   11  C4  UNL     1      15.407  78.583  26.781  1.00  0.00     0.112 A
HETATM   12  C5  UNL     1      16.442  79.488  26.725  1.00  0.00     0.042 A
HETATM   13  C6  UNL     1      16.142  80.787  26.377  1.00  0.00     0.020 A
HETATM   14  C7  UNL     1      14.830  81.141  26.100  1.00  0.00     0.090 A
HETATM   15  N4  UNL     1      13.860  80.220  26.170  1.00  0.00    -0.350 N
HETATM   16  C8  UNL     1      14.087  78.941  26.501  1.00  0.00     0.135 A
ATOM     17  H4  UNL     1      12.903  80.505  25.961  1.00  0.00     0.166 HD
BRANCH  16  18
HETATM   18  N5  UNL     1      13.027  78.000  26.574  1.00  0.00    -0.364 N
ATOM     19  H5  UNL     1      12.774  77.587  27.471  1.00  0.00     0.161 HD
BRANCH  18  20
HETATM   20  C9  UNL     1      12.316  77.631  25.395  1.00  0.00     0.234 C
BRANCH  20  21
HETATM   21  C10 UNL     1      11.411  78.645  24.848  1.00  0.00     0.191 C
HETATM   22  O2  UNL     1      11.176  78.667  23.618  1.00  0.00    -0.647 OA
HETATM   23  O3  UNL     1      10.777  79.609  25.618  1.00  0.00    -0.647 OA
ENDBRANCH  20  21
ENDBRANCH  18  20
ENDBRANCH  16  18
ENDBRANCH  10  11
ENDBRANCH   9  10
ENDBRANCH   1   9
BRANCH   1  24
HETATM   24  C11 UNL     1      17.493  76.382  28.585  1.00  0.00     0.307 C
BRANCH  24  25
HETATM   25  N6  UNL     1      16.862  75.197  29.218  1.00  0.00    -0.063 N
ATOM     26  H63 UNL     1      16.773  75.285  30.230  1.00  0.00     0.275 HD
ATOM     27  H62 UNL     1      15.869  75.111  29.006  1.00  0.00     0.275 HD
ATOM     28  H61 UNL     1      17.403  74.379  28.935  1.00  0.00     0.275 HD
ENDBRANCH  24  25
BRANCH  24  29
HETATM   29  C12 UNL     1      18.716  76.654  29.340  1.00  0.00     0.206 C
HETATM   30  O4  UNL     1      19.771  76.963  28.745  1.00  0.00    -0.646 OA
HETATM   31  O5  UNL     1      18.701  76.561  30.716  1.00  0.00    -0.646 OA
ENDBRANCH  24  29
ENDBRANCH   1  24
TORSDOF 10
ENDMDL