MODEL 1
REMARK VINA RESULT: -7.736908735      0.000      0.000
REMARK  11 active torsions:
REMARK  status: ('A' for Active; 'I' for Inactive)
REMARK    1  A    between atoms: N1_1  and  C1_4
REMARK    2  A    between atoms: C1_4  and  C2_6
REMARK    3  A    between atoms: C2_6  and  N3_7
REMARK    4  A    between atoms: N3_7  and  C3_9
REMARK    5  A    between atoms: C3_9  and  C4_10
REMARK    6  A    between atoms: C4_10  and  O1_11
REMARK    7  A    between atoms: O1_11  and  N4_12
REMARK    8  A    between atoms: N4_12  and  C5_14
REMARK    9  A    between atoms: C5_14  and  C6_15
REMARK   10  A    between atoms: C5_14  and  C7_18
REMARK   11  A    between atoms: C12_29  and  N9_30
ROOT
HETATM    1  C5  UNL     1      14.581  79.555  26.086  1.00  0.00     0.231 C
ENDROOT
BRANCH   1   2
HETATM    2  N4  UNL     1      13.464  79.301  26.821  1.00  0.00    -0.284 N
ATOM      3  H4  UNL     1      13.496  78.723  27.661  1.00  0.00     0.189 HD
BRANCH   2   4
HETATM    4  O1  UNL     1      12.320  79.850  26.385  1.00  0.00    -0.282 OA
BRANCH   4   5
HETATM    5  C4  UNL     1      11.758  79.110  25.282  1.00  0.00     0.220 C
BRANCH   5   6
HETATM    6  C3  UNL     1      11.519  77.756  25.983  1.00  0.00     0.148 C
BRANCH   6   7
HETATM    7  N3  UNL     1      11.792  76.593  25.241  1.00  0.00    -0.394 N
ATOM      8  H3  UNL     1      11.385  75.676  25.426  1.00  0.00     0.159 HD
BRANCH   7   9
HETATM    9  C2  UNL     1      12.720  76.876  24.189  1.00  0.00     0.128 C
BRANCH   9  10
HETATM   10  C1  UNL     1      14.095  76.512  24.304  1.00  0.00     0.125 C
HETATM   11  N2  UNL     1      15.191  76.987  23.575  1.00  0.00    -0.082 NA
BRANCH  10  12
HETATM   12  N1  UNL     1      14.397  75.505  25.125  1.00  0.00    -0.387 N
ATOM     13  H12 UNL     1      14.511  75.724  26.114  1.00  0.00     0.157 HD
ATOM     14  H11 UNL     1      14.395  74.593  24.668  1.00  0.00     0.157 HD
ENDBRANCH  10  12
ENDBRANCH   9  10
ENDBRANCH   7   9
ENDBRANCH   6   7
ENDBRANCH   5   6
ENDBRANCH   4   5
ENDBRANCH   2   4
ENDBRANCH   1   2
BRANCH   1  15
HETATM   15  C6  UNL     1      15.697  78.849  26.878  1.00  0.00     0.260 C
HETATM   16  N5  UNL     1      15.309  77.692  27.573  1.00  0.00    -0.060 NA
HETATM   17  O2  UNL     1      16.812  79.321  26.848  1.00  0.00    -0.274 OA
ENDBRANCH   1  15
BRANCH   1  18
HETATM   18  C7  UNL     1      15.065  80.882  25.783  1.00  0.00     0.019 A
HETATM   19  C8  UNL     1      15.199  81.879  26.700  1.00  0.00     0.102 A
HETATM   20  N6  UNL     1      15.853  83.009  26.451  1.00  0.00    -0.350 N
HETATM   21  C9  UNL     1      16.430  83.230  25.251  1.00  0.00     0.135 A
ATOM     22  H6  UNL     1      15.921  83.720  27.179  1.00  0.00     0.166 HD
HETATM   23  N7  UNL     1      17.161  84.250  24.747  1.00  0.00    -0.337 N
HETATM   24  C11 UNL     1      16.338  82.265  24.254  1.00  0.00     0.104 A
HETATM   25  C10 UNL     1      17.494  83.943  23.500  1.00  0.00     0.182 A
ATOM     26  H7  UNL     1      17.412  85.106  25.239  1.00  0.00     0.168 HD
HETATM   27  N8  UNL     1      16.984  82.762  23.229  1.00  0.00    -0.347 N
ATOM     28  H8  UNL     1      17.080  82.289  22.329  1.00  0.00     0.167 HD
HETATM   29  C12 UNL     1      15.637  81.089  24.552  1.00  0.00     0.067 A
BRANCH  29  30
HETATM   30  N9  UNL     1      15.459  80.230  23.585  1.00  0.00    -0.397 N
ATOM     31  H92 UNL     1      14.554  79.766  23.527  1.00  0.00     0.156 HD
ATOM     32  H91 UNL     1      16.228  79.984  22.962  1.00  0.00     0.156 HD
ENDBRANCH  29  30
ENDBRANCH   1  18
TORSDOF 11
ENDMDL