MODEL 1
REMARK VINA RESULT: -8.169076191      0.000      0.000
REMARK  14 active torsions:
REMARK  status: ('A' for Active; 'I' for Inactive)
REMARK    1  A    between atoms: N1_1  and  C1_4
REMARK    2  A    between atoms: C3_8  and  C4_9
REMARK    3  A    between atoms: C4_9  and  C5_10
REMARK    4  A    between atoms: C5_10  and  N3_11
REMARK    5  A    between atoms: C5_10  and  C6_15
REMARK    6  A    between atoms: C6_15  and  O1_16
REMARK    7  A    between atoms: C6_15  and  N4_18
REMARK    8  A    between atoms: N4_18  and  C7_20
REMARK    9  A    between atoms: C7_20  and  N5_21
REMARK   10  A    between atoms: N5_21  and  C8_23
REMARK   11  A    between atoms: C8_23  and  N6_24
REMARK   12  A    between atoms: N6_24  and  O2_26
REMARK   13  A    between atoms: O2_26  and  C9_27
REMARK   14  A    between atoms: C12_30  and  N7_31
ROOT
HETATM    1  C6  UNL     1      11.820  79.623  25.562  1.00  0.00     0.245 C
ENDROOT
BRANCH   1   2
HETATM    2  C5  UNL     1      11.971  78.219  26.072  1.00  0.00     0.237 C
BRANCH   2   3
HETATM    3  C4  UNL     1      12.194  77.229  24.951  1.00  0.00     0.096 C
BRANCH   3   4
HETATM    4  C3  UNL     1      13.610  76.893  24.730  1.00  0.00     0.044 A
HETATM    5  C2  UNL     1      14.629  77.679  24.273  1.00  0.00     0.131 A
HETATM    6  N2  UNL     1      15.757  76.937  24.234  1.00  0.00    -0.200 N
HETATM    7  C1  UNL     1      15.451  75.697  24.660  1.00  0.00     0.675 A
ATOM      8  H2  UNL     1      16.678  77.258  23.934  1.00  0.00     0.183 HD
HETATM    9  N8  UNL     1      14.145  75.677  24.960  1.00  0.00    -0.194 N
ATOM     10  H8  UNL     1      13.634  74.867  25.309  1.00  0.00     0.184 HD
BRANCH   7  11
HETATM   11  N1  UNL     1      16.274  74.732  24.752  1.00  0.00    -0.234 N
ATOM     12  H12 UNL     1      17.170  74.639  24.274  1.00  0.00     0.174 HD
ATOM     13  H11 UNL     1      16.143  73.904  25.332  1.00  0.00     0.174 HD
ENDBRANCH   7  11
ENDBRANCH   3   4
ENDBRANCH   2   3
BRANCH   2  14
HETATM   14  N3  UNL     1      10.867  77.815  26.881  1.00  0.00    -0.070 N
ATOM     15  H33 UNL     1      10.956  78.149  27.840  1.00  0.00     0.274 HD
ATOM     16  H32 UNL     1      10.010  78.308  26.628  1.00  0.00     0.274 HD
ATOM     17  H31 UNL     1      10.748  76.803  26.840  1.00  0.00     0.274 HD
ENDBRANCH   2  14
ENDBRANCH   1   2
BRANCH   1  18
HETATM   18  O1  UNL     1      10.424  79.917  25.750  1.00  0.00    -0.375 OA
ATOM     19  H1  UNL     1      10.005  79.554  24.979  1.00  0.00     0.212 HD
ENDBRANCH   1  18
BRANCH   1  20
HETATM   20  N4  UNL     1      12.505  80.582  26.306  1.00  0.00    -0.380 N
ATOM     21  H4  UNL     1      11.965  81.231  26.877  1.00  0.00     0.157 HD
BRANCH  20  22
HETATM   22  C7  UNL     1      13.901  80.694  26.304  1.00  0.00     0.241 C
BRANCH  22  23
HETATM   23  N5  UNL     1      14.367  81.931  25.667  1.00  0.00    -0.369 N
ATOM     24  H5  UNL     1      13.761  82.467  25.045  1.00  0.00     0.161 HD
BRANCH  23  25
HETATM   25  C8  UNL     1      15.682  82.349  25.944  1.00  0.00     0.201 C
BRANCH  25  26
HETATM   26  N6  UNL     1      16.072  83.519  26.242  1.00  0.00    -0.262 N
ATOM     27  H6  UNL     1      15.735  83.880  27.134  1.00  0.00     0.195 HD
BRANCH  26  28
HETATM   28  O2  UNL     1      16.869  84.352  25.544  1.00  0.00    -0.274 OA
BRANCH  28  29
HETATM   29  C9  UNL     1      16.880  84.586  24.167  1.00  0.00     0.154 C
HETATM   30  C10 UNL     1      17.726  83.648  23.367  1.00  0.00     0.036 C
HETATM   31  C11 UNL     1      18.572  84.567  22.513  1.00  0.00     0.035 C
HETATM   32  C12 UNL     1      18.851  85.688  23.519  1.00  0.00     0.186 C
HETATM   33  C13 UNL     1      17.419  85.987  23.959  1.00  0.00     0.067 C
BRANCH  32  34
HETATM   34  N7  UNL     1      19.486  86.822  22.908  1.00  0.00    -0.075 N
ATOM     35  H73 UNL     1      19.920  87.422  23.609  1.00  0.00     0.274 HD
ATOM     36  H72 UNL     1      20.320  86.543  22.392  1.00  0.00     0.274 HD
ATOM     37  H71 UNL     1      18.846  87.351  22.316  1.00  0.00     0.274 HD
ENDBRANCH  32  34
ENDBRANCH  28  29
ENDBRANCH  26  28
ENDBRANCH  25  26
ENDBRANCH  23  25
ENDBRANCH  22  23
ENDBRANCH  20  22
ENDBRANCH   1  20
TORSDOF 14
ENDMDL