MODEL 5
REMARK VINA RESULT: -7.249772718      1.523      5.279
REMARK  11 active torsions:
REMARK  status: ('A' for Active; 'I' for Inactive)
REMARK       I    between atoms: C1_4  and  N3_6
REMARK    1  A    between atoms: N3_6  and  C2_8
REMARK    2  A    between atoms: C2_8  and  C3_9
REMARK    3  A    between atoms: C2_8  and  C5_17
REMARK    4  A    between atoms: C3_9  and  N4_10
REMARK    5  A    between atoms: C3_9  and  C4_14
REMARK    6  A    between atoms: C5_17  and  O3_18
REMARK    7  A    between atoms: C5_17  and  C6_20
REMARK    8  A    between atoms: N5_24  and  C10_25
REMARK    9  A    between atoms: C10_25  and  C11_26
REMARK   10  A    between atoms: C11_26  and  N6_27
REMARK   11  A    between atoms: C11_26  and  C12_31
ROOT
HETATM    1  C5  UNL     1      13.538  79.544  25.098  1.00  0.00     0.189 C
ENDROOT
BRANCH   1   2
HETATM    2  C2  UNL     1      13.156  78.078  25.079  1.00  0.00     0.061 C
BRANCH   2   3
HETATM    3  N3  UNL     1      13.781  77.281  24.086  1.00  0.00    -0.333 N
HETATM    4  C1  UNL     1      14.629  76.148  24.316  1.00  0.00     0.186 C
HETATM    5  N1  UNL     1      14.150  75.143  24.940  1.00  0.00    -0.374 N
HETATM    6  N2  UNL     1      15.978  76.093  23.878  1.00  0.00    -0.064 NA
ATOM      7  H12 UNL     1      14.753  74.338  25.104  1.00  0.00     0.158 HD
ATOM      8  H11 UNL     1      13.181  75.183  25.256  1.00  0.00     0.158 HD
ATOM      9  H3  UNL     1      13.610  77.539  23.114  1.00  0.00     0.168 HD
ENDBRANCH   2   3
BRANCH   2  10
HETATM   10  C3  UNL     1      11.677  77.873  25.264  1.00  0.00     0.331 C
BRANCH  10  11
HETATM   11  N4  UNL     1      11.421  77.419  26.598  1.00  0.00    -0.060 N
ATOM     12  H43 UNL     1      11.470  78.177  27.279  1.00  0.00     0.275 HD
ATOM     13  H42 UNL     1      10.443  77.162  26.736  1.00  0.00     0.275 HD
ATOM     14  H41 UNL     1      12.056  76.654  26.826  1.00  0.00     0.275 HD
ENDBRANCH  10  11
BRANCH  10  15
HETATM   15  C4  UNL     1      10.983  77.107  24.248  1.00  0.00     0.210 C
HETATM   16  O1  UNL     1      11.131  75.835  24.274  1.00  0.00    -0.646 OA
HETATM   17  O2  UNL     1      10.175  77.584  23.249  1.00  0.00    -0.646 OA
ENDBRANCH  10  15
ENDBRANCH   2  10
ENDBRANCH   1   2
BRANCH   1  18
HETATM   18  O3  UNL     1      12.341  80.263  25.458  1.00  0.00    -0.388 OA
ATOM     19  H3  UNL     1      11.737  80.146  24.733  1.00  0.00     0.210 HD
ENDBRANCH   1  18
BRANCH   1  20
HETATM   20  C6  UNL     1      14.461  79.885  26.247  1.00  0.00     0.118 C
HETATM   21  C7  UNL     1      14.254  81.328  26.648  1.00  0.00     0.030 C
HETATM   22  C8  UNL     1      15.304  82.056  25.846  1.00  0.00     0.022 C
HETATM   23  C9  UNL     1      16.315  81.000  25.443  1.00  0.00     0.122 C
HETATM   24  N5  UNL     1      15.824  79.751  25.897  1.00  0.00    -0.383 N
BRANCH  24  25
HETATM   25  C10 UNL     1      16.619  78.967  26.750  1.00  0.00     0.102 C
BRANCH  25  26
HETATM   26  C11 UNL     1      16.334  77.509  26.847  1.00  0.00     0.321 C
BRANCH  26  27
HETATM   27  N6  UNL     1      15.259  77.163  27.755  1.00  0.00    -0.061 N
ATOM     28  H63 UNL     1      15.347  77.689  28.625  1.00  0.00     0.275 HD
ATOM     29  H62 UNL     1      14.374  77.536  27.414  1.00  0.00     0.275 HD
ATOM     30  H61 UNL     1      15.173  76.166  27.951  1.00  0.00     0.275 HD
ENDBRANCH  26  27
BRANCH  26  31
HETATM   31  C12 UNL     1      17.545  76.767  27.279  1.00  0.00     0.209 C
HETATM   32  O4  UNL     1      18.337  77.301  28.085  1.00  0.00    -0.646 OA
HETATM   33  O5  UNL     1      17.831  75.496  26.818  1.00  0.00    -0.646 OA
ENDBRANCH  26  31
ENDBRANCH  25  26
ENDBRANCH  24  25
ENDBRANCH   1  20
TORSDOF 11
ENDMDL