MODEL 1
REMARK VINA RESULT: -8.176884644      0.000      0.000
REMARK  8 active torsions:
REMARK  status: ('A' for Active; 'I' for Inactive)
REMARK    1  A    between atoms: N1_1  and  C1_4
REMARK    2  A    between atoms: C3_8  and  S1_9
REMARK    3  A    between atoms: S1_9  and  C4_10
REMARK    4  A    between atoms: C4_10  and  C5_11
REMARK       I    between atoms: C5_11  and  N3_13
REMARK    5  A    between atoms: N3_13  and  C6_15
REMARK    6  A    between atoms: C6_15  and  C7_16
REMARK    7  A    between atoms: C6_15  and  C9_28
REMARK    8  A    between atoms: C7_16  and  N4_17
REMARK       I    between atoms: N4_17  and  C8_19
REMARK       I    between atoms: C8_19  and  N5_20
REMARK       I    between atoms: C8_19  and  N6_24
ROOT
HETATM    1  C6  UNL     1      15.428  78.469  26.750  1.00  0.00     0.203 C
ENDROOT
BRANCH   1   2
HETATM    2  N3  UNL     1      15.943  79.736  26.348  1.00  0.00    -0.344 N
HETATM    3  C5  UNL     1      15.209  80.930  26.557  1.00  0.00     0.228 C
HETATM    4  O1  UNL     1      14.087  80.867  27.116  1.00  0.00    -0.273 OA
ATOM      5  H3  UNL     1      16.858  79.784  25.900  1.00  0.00     0.163 HD
BRANCH   3   6
HETATM    6  C4  UNL     1      15.684  82.272  26.150  1.00  0.00     0.182 C
BRANCH   6   7
HETATM    7  S1  UNL     1      16.282  82.173  24.437  1.00  0.00    -0.112 SA
BRANCH   7   8
HETATM    8  C3  UNL     1      17.169  83.692  24.019  1.00  0.00     0.060 A
HETATM    9  C2  UNL     1      16.925  84.977  24.415  1.00  0.00     0.116 A
HETATM   10  N2  UNL     1      17.720  85.914  23.990  1.00  0.00    -0.345 N
HETATM   11  C1  UNL     1      18.733  85.582  23.192  1.00  0.00     0.143 A
ATOM     12  H2  UNL     1      17.571  86.885  24.263  1.00  0.00     0.167 HD
HETATM   13  S2  UNL     1      18.561  83.890  23.031  1.00  0.00    -0.046 SA
BRANCH  11  14
HETATM   14  N1  UNL     1      19.647  86.366  22.658  1.00  0.00    -0.380 N
ATOM     15  H12 UNL     1      19.846  87.344  22.871  1.00  0.00     0.158 HD
ATOM     16  H11 UNL     1      20.327  86.145  21.931  1.00  0.00     0.158 HD
ENDBRANCH  11  14
ENDBRANCH   7   8
ENDBRANCH   6   7
ENDBRANCH   3   6
ENDBRANCH   1   2
BRANCH   1  17
HETATM   17  C7  UNL     1      14.390  77.971  25.770  1.00  0.00     0.153 C
BRANCH  17  18
HETATM   18  N4  UNL     1      13.186  77.738  26.508  1.00  0.00    -0.372 N
HETATM   19  C8  UNL     1      11.972  78.112  25.834  1.00  0.00     0.476 C
HETATM   20  N5  UNL     1      11.922  79.528  25.534  1.00  0.00    -0.033 N
HETATM   21  N6  UNL     1      10.845  77.724  26.687  1.00  0.00    -0.033 N
ATOM     22  H53 UNL     1      12.064  80.088  26.375  1.00  0.00     0.278 HD
ATOM     23  H52 UNL     1      12.743  79.821  25.004  1.00  0.00     0.278 HD
ATOM     24  H51 UNL     1      11.061  79.794  25.055  1.00  0.00     0.278 HD
ATOM     25  H63 UNL     1      10.867  76.737  26.945  1.00  0.00     0.278 HD
ATOM     26  H62 UNL     1      10.911  78.112  27.628  1.00  0.00     0.278 HD
ATOM     27  H61 UNL     1       9.984  77.989  26.208  1.00  0.00     0.278 HD
ATOM     28  H4  UNL     1      13.189  77.336  27.446  1.00  0.00     0.157 HD
ENDBRANCH  17  18
ENDBRANCH   1  17
BRANCH   1  29
HETATM   29  C9  UNL     1      16.442  77.471  27.106  1.00  0.00     0.198 C
HETATM   30  O2  UNL     1      17.488  77.306  26.445  1.00  0.00    -0.646 OA
HETATM   31  O3  UNL     1      16.205  76.679  28.239  1.00  0.00    -0.646 OA
ENDBRANCH   1  29
TORSDOF 8
ENDMDL