MODEL 5
REMARK VINA RESULT: -8.973237717      2.656      3.555
REMARK  11 active torsions:
REMARK  status: ('A' for Active; 'I' for Inactive)
REMARK    1  A    between atoms: N1_1  and  N2_4
REMARK       I    between atoms: N2_4  and  C1_6
REMARK       I    between atoms: C1_6  and  N3_8
REMARK    2  A    between atoms: N3_8  and  O2_10
REMARK    3  A    between atoms: O2_10  and  C2_11
REMARK    4  A    between atoms: C2_11  and  C3_12
REMARK    5  A    between atoms: C3_12  and  N4_13
REMARK    6  A    between atoms: N4_13  and  C4_15
REMARK    7  A    between atoms: C4_15  and  O3_16
REMARK    8  A    between atoms: C4_15  and  N5_18
REMARK    9  A    between atoms: C4_15  and  N7_28
REMARK   10  A    between atoms: N5_18  and  N6_20
REMARK   11  A    between atoms: N6_20  and  C5_22
REMARK       I    between atoms: N7_28  and  C11_30
ROOT
HETATM    1  C4  UNL     1      13.675  77.970  26.138  1.00  0.00     0.319 C
ENDROOT
BRANCH   1   2
HETATM    2  N4  UNL     1      13.383  76.799  25.367  1.00  0.00    -0.333 N
ATOM      3  H4  UNL     1      12.540  76.257  25.558  1.00  0.00     0.165 HD
BRANCH   2   4
HETATM    4  C3  UNL     1      14.259  76.402  24.349  1.00  0.00     0.090 C
BRANCH   4   5
HETATM    5  C2  UNL     1      15.437  75.638  24.874  1.00  0.00     0.245 C
BRANCH   5   6
HETATM    6  O2  UNL     1      16.363  76.539  25.398  1.00  0.00    -0.271 OA
BRANCH   6   7
HETATM    7  N3  UNL     1      17.062  75.884  26.349  1.00  0.00    -0.215 N
HETATM    8  C1  UNL     1      17.650  76.617  27.400  1.00  0.00     0.358 C
HETATM    9  N2  UNL     1      18.385  75.932  28.401  1.00  0.00    -0.257 N
HETATM   10  O1  UNL     1      17.499  77.869  27.410  1.00  0.00    -0.243 OA
ATOM     11  H2  UNL     1      18.490  74.918  28.366  1.00  0.00     0.191 HD
ATOM     12  H3  UNL     1      17.164  74.870  26.307  1.00  0.00     0.199 HD
BRANCH   9  13
HETATM   13  N1  UNL     1      18.958  76.669  29.430  1.00  0.00    -0.341 N
ATOM     14  H12 UNL     1      18.603  76.570  30.381  1.00  0.00     0.177 HD
ATOM     15  H11 UNL     1      19.730  77.298  29.211  1.00  0.00     0.177 HD
ENDBRANCH   9  13
ENDBRANCH   6   7
ENDBRANCH   5   6
ENDBRANCH   4   5
ENDBRANCH   2   4
ENDBRANCH   1   2
BRANCH   1  16
HETATM   16  O3  UNL     1      14.354  77.676  27.313  1.00  0.00    -0.335 OA
ATOM     17  H3  UNL     1      15.131  78.212  27.428  1.00  0.00     0.216 HD
ENDBRANCH   1  16
BRANCH   1  18
HETATM   18  N5  UNL     1      14.535  78.774  25.312  1.00  0.00    -0.265 N
ATOM     19  H5  UNL     1      14.420  78.798  24.299  1.00  0.00     0.187 HD
BRANCH  18  20
HETATM   20  N6  UNL     1      15.501  79.496  25.922  1.00  0.00    -0.300 N
ATOM     21  H6  UNL     1      16.066  79.093  26.670  1.00  0.00     0.186 HD
BRANCH  20  22
HETATM   22  C5  UNL     1      15.709  80.853  25.487  1.00  0.00     0.048 A
HETATM   23  C6  UNL     1      15.863  81.143  24.134  1.00  0.00     0.031 A
HETATM   24  C7  UNL     1      16.056  82.443  23.735  1.00  0.00     0.002 A
HETATM   25  C8  UNL     1      16.104  83.480  24.614  1.00  0.00     0.000 A
HETATM   26  C9  UNL     1      15.953  83.220  25.978  1.00  0.00     0.002 A
HETATM   27  C10 UNL     1      15.761  81.914  26.365  1.00  0.00     0.031 A
ENDBRANCH  20  22
ENDBRANCH  18  20
ENDBRANCH   1  18
BRANCH   1  28
HETATM   28  N7  UNL     1      12.452  78.649  26.500  1.00  0.00    -0.276 N
HETATM   29  C11 UNL     1      11.600  79.216  25.525  1.00  0.00     0.333 C
HETATM   30  N8  UNL     1      10.401  79.883  25.843  1.00  0.00    -0.040 NA
HETATM   31  O4  UNL     1      11.938  79.114  24.306  1.00  0.00    -0.251 OA
ATOM     32  H7  UNL     1      12.198  78.721  27.485  1.00  0.00     0.170 HD
ENDBRANCH   1  28
TORSDOF 11
ENDMDL