MODEL 1
REMARK VINA RESULT: -8.625891245      0.000      0.000
REMARK  11 active torsions:
REMARK  status: ('A' for Active; 'I' for Inactive)
REMARK       I    between atoms: C1_2  and  N2_4
REMARK    1  A    between atoms: N2_4  and  C2_6
REMARK    2  A    between atoms: C2_6  and  C3_7
REMARK    3  A    between atoms: C2_6  and  N3_12
REMARK    4  A    between atoms: C3_7  and  C4_8
REMARK    5  A    between atoms: C4_8  and  C5_9
REMARK       I    between atoms: N3_12  and  C6_14
REMARK    6  A    between atoms: C6_14  and  C7_16
REMARK    7  A    between atoms: C7_16  and  N4_17
REMARK    8  A    between atoms: C7_16  and  N5_21
REMARK    9  A    between atoms: N5_21  and  C8_23
REMARK   10  A    between atoms: C8_23  and  O5_24
REMARK   11  A    between atoms: C8_23  and  C9_26
ROOT
HETATM    1  C7  UNL     1      16.097  81.203  26.199  1.00  0.00     0.372 C
ENDROOT
BRANCH   1   2
HETATM    2  C6  UNL     1      15.544  79.886  25.890  1.00  0.00     0.269 C
HETATM    3  N3  UNL     1      14.845  79.139  26.919  1.00  0.00    -0.337 N
ATOM      4  H3  UNL     1      14.747  79.547  27.848  1.00  0.00     0.164 HD
HETATM    5  O4  UNL     1      15.625  79.334  24.785  1.00  0.00    -0.269 OA
BRANCH   3   6
HETATM    6  C2  UNL     1      14.289  77.844  26.662  1.00  0.00     0.188 C
BRANCH   6   7
HETATM    7  N2  UNL     1      15.431  77.015  26.257  1.00  0.00    -0.324 N
HETATM    8  C1  UNL     1      16.401  76.510  27.125  1.00  0.00     0.330 C
HETATM    9  N1  UNL     1      17.461  75.723  26.649  1.00  0.00    -0.040 NA
HETATM   10  O1  UNL     1      16.355  76.748  28.371  1.00  0.00    -0.251 OA
ATOM     11  H2  UNL     1      15.522  76.789  25.266  1.00  0.00     0.166 HD
ENDBRANCH   6   7
BRANCH   6  12
HETATM   12  C3  UNL     1      13.212  77.829  25.668  1.00  0.00     0.057 C
BRANCH  12  13
HETATM   13  C4  UNL     1      11.863  78.294  26.050  1.00  0.00     0.117 C
BRANCH  13  14
HETATM   14  C5  UNL     1      11.524  79.696  26.075  1.00  0.00     0.172 C
HETATM   15  O2  UNL     1      12.255  80.676  26.321  1.00  0.00    -0.648 OA
HETATM   16  O3  UNL     1      10.177  80.073  25.788  1.00  0.00    -0.648 OA
ENDBRANCH  13  14
ENDBRANCH  12  13
ENDBRANCH   6  12
ENDBRANCH   3   6
ENDBRANCH   1   2
BRANCH   1  17
HETATM   17  N4  UNL     1      14.987  82.048  26.659  1.00  0.00    -0.050 N
ATOM     18  H43 UNL     1      14.230  82.119  25.977  1.00  0.00     0.277 HD
ATOM     19  H42 UNL     1      14.447  81.623  27.412  1.00  0.00     0.277 HD
ATOM     20  H41 UNL     1      15.379  82.955  26.913  1.00  0.00     0.277 HD
ENDBRANCH   1  17
BRANCH   1  21
HETATM   21  N5  UNL     1      16.874  81.805  25.209  1.00  0.00    -0.358 N
ATOM     22  H5  UNL     1      17.889  81.786  25.311  1.00  0.00     0.158 HD
BRANCH  21  23
HETATM   23  C8  UNL     1      16.331  82.432  24.083  1.00  0.00     0.268 C
BRANCH  23  24
HETATM   24  O5  UNL     1      16.087  81.727  22.947  1.00  0.00    -0.371 OA
ATOM     25  H5  UNL     1      15.239  81.773  22.522  1.00  0.00     0.212 HD
ENDBRANCH  23  24
BRANCH  23  26
HETATM   26  C9  UNL     1      17.262  83.572  23.721  1.00  0.00     0.074 A
HETATM   27  C10 UNL     1      17.233  84.852  24.209  1.00  0.00     0.118 A
HETATM   28  N6  UNL     1      18.245  85.540  23.616  1.00  0.00    -0.360 N
HETATM   29  C11 UNL     1      18.876  84.697  22.784  1.00  0.00     0.180 A
ATOM     30  H6  UNL     1      18.481  86.520  23.774  1.00  0.00     0.166 HD
HETATM   31  N7  UNL     1      18.268  83.493  22.852  1.00  0.00    -0.351 N
ATOM     32  H7  UNL     1      18.536  82.661  22.326  1.00  0.00     0.166 HD
ENDBRANCH  23  26
ENDBRANCH  21  23
ENDBRANCH   1  21
TORSDOF 11
ENDMDL