MODEL 3
REMARK VINA RESULT: -7.839104142      1.688      2.037
REMARK  12 active torsions:
REMARK  status: ('A' for Active; 'I' for Inactive)
REMARK    1  A    between atoms: C2_2  and  N1_3
REMARK    2  A    between atoms: C2_2  and  C3_7
REMARK       I    between atoms: C3_7  and  N2_9
REMARK    3  A    between atoms: N2_9  and  C4_11
REMARK    4  A    between atoms: C4_11  and  N3_12
REMARK    5  A    between atoms: C4_11  and  C5_16
REMARK    6  A    between atoms: C5_16  and  N4_17
REMARK    7  A    between atoms: N4_17  and  C6_19
REMARK    8  A    between atoms: C6_19  and  C7_20
REMARK    9  A    between atoms: C6_19  and  C8_23
REMARK   10  A    between atoms: C8_23  and  N5_24
REMARK   11  A    between atoms: C8_23  and  C9_28
REMARK   12  A    between atoms: C14_33  and  O4_34
ROOT
HETATM    1  N4  UNL     1      16.134  80.666  25.303  1.00  0.00    -0.383 N
ATOM      2  H4  UNL     1      17.147  80.662  25.424  1.00  0.00     0.159 HD
ENDROOT
BRANCH   1   3
HETATM    3  C5  UNL     1      15.518  81.693  24.559  1.00  0.00     0.110 C
BRANCH   3   4
HETATM    4  C4  UNL     1      15.955  83.106  24.864  1.00  0.00     0.323 C
BRANCH   4   5
HETATM    5  N2  UNL     1      17.178  83.355  24.109  1.00  0.00    -0.328 N
HETATM    6  C3  UNL     1      17.603  84.690  23.907  1.00  0.00     0.249 C
HETATM    7  O1  UNL     1      16.905  85.614  24.389  1.00  0.00    -0.271 OA
ATOM      8  H2  UNL     1      17.720  82.577  23.733  1.00  0.00     0.164 HD
BRANCH   6   9
HETATM    9  C2  UNL     1      18.821  85.049  23.160  1.00  0.00     0.270 C
HETATM   10  C1  UNL     1      18.834  86.492  22.705  1.00  0.00     0.050 C
BRANCH   9  11
HETATM   11  N1  UNL     1      18.949  84.198  21.997  1.00  0.00    -0.067 N
ATOM     12  H13 UNL     1      19.823  84.351  21.494  1.00  0.00     0.275 HD
ATOM     13  H12 UNL     1      19.099  83.220  22.244  1.00  0.00     0.275 HD
ATOM     14  H11 UNL     1      18.129  84.330  21.405  1.00  0.00     0.275 HD
ENDBRANCH   9  11
ENDBRANCH   6   9
ENDBRANCH   4   5
BRANCH   4  15
HETATM   15  N3  UNL     1      16.336  83.309  26.249  1.00  0.00    -0.054 N
ATOM     16  H33 UNL     1      17.120  82.731  26.554  1.00  0.00     0.277 HD
ATOM     17  H32 UNL     1      16.781  84.208  26.432  1.00  0.00     0.277 HD
ATOM     18  H31 UNL     1      15.476  83.155  26.776  1.00  0.00     0.277 HD
ENDBRANCH   4  15
ENDBRANCH   3   4
ENDBRANCH   1   3
BRANCH   1  19
HETATM   19  C6  UNL     1      15.348  79.640  25.884  1.00  0.00     0.217 C
BRANCH  19  20
HETATM   20  C7  UNL     1      16.025  78.878  26.949  1.00  0.00     0.199 C
HETATM   21  O2  UNL     1      17.242  79.027  27.140  1.00  0.00    -0.646 OA
HETATM   22  O3  UNL     1      15.319  78.003  27.735  1.00  0.00    -0.646 OA
ENDBRANCH  19  20
BRANCH  19  23
HETATM   23  C8  UNL     1      15.008  78.560  24.821  1.00  0.00     0.252 C
BRANCH  23  24
HETATM   24  N5  UNL     1      15.972  77.490  25.058  1.00  0.00    -0.068 N
ATOM     25  H53 UNL     1      16.157  76.909  24.241  1.00  0.00     0.275 HD
ATOM     26  H52 UNL     1      16.930  77.815  25.187  1.00  0.00     0.275 HD
ATOM     27  H51 UNL     1      15.597  76.976  25.857  1.00  0.00     0.275 HD
ENDBRANCH  23  24
BRANCH  23  28
HETATM   28  C9  UNL     1      13.635  78.088  24.899  1.00  0.00     0.008 A
HETATM   29  C10 UNL     1      12.675  78.741  25.623  1.00  0.00     0.012 A
HETATM   30  C11 UNL     1      11.361  78.257  25.696  1.00  0.00     0.001 A
HETATM   31  C12 UNL     1      11.018  77.111  25.037  1.00  0.00     0.003 A
HETATM   32  C13 UNL     1      11.974  76.444  24.307  1.00  0.00     0.037 A
HETATM   33  C14 UNL     1      13.274  76.932  24.240  1.00  0.00     0.074 A
BRANCH  33  34
HETATM   34  O4  UNL     1      14.180  76.201  23.483  1.00  0.00    -0.360 OA
ATOM     35  H4  UNL     1      14.850  75.660  23.882  1.00  0.00     0.217 HD
ENDBRANCH  33  34
ENDBRANCH  23  28
ENDBRANCH  19  23
ENDBRANCH   1  19
TORSDOF 12
ENDMDL