MODEL 2
REMARK VINA RESULT: -7.273025441      3.109      6.265
REMARK  7 active torsions:
REMARK  status: ('A' for Active; 'I' for Inactive)
REMARK    1  A    between atoms: O1_2  and  C2_3
REMARK    2  A    between atoms: C2_3  and  N2_7
REMARK    3  A    between atoms: N2_7  and  C3_9
REMARK    4  A    between atoms: C4_10  and  C5_11
REMARK    5  A    between atoms: C6_14  and  S1_15
REMARK    6  A    between atoms: S1_15  and  C7_16
REMARK    7  A    between atoms: C8_20  and  N4_21
ROOT
HETATM    1  C3  UNL     1      13.061  76.942  25.465  1.00  0.00     0.121 C
HETATM    2  C4  UNL     1      12.193  77.707  24.844  1.00  0.00     0.095 C
HETATM    3  C6  UNL     1      12.157  78.705  25.900  1.00  0.00     0.193 C
HETATM    4  N5  UNL     1      12.894  77.670  26.675  1.00  0.00    -0.358 N
ATOM      5  H5  UNL     1      13.162  77.540  27.651  1.00  0.00     0.162 HD
ENDROOT
BRANCH   3   6
HETATM    6  S1  UNL     1      13.172  80.185  25.768  1.00  0.00    -0.079 SA
BRANCH   6   7
HETATM    7  C7  UNL     1      14.863  79.980  25.317  1.00  0.00     0.396 C
HETATM    8  N3  UNL     1      15.845  80.941  25.740  1.00  0.00     0.013 N
HETATM    9  C8  UNL     1      15.977  80.112  26.907  1.00  0.00     0.528 C
ATOM     10  H32 UNL     1      16.645  81.191  25.159  1.00  0.00     0.286 HD
ATOM     11  H31 UNL     1      15.637  81.937  25.803  1.00  0.00     0.286 HD
HETATM   12  O4  UNL     1      15.491  79.045  26.180  1.00  0.00    -0.296 OA
BRANCH   9  13
HETATM   13  N4  UNL     1      17.373  79.889  27.318  1.00  0.00    -0.027 N
ATOM     14  H43 UNL     1      17.473  78.984  27.779  1.00  0.00     0.279 HD
ATOM     15  H42 UNL     1      17.968  79.733  26.505  1.00  0.00     0.279 HD
ATOM     16  H41 UNL     1      17.751  80.634  27.903  1.00  0.00     0.279 HD
ENDBRANCH   9  13
ENDBRANCH   6   7
ENDBRANCH   3   6
BRANCH   2  17
HETATM   17  C5  UNL     1      11.594  77.618  23.522  1.00  0.00     0.212 C
HETATM   18  O2  UNL     1      10.744  78.464  23.124  1.00  0.00    -0.644 OA
HETATM   19  O3  UNL     1      11.920  76.604  22.614  1.00  0.00    -0.644 OA
ENDBRANCH   2  17
BRANCH   1  20
HETATM   20  N2  UNL     1      13.829  75.755  25.244  1.00  0.00    -0.308 N
ATOM     21  H2  UNL     1      13.532  74.878  25.673  1.00  0.00     0.171 HD
BRANCH  20  22
HETATM   22  C2  UNL     1      14.999  75.776  24.438  1.00  0.00     0.218 C
HETATM   23  N1  UNL     1      15.688  76.843  24.395  1.00  0.00    -0.365 N
ATOM     24  H12 UNL     1      16.527  76.858  23.816  1.00  0.00     0.159 HD
ATOM     25  H11 UNL     1      15.368  77.639  24.946  1.00  0.00     0.159 HD
BRANCH  22  26
HETATM   26  O1  UNL     1      15.436  74.692  23.689  1.00  0.00    -0.327 OA
HETATM   27  C1  UNL     1      16.661  74.023  24.035  1.00  0.00     0.213 C
ENDBRANCH  22  26
ENDBRANCH  20  22
ENDBRANCH   1  20
TORSDOF 7
ENDMDL