MODEL 5
REMARK VINA RESULT: -7.362995540      1.577      1.893
REMARK  7 active torsions:
REMARK  status: ('A' for Active; 'I' for Inactive)
REMARK    1  A    between atoms: N1_1  and  C1_4
REMARK    2  A    between atoms: C2_7  and  C3_8
REMARK    3  A    between atoms: C3_8  and  N3_9
REMARK    4  A    between atoms: C3_8  and  N4_13
REMARK    5  A    between atoms: N4_13  and  C4_15
REMARK    6  A    between atoms: C5_18  and  N6_19
REMARK    7  A    between atoms: C6_23  and  C7_24
ROOT
HETATM    1  C3  UNL     1      17.266  76.124  28.554  1.00  0.00     0.361 C
ENDROOT
BRANCH   1   2
HETATM    2  C2  UNL     1      18.204  75.357  27.686  1.00  0.00     0.212 A
HETATM    3  N2  UNL     1      17.832  74.491  26.733  1.00  0.00    -0.167 N
HETATM    4  C1  UNL     1      18.980  74.028  26.199  1.00  0.00     0.698 A
ATOM      5  H2  UNL     1      16.880  74.236  26.467  1.00  0.00     0.186 HD
HETATM    6  N8  UNL     1      19.989  74.629  26.848  1.00  0.00    -0.090 N
HETATM    7  O2  UNL     1      19.497  75.441  27.757  1.00  0.00    -0.205 OA
ATOM      8  H8  UNL     1      20.981  74.479  26.664  1.00  0.00     0.213 HD
BRANCH   4   9
HETATM    9  N1  UNL     1      19.047  73.158  25.233  1.00  0.00    -0.233 N
ATOM     10  H12 UNL     1      18.297  72.587  24.844  1.00  0.00     0.174 HD
ATOM     11  H11 UNL     1      19.899  72.928  24.720  1.00  0.00     0.174 HD
ENDBRANCH   4   9
ENDBRANCH   1   2
BRANCH   1  12
HETATM   12  N3  UNL     1      17.070  75.389  29.803  1.00  0.00    -0.051 N
ATOM     13  H33 UNL     1      17.604  74.520  29.830  1.00  0.00     0.277 HD
ATOM     14  H32 UNL     1      17.509  75.850  30.599  1.00  0.00     0.277 HD
ATOM     15  H31 UNL     1      16.071  75.237  29.942  1.00  0.00     0.277 HD
ENDBRANCH   1  12
BRANCH   1  16
HETATM   16  N4  UNL     1      16.001  76.238  27.860  1.00  0.00    -0.341 N
ATOM     17  H4  UNL     1      15.280  75.537  28.027  1.00  0.00     0.163 HD
BRANCH  16  18
HETATM   18  C4  UNL     1      15.728  77.325  26.928  1.00  0.00     0.127 A
HETATM   19  N5  UNL     1      15.996  78.565  27.231  1.00  0.00    -0.322 N
HETATM   20  C5  UNL     1      15.732  79.520  26.341  1.00  0.00     0.144 A
ATOM     21  H5  UNL     1      16.402  78.800  28.137  1.00  0.00     0.169 HD
HETATM   22  S1  UNL     1      15.086  78.657  25.026  1.00  0.00    -0.045 SA
HETATM   23  C6  UNL     1      15.187  77.064  25.703  1.00  0.00     0.117 A
BRANCH  20  24
HETATM   24  N6  UNL     1      15.937  80.816  26.479  1.00  0.00    -0.380 N
ATOM     25  H62 UNL     1      16.621  81.310  27.053  1.00  0.00     0.158 HD
ATOM     26  H61 UNL     1      15.429  81.572  26.021  1.00  0.00     0.158 HD
ENDBRANCH  20  24
BRANCH  23  27
HETATM   27  C7  UNL     1      14.766  75.841  25.030  1.00  0.00     0.275 C
HETATM   28  N7  UNL     1      13.764  75.907  23.998  1.00  0.00    -0.057 NA
HETATM   29  O1  UNL     1      15.231  74.721  25.299  1.00  0.00    -0.270 OA
ENDBRANCH  23  27
ENDBRANCH  16  18
ENDBRANCH   1  16
TORSDOF 7
ENDMDL