MODEL 5
REMARK VINA RESULT: -7.431603954      3.332      5.529
REMARK  7 active torsions:
REMARK  status: ('A' for Active; 'I' for Inactive)
REMARK    1  A    between atoms: N1_1  and  C1_4
REMARK    2  A    between atoms: C3_9  and  N4_10
REMARK       I    between atoms: N4_10  and  C4_12
REMARK    3  A    between atoms: C4_12  and  C5_14
REMARK    4  A    between atoms: N5_15  and  N6_17
REMARK    5  A    between atoms: C6_19  and  C7_20
REMARK    6  A    between atoms: C7_20  and  O3_22
REMARK    7  A    between atoms: O3_22  and  N7_23
ROOT
HETATM    1  N4  UNL     1      17.048  77.001  27.042  1.00  0.00    -0.315 N
ATOM      2  H4  UNL     1      17.805  77.472  26.547  1.00  0.00     0.169 HD
HETATM    3  C4  UNL     1      17.293  76.496  28.342  1.00  0.00     0.263 C
HETATM    4  O1  UNL     1      16.345  75.918  28.934  1.00  0.00    -0.267 OA
ENDROOT
BRANCH   1   5
HETATM    5  C3  UNL     1      15.793  76.874  26.405  1.00  0.00     0.146 A
HETATM    6  C2  UNL     1      14.824  77.847  26.629  1.00  0.00     0.164 A
HETATM    7  N2  UNL     1      13.646  77.692  26.008  1.00  0.00    -0.177 N
HETATM    8  N3  UNL     1      15.077  78.968  27.489  1.00  0.00    -0.080 NA
HETATM    9  C1  UNL     1      13.356  76.663  25.193  1.00  0.00     0.680 A
ATOM     10  H2  UNL     1      12.927  78.398  26.163  1.00  0.00     0.185 HD
HETATM   11  N8  UNL     1      14.278  75.704  24.957  1.00  0.00    -0.154 N
HETATM   12  C8  UNL     1      15.471  75.832  25.567  1.00  0.00     0.289 A
ATOM     13  H8  UNL     1      14.079  74.915  24.343  1.00  0.00     0.187 HD
HETATM   14  O4  UNL     1      16.351  74.946  25.362  1.00  0.00    -0.265 OA
BRANCH   9  15
HETATM   15  N1  UNL     1      12.200  76.542  24.603  1.00  0.00    -0.234 N
ATOM     16  H12 UNL     1      12.175  76.652  23.589  1.00  0.00     0.174 HD
ATOM     17  H11 UNL     1      11.341  76.346  25.117  1.00  0.00     0.174 HD
ENDBRANCH   9  15
ENDBRANCH   1   5
BRANCH   3  18
HETATM   18  C5  UNL     1      18.571  76.615  29.013  1.00  0.00     0.181 C
HETATM   19  N5  UNL     1      18.820  76.107  30.153  1.00  0.00    -0.307 N
ATOM     20  H5  UNL     1      19.755  76.250  30.534  1.00  0.00     0.186 HD
BRANCH  19  21
HETATM   21  N6  UNL     1      17.932  75.380  30.916  1.00  0.00    -0.306 N
HETATM   22  C6  UNL     1      17.612  75.692  32.109  1.00  0.00     0.191 C
ATOM     23  H6  UNL     1      17.509  74.548  30.504  1.00  0.00     0.186 HD
BRANCH  22  24
HETATM   24  C7  UNL     1      18.184  76.867  32.745  1.00  0.00     0.321 C
HETATM   25  O2  UNL     1      19.424  76.926  33.001  1.00  0.00    -0.257 OA
BRANCH  24  26
HETATM   26  O3  UNL     1      17.378  77.945  33.082  1.00  0.00    -0.202 OA
BRANCH  26  27
HETATM   27  N7  UNL     1      17.736  78.711  34.144  1.00  0.00    -0.302 N
ATOM     28  H72 UNL     1      18.665  79.131  34.177  1.00  0.00     0.184 HD
ATOM     29  H71 UNL     1      17.057  78.851  34.893  1.00  0.00     0.184 HD
ENDBRANCH  26  27
ENDBRANCH  24  26
ENDBRANCH  22  24
ENDBRANCH  19  21
ENDBRANCH   3  18
TORSDOF 7
ENDMDL