MODEL 5
REMARK VINA RESULT: -6.980418229      1.544      2.332
REMARK  12 active torsions:
REMARK  status: ('A' for Active; 'I' for Inactive)
REMARK    1  A    between atoms: C2_2  and  N1_3
REMARK    2  A    between atoms: N1_3  and  C3_4
REMARK    3  A    between atoms: N1_3  and  N2_6
REMARK    4  A    between atoms: N2_6  and  C5_8
REMARK    5  A    between atoms: C5_8  and  O1_9
REMARK    6  A    between atoms: C5_8  and  N3_11
REMARK    7  A    between atoms: N3_11  and  C6_13
REMARK    8  A    between atoms: C6_13  and  O2_14
REMARK    9  A    between atoms: C6_13  and  N4_16
REMARK   10  A    between atoms: N4_16  and  C7_18
REMARK   11  A    between atoms: C8_21  and  N6_22
REMARK   12  A    between atoms: N6_22  and  N7_23
ROOT
HETATM    1  C6  UNL     1      18.731  74.571  27.016  1.00  0.00     0.227 C
ENDROOT
BRANCH   1   2
HETATM    2  N3  UNL     1      18.327  75.726  27.647  1.00  0.00    -0.287 N
ATOM      3  H3  UNL     1      19.075  76.162  28.186  1.00  0.00     0.173 HD
BRANCH   2   4
HETATM    4  C5  UNL     1      17.133  76.434  27.717  1.00  0.00     0.239 C
BRANCH   4   5
HETATM    5  N2  UNL     1      16.637  77.458  26.907  1.00  0.00    -0.267 N
ATOM      6  H2  UNL     1      17.284  78.073  26.413  1.00  0.00     0.190 HD
BRANCH   5   7
HETATM    7  N1  UNL     1      15.253  77.645  26.768  1.00  0.00    -0.326 N
BRANCH   7   8
HETATM    8  C2  UNL     1      14.797  78.969  26.966  1.00  0.00     0.138 C
HETATM    9  C1  UNL     1      15.975  79.912  26.781  1.00  0.00     0.028 C
ENDBRANCH   7   8
BRANCH   7  10
HETATM   10  C3  UNL     1      14.676  76.886  25.726  1.00  0.00     0.138 C
HETATM   11  C4  UNL     1      14.942  77.373  24.332  1.00  0.00     0.028 C
ENDBRANCH   7  10
ENDBRANCH   5   7
ENDBRANCH   4   5
BRANCH   4  12
HETATM   12  O1  UNL     1      16.320  76.116  28.693  1.00  0.00    -0.331 OA
ATOM     13  H1  UNL     1      15.660  75.483  28.434  1.00  0.00     0.221 HD
ENDBRANCH   4  12
ENDBRANCH   2   4
ENDBRANCH   1   2
BRANCH   1  14
HETATM   14  O2  UNL     1      20.028  74.517  26.799  1.00  0.00    -0.332 OA
ATOM     15  H2  UNL     1      20.496  75.279  27.120  1.00  0.00     0.221 HD
ENDBRANCH   1  14
BRANCH   1  16
HETATM   16  N4  UNL     1      17.978  73.464  26.581  1.00  0.00    -0.293 N
ATOM     17  H4  UNL     1      17.362  72.991  27.243  1.00  0.00     0.172 HD
BRANCH  16  18
HETATM   18  C7  UNL     1      18.053  72.986  25.233  1.00  0.00     0.196 C
HETATM   19  N5  UNL     1      17.054  73.181  24.370  1.00  0.00    -0.327 N
HETATM   20  C8  UNL     1      17.385  72.606  23.104  1.00  0.00     0.313 C
ATOM     21  H5  UNL     1      16.183  73.668  24.582  1.00  0.00     0.165 HD
HETATM   22  N8  UNL     1      18.611  71.861  23.299  1.00  0.00    -0.094 NA
HETATM   23  N9  UNL     1      19.075  72.299  24.574  1.00  0.00    -0.272 N
ATOM     24  H9  UNL     1      20.010  72.135  24.948  1.00  0.00     0.185 HD
BRANCH  20  25
HETATM   25  N6  UNL     1      17.615  73.613  22.084  1.00  0.00    -0.103 NA
BRANCH  25  26
HETATM   26  N7  UNL     1      17.487  72.999  20.834  1.00  0.00    -0.345 N
ATOM     27  H72 UNL     1      17.272  72.013  20.682  1.00  0.00     0.172 HD
ATOM     28  H71 UNL     1      17.646  73.706  20.117  1.00  0.00     0.172 HD
ENDBRANCH  25  26
ENDBRANCH  20  25
ENDBRANCH  16  18
ENDBRANCH   1  16
TORSDOF 12
ENDMDL