MODEL 1
REMARK VINA RESULT: -7.856181916      0.000      0.000
REMARK  6 active torsions:
REMARK  status: ('A' for Active; 'I' for Inactive)
REMARK       I    between atoms: N1_1  and  C1_4
REMARK       I    between atoms: C1_4  and  N2_5
REMARK       I    between atoms: C1_4  and  N9_25
REMARK    1  A    between atoms: N2_5  and  N3_7
REMARK    2  A    between atoms: N3_7  and  C2_9
REMARK    3  A    between atoms: C2_9  and  C3_10
REMARK    4  A    between atoms: N6_16  and  N7_18
REMARK    5  A    between atoms: C5_21  and  N8_22
REMARK    6  A    between atoms: N9_25  and  N10_27
ROOT
HETATM    1  C3  UNL     1      17.880  75.349  26.768  1.00  0.00     0.102 A
HETATM    2  N4  UNL     1      19.013  74.892  27.316  1.00  0.00    -0.295 N
ATOM      3  H4  UNL     1      19.525  75.370  28.058  1.00  0.00     0.187 HD
HETATM    4  N5  UNL     1      19.384  73.744  26.777  1.00  0.00    -0.282 N
ATOM      5  H5  UNL     1      20.213  73.204  27.027  1.00  0.00     0.188 HD
HETATM    6  C4  UNL     1      18.476  73.415  25.836  1.00  0.00     0.170 A
HETATM    7  N6  UNL     1      18.562  72.348  25.137  1.00  0.00    -0.289 N
ATOM      8  H6  UNL     1      19.362  71.742  25.320  1.00  0.00     0.188 HD
HETATM    9  C5  UNL     1      17.520  74.413  25.815  1.00  0.00     0.178 A
ENDROOT
BRANCH   1  10
HETATM   10  C2  UNL     1      17.147  76.579  27.082  1.00  0.00     0.141 C
BRANCH  10  11
HETATM   11  N3  UNL     1      15.921  76.573  27.456  1.00  0.00    -0.295 N
ATOM     12  H3  UNL     1      15.651  76.084  28.310  1.00  0.00     0.186 HD
BRANCH  11  13
HETATM   13  N2  UNL     1      14.960  77.232  26.701  1.00  0.00    -0.131 N
HETATM   14  C1  UNL     1      15.393  77.959  25.568  1.00  0.00     0.709 C
HETATM   15  N1  UNL     1      15.373  77.467  24.366  1.00  0.00    -0.232 N
HETATM   16  N9  UNL     1      15.872  79.282  25.769  1.00  0.00    -0.071 N
ATOM     17  H12 UNL     1      15.030  76.518  24.221  1.00  0.00     0.174 HD
ATOM     18  H11 UNL     1      15.686  77.992  23.549  1.00  0.00     0.174 HD
ATOM     19  H9  UNL     1      16.645  79.466  26.408  1.00  0.00     0.212 HD
ATOM     20  H2  UNL     1      13.973  77.193  26.955  1.00  0.00     0.205 HD
BRANCH  16  21
HETATM   21  N10 UNL     1      15.260  80.313  25.077  1.00  0.00    -0.024 N
HETATM   22  O3  UNL     1      15.923  81.292  24.722  1.00  0.00    -0.516 OA
HETATM   23  O4  UNL     1      13.928  80.246  24.791  1.00  0.00    -0.516 OA
ENDBRANCH  16  21
ENDBRANCH  11  13
ENDBRANCH  10  11
ENDBRANCH   1  10
BRANCH   9  24
HETATM   24  N8  UNL     1      16.392  74.460  24.973  1.00  0.00    -0.109 N
HETATM   25  O1  UNL     1      15.264  74.348  25.463  1.00  0.00    -0.532 OA
HETATM   26  O2  UNL     1      16.563  74.623  23.631  1.00  0.00    -0.532 OA
ENDBRANCH   9  24
BRANCH   7  27
HETATM   27  N7  UNL     1      17.678  71.932  24.155  1.00  0.00    -0.344 N
ATOM     28  H72 UNL     1      16.946  72.598  23.911  1.00  0.00     0.176 HD
ATOM     29  H71 UNL     1      17.693  71.038  23.665  1.00  0.00     0.176 HD
ENDBRANCH   7  27
TORSDOF 6
ENDMDL