MODEL 2
REMARK VINA RESULT: -7.050994782      3.299      5.247
REMARK  9 active torsions:
REMARK  status: ('A' for Active; 'I' for Inactive)
REMARK    1  A    between atoms: O1_2  and  C2_3
REMARK    2  A    between atoms: C2_3  and  C3_9
REMARK    3  A    between atoms: N1_4  and  N2_6
REMARK    4  A    between atoms: C4_10  and  N3_11
REMARK    5  A    between atoms: N3_11  and  O2_12
REMARK    6  A    between atoms: N4_14  and  O3_15
REMARK    7  A    between atoms: C5_17  and  S1_18
REMARK    8  A    between atoms: S1_18  and  S2_19
REMARK    9  A    between atoms: S2_19  and  C6_20
ROOT
HETATM    1  C3  UNL     1      14.884  78.293  25.886  1.00  0.00     0.130 C
HETATM    2  C4  UNL     1      15.940  78.516  26.951  1.00  0.00     0.221 C
HETATM    3  N4  UNL     1      16.744  77.553  26.224  1.00  0.00    -0.161 NA
HETATM    4  C5  UNL     1      15.477  76.895  25.895  1.00  0.00     0.175 C
ENDROOT
BRANCH   1   5
HETATM    5  C2  UNL     1      13.524  78.418  26.395  1.00  0.00     0.141 C
HETATM    6  N1  UNL     1      13.056  79.581  26.688  1.00  0.00    -0.290 N
ATOM      7  H1  UNL     1      12.100  79.629  27.040  1.00  0.00     0.188 HD
BRANCH   5   8
HETATM    8  O1  UNL     1      12.718  77.325  26.573  1.00  0.00    -0.343 OA
HETATM    9  C1  UNL     1      11.421  77.242  25.990  1.00  0.00     0.211 C
ENDBRANCH   5   8
BRANCH   6  10
HETATM   10  N2  UNL     1      13.750  80.770  26.560  1.00  0.00    -0.343 N
ATOM     11  H22 UNL     1      14.656  80.819  27.026  1.00  0.00     0.176 HD
ATOM     12  H21 UNL     1      13.423  81.586  26.042  1.00  0.00     0.176 HD
ENDBRANCH   6  10
ENDBRANCH   1   5
BRANCH   2  13
HETATM   13  N3  UNL     1      16.471  79.854  27.003  1.00  0.00    -0.080 NA
BRANCH  13  14
HETATM   14  O2  UNL     1      17.668  79.778  27.651  1.00  0.00    -0.294 OA
ATOM     15  H2  UNL     1      17.943  80.671  27.825  1.00  0.00     0.238 HD
ENDBRANCH  13  14
ENDBRANCH   2  13
BRANCH   4  16
HETATM   16  S1  UNL     1      15.552  76.018  24.399  1.00  0.00    -0.067 SA
BRANCH  16  17
HETATM   17  S2  UNL     1      16.245  74.124  25.033  1.00  0.00    -0.023 SA
BRANCH  17  18
HETATM   18  C6  UNL     1      17.291  73.642  23.772  1.00  0.00     0.158 C
HETATM   19  N5  UNL     1      17.421  72.375  23.465  1.00  0.00    -0.382 N
ATOM     20  H52 UNL     1      16.866  71.724  24.020  1.00  0.00     0.157 HD
ATOM     21  H51 UNL     1      18.045  72.087  22.711  1.00  0.00     0.157 HD
HETATM   22  N6  UNL     1      18.063  74.549  23.000  1.00  0.00    -0.074 NA
ENDBRANCH  17  18
ENDBRANCH  16  17
ENDBRANCH   4  16
BRANCH   3  23
HETATM   23  O3  UNL     1      17.579  76.810  26.971  1.00  0.00    -0.310 OA
ATOM     24  H3  UNL     1      18.303  76.410  26.503  1.00  0.00     0.237 HD
ENDBRANCH   3  23
TORSDOF 9
ENDMDL