MODEL 4
REMARK VINA RESULT: -7.172588593      2.295      3.414
REMARK  9 active torsions:
REMARK  status: ('A' for Active; 'I' for Inactive)
REMARK    1  A    between atoms: C1_4  and  N2_5
REMARK    2  A    between atoms: C1_4  and  O3_26
REMARK    3  A    between atoms: N2_5  and  C2_7
REMARK    4  A    between atoms: C2_7  and  C3_8
REMARK    5  A    between atoms: C2_7  and  C4_15
REMARK       I    between atoms: C3_8  and  N3_10
REMARK    6  A    between atoms: N3_10  and  N4_12
REMARK    7  A    between atoms: C4_15  and  C5_17
REMARK    8  A    between atoms: C7_20  and  N5_21
REMARK    9  A    between atoms: O3_26  and  N7_27
ROOT
HETATM    1  C2  UNL     1      15.842  77.296  27.130  1.00  0.00     0.255 C
ENDROOT
BRANCH   1   2
HETATM    2  N2  UNL     1      15.931  76.936  25.719  1.00  0.00    -0.335 N
ATOM      3  H2  UNL     1      16.737  77.276  25.194  1.00  0.00     0.164 HD
BRANCH   2   4
HETATM    4  C1  UNL     1      14.991  76.156  25.032  1.00  0.00     0.237 C
HETATM    5  N1  UNL     1      13.767  76.092  25.394  1.00  0.00    -0.364 N
ATOM      6  H12 UNL     1      13.489  76.649  26.201  1.00  0.00     0.159 HD
ATOM      7  H11 UNL     1      13.083  75.524  24.893  1.00  0.00     0.159 HD
BRANCH   4   8
HETATM    8  O3  UNL     1      15.370  75.396  23.931  1.00  0.00    -0.208 OA
BRANCH   8   9
HETATM    9  N7  UNL     1      16.313  74.402  23.987  1.00  0.00    -0.302 N
ATOM     10  H72 UNL     1      17.289  74.679  23.886  1.00  0.00     0.184 HD
ATOM     11  H71 UNL     1      16.084  73.417  24.124  1.00  0.00     0.184 HD
ENDBRANCH   8   9
ENDBRANCH   4   8
ENDBRANCH   2   4
ENDBRANCH   1   2
BRANCH   1  12
HETATM   12  C3  UNL     1      16.896  76.534  27.822  1.00  0.00     0.266 C
HETATM   13  O1  UNL     1      16.605  76.013  28.910  1.00  0.00    -0.269 OA
HETATM   14  N3  UNL     1      18.208  76.354  27.357  1.00  0.00    -0.275 N
ATOM     15  H3  UNL     1      18.501  76.752  26.465  1.00  0.00     0.189 HD
BRANCH  14  16
HETATM   16  N4  UNL     1      19.130  75.600  28.155  1.00  0.00    -0.343 N
ATOM     17  H42 UNL     1      19.278  74.611  27.954  1.00  0.00     0.176 HD
ATOM     18  H41 UNL     1      19.625  76.070  28.913  1.00  0.00     0.176 HD
ENDBRANCH  14  16
ENDBRANCH   1  12
BRANCH   1  19
HETATM   19  C4  UNL     1      16.322  78.743  27.139  1.00  0.00     0.208 C
HETATM   20  O2  UNL     1      17.351  79.041  27.748  1.00  0.00    -0.288 OA
BRANCH  19  21
HETATM   21  C5  UNL     1      15.546  79.754  26.376  1.00  0.00     0.089 A
HETATM   22  C6  UNL     1      14.198  79.881  26.563  1.00  0.00     0.086 A
HETATM   23  S1  UNL     1      13.755  80.980  25.343  1.00  0.00    -0.064 SA
HETATM   24  C7  UNL     1      15.293  81.222  24.649  1.00  0.00     0.142 A
HETATM   25  N6  UNL     1      16.081  80.469  25.377  1.00  0.00    -0.334 N
ATOM     26  H6  UNL     1      17.082  80.427  25.187  1.00  0.00     0.168 HD
BRANCH  24  27
HETATM   27  N5  UNL     1      15.637  81.946  23.622  1.00  0.00    -0.380 N
ATOM     28  H52 UNL     1      16.080  81.617  22.763  1.00  0.00     0.158 HD
ATOM     29  H51 UNL     1      15.515  82.946  23.460  1.00  0.00     0.158 HD
ENDBRANCH  24  27
ENDBRANCH  19  21
ENDBRANCH   1  19
TORSDOF 9
ENDMDL