MODEL 2
REMARK VINA RESULT: -7.789191574      1.576      5.349
REMARK  8 active torsions:
REMARK  status: ('A' for Active; 'I' for Inactive)
REMARK    1  A    between atoms: C2_2  and  O1_3
REMARK    2  A    between atoms: C2_2  and  N1_5
REMARK    3  A    between atoms: N1_5  and  C3_7
REMARK    4  A    between atoms: C4_10  and  N3_11
REMARK    5  A    between atoms: C5_16  and  N5_17
REMARK    6  A    between atoms: N5_17  and  C6_19
REMARK    7  A    between atoms: C9_24  and  N8_25
REMARK    8  A    between atoms: N8_25  and  O2_27
ROOT
HETATM    1  C3  UNL     1      15.727  77.803  26.807  1.00  0.00     0.151 A
HETATM    2  N2  UNL     1      14.537  77.184  26.761  1.00  0.00    -0.175 N
ATOM      3  H2  UNL     1      14.513  76.165  26.797  1.00  0.00     0.186 HD
HETATM    4  C4  UNL     1      13.370  77.858  26.670  1.00  0.00     0.679 A
HETATM    5  N4  UNL     1      13.349  79.203  26.621  1.00  0.00    -0.175 N
ATOM      6  H4  UNL     1      12.467  79.711  26.553  1.00  0.00     0.186 HD
HETATM    7  C5  UNL     1      14.517  79.858  26.665  1.00  0.00     0.150 A
HETATM    8  C9  UNL     1      15.734  79.181  26.759  1.00  0.00     0.142 A
ENDROOT
BRANCH   7   9
HETATM    9  N5  UNL     1      14.562  81.125  26.622  1.00  0.00    -0.354 N
ATOM     10  H5  UNL     1      15.063  81.606  27.369  1.00  0.00     0.163 HD
BRANCH   9  11
HETATM   11  C6  UNL     1      13.957  81.934  25.593  1.00  0.00     0.194 C
HETATM   12  C7  UNL     1      15.040  82.901  25.111  1.00  0.00     0.061 C
HETATM   13  C8  UNL     1      15.745  81.984  24.118  1.00  0.00     0.133 C
HETATM   14  N6  UNL     1      14.575  81.385  23.460  1.00  0.00    -0.146 NA
HETATM   15  N7  UNL     1      13.682  81.109  24.464  1.00  0.00    -0.123 NA
ENDBRANCH   9  11
ENDBRANCH   7   9
BRANCH   8  16
HETATM   16  N8  UNL     1      16.963  79.885  26.805  1.00  0.00    -0.262 N
ATOM     17  H8  UNL     1      17.204  80.472  26.006  1.00  0.00     0.194 HD
BRANCH  16  18
HETATM   18  O2  UNL     1      17.760  79.838  27.745  1.00  0.00    -0.289 OA
ATOM     19  H2  UNL     1      18.155  80.599  28.153  1.00  0.00     0.244 HD
ENDBRANCH  16  18
ENDBRANCH   8  16
BRANCH   4  20
HETATM   20  N3  UNL     1      12.234  77.238  26.627  1.00  0.00    -0.234 N
ATOM     21  H32 UNL     1      12.252  76.228  26.483  1.00  0.00     0.174 HD
ATOM     22  H31 UNL     1      11.352  77.738  26.730  1.00  0.00     0.174 HD
ENDBRANCH   4  20
BRANCH   1  23
HETATM   23  N1  UNL     1      16.954  77.099  26.902  1.00  0.00    -0.348 N
ATOM     24  H1  UNL     1      17.670  77.260  26.194  1.00  0.00     0.163 HD
BRANCH  23  25
HETATM   25  C2  UNL     1      17.226  76.157  27.971  1.00  0.00     0.215 C
HETATM   26  C1  UNL     1      18.442  76.528  28.761  1.00  0.00     0.063 C
BRANCH  25  27
HETATM   27  O1  UNL     1      16.132  76.242  28.860  1.00  0.00    -0.377 OA
ATOM     28  H1  UNL     1      16.495  76.201  29.736  1.00  0.00     0.212 HD
ENDBRANCH  25  27
ENDBRANCH  23  25
ENDBRANCH   1  23
TORSDOF 8
ENDMDL