MODEL 1
REMARK VINA RESULT: -8.316901338      0.000      0.000
REMARK  7 active torsions:
REMARK  status: ('A' for Active; 'I' for Inactive)
REMARK    1  A    between atoms: O1_2  and  C2_3
REMARK       I    between atoms: C2_3  and  N1_5
REMARK    2  A    between atoms: N1_5  and  C3_7
REMARK    3  A    between atoms: C4_8  and  N2_9
REMARK    4  A    between atoms: N2_9  and  N3_11
REMARK    5  A    between atoms: C5_14  and  O3_15
REMARK       I    between atoms: N5_20  and  C7_22
REMARK       I    between atoms: C7_22  and  N6_23
REMARK       I    between atoms: C7_22  and  N7_27
REMARK    6  A    between atoms: C8_31  and  N8_32
REMARK    7  A    between atoms: N8_32  and  O4_34
ROOT
HETATM    1  C3  UNL     1      14.187  77.226  25.382  1.00  0.00     0.102 A
HETATM    2  C4  UNL     1      12.874  77.326  24.998  1.00  0.00     0.128 A
HETATM    3  C5  UNL     1      12.345  78.562  24.658  1.00  0.00     0.172 A
HETATM    4  N4  UNL     1      13.145  79.654  24.712  1.00  0.00    -0.319 N
ATOM      5  H4  UNL     1      12.757  80.563  24.462  1.00  0.00     0.169 HD
HETATM    6  C6  UNL     1      14.424  79.579  25.083  1.00  0.00     0.137 A
HETATM    7  N5  UNL     1      15.176  80.588  25.138  1.00  0.00    -0.325 N
ATOM      8  H5  UNL     1      16.133  80.400  25.435  1.00  0.00     0.165 HD
HETATM    9  C7  UNL     1      14.887  81.958  24.845  1.00  0.00     0.481 C
HETATM   10  N6  UNL     1      15.187  82.727  26.041  1.00  0.00    -0.033 N
ATOM     11  H61 UNL     1      14.982  83.704  25.832  1.00  0.00     0.278 HD
ATOM     12  H62 UNL     1      16.138  82.582  26.381  1.00  0.00     0.278 HD
ATOM     13  H63 UNL     1      14.698  82.384  26.868  1.00  0.00     0.278 HD
HETATM   14  N7  UNL     1      15.743  82.347  23.737  1.00  0.00    -0.033 N
ATOM     15  H71 UNL     1      15.538  83.324  23.528  1.00  0.00     0.278 HD
ATOM     16  H72 UNL     1      15.651  81.737  22.926  1.00  0.00     0.278 HD
ATOM     17  H73 UNL     1      16.733  82.176  23.917  1.00  0.00     0.278 HD
HETATM   18  C8  UNL     1      14.970  78.351  25.427  1.00  0.00     0.127 A
ENDROOT
BRANCH  18  19
HETATM   19  N8  UNL     1      16.332  78.284  25.819  1.00  0.00    -0.263 N
ATOM     20  H8  UNL     1      17.009  77.730  25.295  1.00  0.00     0.194 HD
BRANCH  19  21
HETATM   21  O4  UNL     1      16.668  78.934  26.836  1.00  0.00    -0.289 OA
ATOM     22  H4  UNL     1      16.090  78.890  27.589  1.00  0.00     0.244 HD
ENDBRANCH  19  21
ENDBRANCH  18  19
BRANCH   3  23
HETATM   23  O3  UNL     1      11.005  78.675  24.265  1.00  0.00    -0.344 OA
ATOM     24  H3  UNL     1      10.741  79.344  23.645  1.00  0.00     0.219 HD
ENDBRANCH   3  23
BRANCH   1  25
HETATM   25  N1  UNL     1      14.699  75.940  25.723  1.00  0.00    -0.298 N
HETATM   26  C2  UNL     1      15.578  75.220  24.896  1.00  0.00     0.364 C
HETATM   27  O2  UNL     1      15.941  75.712  23.807  1.00  0.00    -0.238 OA
ATOM     28  H1  UNL     1      14.415  75.523  26.609  1.00  0.00     0.171 HD
BRANCH  26  29
HETATM   29  O1  UNL     1      16.037  73.980  25.280  1.00  0.00    -0.309 OA
HETATM   30  C1  UNL     1      17.104  73.339  24.594  1.00  0.00     0.215 C
ENDBRANCH  26  29
ENDBRANCH   1  25
BRANCH   2  31
HETATM   31  N2  UNL     1      12.019  76.191  24.938  1.00  0.00    -0.301 N
ATOM     32  H2  UNL     1      12.296  75.364  24.408  1.00  0.00     0.186 HD
BRANCH  31  33
HETATM   33  N3  UNL     1      10.809  76.222  25.607  1.00  0.00    -0.344 N
ATOM     34  H32 UNL     1      10.161  76.991  25.436  1.00  0.00     0.176 HD
ATOM     35  H31 UNL     1      10.583  75.472  26.262  1.00  0.00     0.176 HD
ENDBRANCH  31  33
ENDBRANCH   2  31
TORSDOF 7
ENDMDL