MODEL 3
REMARK VINA RESULT: -7.810126583      4.350     10.161
REMARK  14 active torsions:
REMARK  status: ('A' for Active; 'I' for Inactive)
REMARK    1  A    between atoms: C2_2  and  C4_4
REMARK    2  A    between atoms: N2_14  and  C11_15
REMARK    3  A    between atoms: C11_15  and  C12_16
REMARK    4  A    between atoms: C12_16  and  O1_17
REMARK    5  A    between atoms: O1_17  and  C13_18
REMARK    6  A    between atoms: C13_18  and  C14_19
REMARK    7  A    between atoms: C14_19  and  C15_20
REMARK    8  A    between atoms: C15_20  and  C16_21
REMARK    9  A    between atoms: C16_21  and  C17_22
REMARK   10  A    between atoms: C17_22  and  N3_23
REMARK       I    between atoms: N3_23  and  C18_25
REMARK       I    between atoms: C18_25  and  N5_33
REMARK   11  A    between atoms: N4_26  and  C19_28
REMARK   12  A    between atoms: C19_28  and  C20_29
REMARK   13  A    between atoms: C20_29  and  C21_30
REMARK   14  A    between atoms: C21_30  and  C22_31
ROOT
HETATM    1  C14 UNL     1      10.497   0.231  49.647  1.00  0.00     0.026 C
ENDROOT
BRANCH   1   2
HETATM    2  C13 UNL     1       9.403   0.945  48.903  1.00  0.00     0.167 C
BRANCH   2   3
HETATM    3  O1  UNL     1       8.199   0.355  48.898  1.00  0.00    -0.390 OA
BRANCH   3   4
HETATM    4  C12 UNL     1       7.167   0.853  48.186  1.00  0.00     0.187 C
BRANCH   4   5
HETATM    5  C11 UNL     1       6.036  -0.104  47.888  1.00  0.00     0.156 C
BRANCH   5   6
HETATM    6  N2  UNL     1       5.517  -0.605  49.142  1.00  0.00    -0.332 N
HETATM    7  C4  UNL     1       5.689  -1.866  49.644  1.00  0.00     0.088 A
HETATM    8  N1  UNL     1       5.047  -1.900  50.826  1.00  0.00    -0.344 N
HETATM    9  C5  UNL     1       4.477  -0.725  51.102  1.00  0.00     0.060 A
ATOM     10  H1  UNL     1       5.002  -2.719  51.433  1.00  0.00     0.167 HD
HETATM   11  C6  UNL     1       3.732  -0.288  52.178  1.00  0.00     0.033 A
HETATM   12  C10 UNL     1       4.786   0.100  50.011  1.00  0.00     0.064 A
HETATM   13  C7  UNL     1       3.270   1.013  52.186  1.00  0.00     0.021 A
HETATM   14  C8  UNL     1       3.570   1.844  51.111  1.00  0.00     0.013 A
HETATM   15 BR1  UNL     1       2.912   3.639  51.169  1.00  0.00    -0.051 Br
HETATM   16  C9  UNL     1       4.314   1.409  50.034  1.00  0.00     0.051 A
BRANCH   7  17
HETATM   17  C2  UNL     1       6.448  -2.910  48.948  1.00  0.00     0.045 C
HETATM   18  C1  UNL     1       5.566  -3.866  48.181  1.00  0.00     0.017 C
HETATM   19  C3  UNL     1       7.332  -3.731  49.872  1.00  0.00     0.017 C
ENDBRANCH   7  17
ENDBRANCH   5   6
ENDBRANCH   4   5
ENDBRANCH   3   4
ENDBRANCH   2   3
ENDBRANCH   1   2
BRANCH   1  20
HETATM   20  C15 UNL     1      10.135  -1.240  49.845  1.00  0.00     0.004 C
BRANCH  20  21
HETATM   21  C16 UNL     1      10.775  -2.093  48.786  1.00  0.00     0.020 C
BRANCH  21  22
HETATM   22  C17 UNL     1      12.298  -1.774  48.843  1.00  0.00     0.138 C
BRANCH  22  23
HETATM   23  N3  UNL     1      13.042  -2.968  48.654  1.00  0.00    -0.226 N
HETATM   24  C18 UNL     1      14.398  -3.049  48.365  1.00  0.00     0.682 C
HETATM   25  N4  UNL     1      15.002  -4.232  48.464  1.00  0.00    -0.205 N
HETATM   26  N5  UNL     1      15.246  -1.998  48.010  1.00  0.00    -0.151 N
ATOM     27  H4  UNL     1      15.998  -4.259  48.246  1.00  0.00     0.183 HD
HETATM   28  C23 UNL     1      16.719  -2.149  47.854  1.00  0.00     0.151 C
HETATM   29  C26 UNL     1      15.015  -0.622  47.743  1.00  0.00     0.238 C
HETATM   30  C24 UNL     1      17.238  -0.840  48.373  1.00  0.00     0.030 C
HETATM   31  C25 UNL     1      16.069   0.097  48.549  1.00  0.00     0.105 C
HETATM   32  O2  UNL     1      14.131  -0.138  47.000  1.00  0.00    -0.273 OA
ATOM     33  H3  UNL     1      12.533  -3.848  48.738  1.00  0.00     0.177 HD
BRANCH  25  34
HETATM   34  C19 UNL     1      14.403  -5.446  48.839  1.00  0.00     0.079 C
BRANCH  34  35
HETATM   35  C20 UNL     1      15.404  -6.428  49.441  1.00  0.00     0.046 C
BRANCH  35  36
HETATM   36  C21 UNL     1      15.704  -7.591  48.552  1.00  0.00     0.016 C
BRANCH  36  37
HETATM   37  C22 UNL     1      15.110  -8.871  49.068  1.00  0.00     0.086 C
HETATM   38  S1  UNL     1      15.582  -9.043  50.814  1.00  0.00    -0.098 SA
ENDBRANCH  36  37
ENDBRANCH  35  36
ENDBRANCH  34  35
ENDBRANCH  25  34
ENDBRANCH  22  23
ENDBRANCH  21  22
ENDBRANCH  20  21
ENDBRANCH   1  20
TORSDOF 14
ENDMDL