MODEL 2
REMARK VINA RESULT: -8.214865448      2.081      2.545
REMARK  15 active torsions:
REMARK  status: ('A' for Active; 'I' for Inactive)
REMARK    1  A    between atoms: C2_2  and  C3_3
REMARK    2  A    between atoms: C3_3  and  C4_4
REMARK    3  A    between atoms: C4_4  and  C5_5
REMARK    4  A    between atoms: C5_5  and  C6_6
REMARK    5  A    between atoms: C6_6  and  C7_7
REMARK    6  A    between atoms: C7_7  and  C8_8
REMARK    7  A    between atoms: C8_8  and  C9_9
REMARK    8  A    between atoms: N3_22  and  C15_23
REMARK    9  A    between atoms: C15_23  and  C16_24
REMARK   10  A    between atoms: C16_24  and  C17_25
REMARK   11  A    between atoms: C17_25  and  C18_26
REMARK   12  A    between atoms: C18_26  and  C19_27
REMARK   13  A    between atoms: C19_27  and  C20_28
REMARK   14  A    between atoms: C23_31  and  S1_32
REMARK   15  A    between atoms: S1_32  and  N4_33
ROOT
HETATM    1  C1  UNL     1       4.383  -1.065  50.333  1.00  0.00     0.046 C
HETATM    2  C2  UNL     1       5.286   0.110  50.400  1.00  0.00    -0.054 C
HETATM    3  C10 UNL     1       5.750   0.798  49.372  1.00  0.00     0.069 A
HETATM    4  C11 UNL     1       6.672   1.961  49.538  1.00  0.00     0.096 A
HETATM    5  N1  UNL     1       7.367   2.737  50.375  1.00  0.00    -0.294 N
ATOM      6  H1  UNL     1       7.374   2.623  51.389  1.00  0.00     0.187 HD
HETATM    7  N2  UNL     1       8.054   3.683  49.722  1.00  0.00    -0.265 N
ATOM      8  H2  UNL     1       8.657   4.395  50.135  1.00  0.00     0.190 HD
HETATM    9  C12 UNL     1       7.797   3.511  48.432  1.00  0.00     0.278 A
HETATM   10  O1  UNL     1       8.255   4.201  47.500  1.00  0.00    -0.266 OA
HETATM   11  C13 UNL     1       6.930   2.434  48.278  1.00  0.00     0.132 A
HETATM   12  C14 UNL     1       6.215   1.627  47.300  1.00  0.00     0.266 A
HETATM   13  O2  UNL     1       6.271   1.830  46.063  1.00  0.00    -0.267 OA
HETATM   14  N3  UNL     1       5.474   0.605  47.974  1.00  0.00    -0.311 N
ENDROOT
BRANCH  14  15
HETATM   15  C15 UNL     1       4.631  -0.388  47.347  1.00  0.00     0.133 C
BRANCH  15  16
HETATM   16  C16 UNL     1       5.337  -1.607  46.837  1.00  0.00     0.020 C
BRANCH  16  17
HETATM   17  C17 UNL     1       4.978  -2.920  47.438  1.00  0.00     0.002 C
BRANCH  17  18
HETATM   18  C18 UNL     1       6.152  -3.792  47.796  1.00  0.00     0.005 C
BRANCH  18  19
HETATM   19  C19 UNL     1       6.838  -3.317  49.058  1.00  0.00     0.038 C
BRANCH  19  20
HETATM   20  C20 UNL     1       8.289  -3.087  48.891  1.00  0.00    -0.058 A
HETATM   21  C21 UNL     1       9.054  -3.736  47.947  1.00  0.00     0.009 A
HETATM   22  C22 UNL     1      10.411  -3.510  47.803  1.00  0.00     0.026 A
HETATM   23  C23 UNL     1      11.029  -2.597  48.636  1.00  0.00     0.079 A
HETATM   24  C24 UNL     1      10.298  -1.940  49.579  1.00  0.00     0.026 A
HETATM   25  C25 UNL     1       8.947  -2.176  49.710  1.00  0.00     0.009 A
BRANCH  23  26
HETATM   26  S1  UNL     1      12.751  -2.341  48.419  1.00  0.00     0.256 S
HETATM   27  O3  UNL     1      13.449  -2.841  49.638  1.00  0.00    -0.201 OA
HETATM   28  O4  UNL     1      13.055  -0.884  48.215  1.00  0.00    -0.201 OA
BRANCH  26  29
HETATM   29  N4  UNL     1      13.220  -3.185  46.990  1.00  0.00    -0.324 N
ATOM     30  H42 UNL     1      13.925  -3.920  46.940  1.00  0.00     0.169 HD
ATOM     31  H41 UNL     1      12.665  -2.811  46.220  1.00  0.00     0.169 HD
ENDBRANCH  26  29
ENDBRANCH  23  26
ENDBRANCH  19  20
ENDBRANCH  18  19
ENDBRANCH  17  18
ENDBRANCH  16  17
ENDBRANCH  15  16
ENDBRANCH  14  15
BRANCH   2  32
HETATM   32  C3  UNL     1       5.592   0.532  51.812  1.00  0.00     0.036 C
BRANCH  32  33
HETATM   33  C4  UNL     1       4.401   0.609  52.691  1.00  0.00     0.004 C
BRANCH  33  34
HETATM   34  C5  UNL     1       3.445   1.731  52.396  1.00  0.00     0.000 C
BRANCH  34  35
HETATM   35  C6  UNL     1       2.472   1.881  53.534  1.00  0.00     0.000 C
BRANCH  35  36
HETATM   36  C7  UNL     1       1.046   1.790  53.107  1.00  0.00     0.001 C
BRANCH  36  37
HETATM   37  C8  UNL     1       0.284   0.688  53.817  1.00  0.00     0.011 C
BRANCH  37  38
HETATM   38  C9  UNL     1       1.221   0.109  54.859  1.00  0.00     0.085 C
HETATM   39 BR1  UNL     1       0.218  -0.378  56.426  1.00  0.00    -0.097 Br
ENDBRANCH  37  38
ENDBRANCH  36  37
ENDBRANCH  35  36
ENDBRANCH  34  35
ENDBRANCH  33  34
ENDBRANCH  32  33
ENDBRANCH   2  32
TORSDOF 15
ENDMDL