MODEL 1
REMARK VINA RESULT: -7.969973791      0.000      0.000
REMARK  14 active torsions:
REMARK  status: ('A' for Active; 'I' for Inactive)
REMARK    1  A    between atoms: C2_2  and  N1_3
REMARK    2  A    between atoms: N1_3  and  C3_4
REMARK    3  A    between atoms: N1_3  and  C5_6
REMARK    4  A    between atoms: N1_3  and  C7_8
REMARK    5  A    between atoms: C7_8  and  C8_9
REMARK    6  A    between atoms: C8_9  and  N2_10
REMARK    7  A    between atoms: N2_10  and  C10_13
REMARK    8  A    between atoms: C10_13  and  C11_14
REMARK       I    between atoms: C11_14  and  N3_16
REMARK    9  A    between atoms: N3_16  and  C12_18
REMARK   10  A    between atoms: C12_18  and  C13_19
REMARK   11  A    between atoms: C13_19  and  C14_20
REMARK   12  A    between atoms: C20_30  and  C21_31
REMARK   13  A    between atoms: C21_31  and  C22_32
REMARK   14  A    between atoms: C22_32  and  C23_33
ROOT
HETATM    1  C14 UNL     1       7.749  -2.580  49.346  1.00  0.00    -0.029 A
HETATM    2  C15 UNL     1       7.286  -1.516  50.083  1.00  0.00     0.096 A
HETATM    3  N4  UNL     1       8.255  -0.587  50.202  1.00  0.00    -0.364 N
ATOM      4  H4  UNL     1       8.176   0.299  50.699  1.00  0.00     0.165 HD
HETATM    5  C16 UNL     1       9.344  -1.033  49.551  1.00  0.00     0.062 A
HETATM    6  C17 UNL     1      10.600  -0.508  49.353  1.00  0.00     0.059 A
HETATM    7 BR1  UNL     1      11.033   1.202  50.087  1.00  0.00    -0.047 Br
HETATM    8  C18 UNL     1      11.567  -1.213  48.619  1.00  0.00     0.070 A
HETATM    9  C19 UNL     1      12.834  -0.554  48.376  1.00  0.00     0.101 C
HETATM   10  N5  UNL     1      13.826  -0.024  48.162  1.00  0.00    -0.191 NA
HETATM   11  C20 UNL     1      11.323  -2.435  48.072  1.00  0.00    -0.035 A
HETATM   12  C26 UNL     1      10.023  -2.941  48.295  1.00  0.00     0.023 A
HETATM   13  C27 UNL     1       9.068  -2.266  49.007  1.00  0.00     0.000 A
ENDROOT
BRANCH  11  14
HETATM   14  C21 UNL     1      12.300  -3.292  47.372  1.00  0.00     0.040 C
BRANCH  14  15
HETATM   15  C22 UNL     1      12.992  -4.280  48.216  1.00  0.00     0.008 C
BRANCH  15  16
HETATM   16  C23 UNL     1      14.100  -3.947  49.115  1.00  0.00    -0.023 C
HETATM   17  C24 UNL     1      15.320  -3.335  48.493  1.00  0.00     0.009 C
HETATM   18  C25 UNL     1      14.524  -5.204  49.926  1.00  0.00     0.009 C
ENDBRANCH  15  16
ENDBRANCH  14  15
ENDBRANCH  11  14
BRANCH   1  19
HETATM   19  C13 UNL     1       7.129  -3.843  48.952  1.00  0.00     0.060 C
BRANCH  19  20
HETATM   20  C12 UNL     1       6.109  -3.779  47.876  1.00  0.00     0.127 C
BRANCH  20  21
HETATM   21  N3  UNL     1       6.330  -2.757  46.874  1.00  0.00    -0.359 N
HETATM   22  C11 UNL     1       5.339  -1.785  46.676  1.00  0.00     0.251 C
HETATM   23  O2  UNL     1       4.296  -1.864  47.427  1.00  0.00    -0.271 OA
ATOM     24  H3  UNL     1       7.189  -2.745  46.324  1.00  0.00     0.162 HD
BRANCH  22  25
HETATM   25  C10 UNL     1       5.322  -0.674  45.722  1.00  0.00     0.413 C
BRANCH  25  26
HETATM   26  N2  UNL     1       5.487   0.638  46.236  1.00  0.00     0.019 N
HETATM   27  C9  UNL     1       4.134   1.150  46.525  1.00  0.00     0.357 C
HETATM   28  O1  UNL     1       6.009   1.457  45.318  1.00  0.00    -0.064 OA
BRANCH  26  29
HETATM   29  C8  UNL     1       6.243   0.726  47.447  1.00  0.00     0.340 C
BRANCH  29  30
HETATM   30  C7  UNL     1       5.597   1.470  48.564  1.00  0.00     0.273 C
BRANCH  30  31
HETATM   31  N1  UNL     1       6.329   2.672  48.967  1.00  0.00    -0.066 N
BRANCH  31  32
HETATM   32  C2  UNL     1       6.419   2.788  50.399  1.00  0.00     0.233 C
HETATM   33  C1  UNL     1       5.662   1.714  51.133  1.00  0.00     0.035 C
ENDBRANCH  31  32
BRANCH  31  34
HETATM   34  C3  UNL     1       5.813   3.811  48.294  1.00  0.00     0.233 C
HETATM   35  C4  UNL     1       4.631   4.464  48.921  1.00  0.00     0.035 C
ENDBRANCH  31  34
BRANCH  31  36
HETATM   36  C5  UNL     1       7.683   2.455  48.462  1.00  0.00     0.233 C
HETATM   37  C6  UNL     1       8.501   3.692  48.340  1.00  0.00     0.035 C
ENDBRANCH  31  36
ENDBRANCH  30  31
ENDBRANCH  29  30
ENDBRANCH  26  29
ENDBRANCH  25  26
ENDBRANCH  22  25
ENDBRANCH  20  21
ENDBRANCH  19  20
ENDBRANCH   1  19
TORSDOF 14
ENDMDL