MODEL 4
REMARK VINA RESULT: -8.593853930      1.833      5.192
REMARK  16 active torsions:
REMARK  status: ('A' for Active; 'I' for Inactive)
REMARK    1  A    between atoms: N1_2  and  C2_3
REMARK    2  A    between atoms: C2_3  and  C3_4
REMARK    3  A    between atoms: C6_7  and  C7_8
REMARK    4  A    between atoms: C7_8  and  C8_9
REMARK    5  A    between atoms: C8_9  and  C9_10
REMARK    6  A    between atoms: C9_10  and  N3_14
REMARK    7  A    between atoms: C12_17  and  C13_18
REMARK       I    between atoms: C13_18  and  N4_20
REMARK    8  A    between atoms: N4_20  and  C14_22
REMARK    9  A    between atoms: C14_22  and  C15_23
REMARK   10  A    between atoms: C15_23  and  C16_24
REMARK   11  A    between atoms: C16_24  and  C17_25
REMARK   12  A    between atoms: C17_25  and  C18_26
REMARK   13  A    between atoms: C18_26  and  C19_27
REMARK   14  A    between atoms: C19_27  and  C20_28
REMARK       I    between atoms: C20_28  and  N5_30
REMARK   15  A    between atoms: C21_32  and  C22_33
REMARK   16  A    between atoms: C22_33  and  N6_34
ROOT
HETATM    1  N3  UNL     1       7.646   2.846  49.640  1.00  0.00    -0.371 N
HETATM    2  C10 UNL     1       8.263   2.000  50.667  1.00  0.00     0.125 C
HETATM    3  C11 UNL     1       7.906   0.574  50.338  1.00  0.00     0.034 C
HETATM    4  C12 UNL     1       8.532   0.206  49.031  1.00  0.00     0.081 C
HETATM    5  C23 UNL     1       8.989   1.431  48.251  1.00  0.00     0.034 C
HETATM    6  C24 UNL     1       7.879   2.458  48.259  1.00  0.00     0.125 C
ENDROOT
BRANCH   1   7
HETATM    7  C9  UNL     1       6.870   3.975  49.995  1.00  0.00     0.072 C
HETATM    8  N2  UNL     1       7.377   4.875  50.764  1.00  0.00    -0.389 N
ATOM      9  H22 UNL     1       6.818   5.689  51.020  1.00  0.00     0.157 HD
ATOM     10  H21 UNL     1       8.332   4.757  51.104  1.00  0.00     0.157 HD
BRANCH   7  11
HETATM   11  C8  UNL     1       5.484   4.146  49.502  1.00  0.00     0.080 C
BRANCH  11  12
HETATM   12  C7  UNL     1       4.520   3.239  50.263  1.00  0.00     0.046 C
BRANCH  12  13
HETATM   13  C6  UNL     1       4.505   1.891  49.639  1.00  0.00    -0.058 A
HETATM   14  C5  UNL     1       4.474   0.799  50.461  1.00  0.00     0.007 A
HETATM   15  C4  UNL     1       4.456  -0.490  49.914  1.00  0.00     0.009 A
HETATM   16  C3  UNL     1       4.468  -0.684  48.550  1.00  0.00    -0.032 A
HETATM   17  C26 UNL     1       4.499   0.436  47.748  1.00  0.00     0.009 A
HETATM   18  C25 UNL     1       4.517   1.713  48.277  1.00  0.00     0.007 A
BRANCH  16  19
HETATM   19  C2  UNL     1       4.446  -2.013  47.947  1.00  0.00     0.275 C
BRANCH  19  20
HETATM   20  N1  UNL     1       5.511  -2.895  48.317  1.00  0.00    -0.067 N
HETATM   21  C1  UNL     1       5.178  -4.193  47.699  1.00  0.00     0.272 C
HETATM   22  C27 UNL     1       6.764  -2.442  47.735  1.00  0.00     0.237 C
HETATM   23  C28 UNL     1       7.781  -3.564  47.805  1.00  0.00     0.028 C
HETATM   24  C29 UNL     1       7.989  -3.965  49.257  1.00  0.00     0.003 C
HETATM   25  C30 UNL     1       7.112  -3.126  50.158  1.00  0.00     0.028 C
HETATM   26  C31 UNL     1       5.657  -3.146  49.715  1.00  0.00     0.237 C
ENDBRANCH  19  20
ENDBRANCH  16  19
ENDBRANCH  12  13
ENDBRANCH  11  12
ENDBRANCH   7  11
ENDBRANCH   1   7
BRANCH   4  27
HETATM   27  C13 UNL     1       9.754  -0.614  49.287  1.00  0.00     0.221 C
HETATM   28  O1  UNL     1      10.023  -0.904  50.474  1.00  0.00    -0.273 OA
HETATM   29  N4  UNL     1      10.576  -1.047  48.242  1.00  0.00    -0.361 N
ATOM     30  H4  UNL     1      10.300  -0.784  47.296  1.00  0.00     0.162 HD
BRANCH  29  31
HETATM   31  C14 UNL     1      11.797  -1.844  48.380  1.00  0.00     0.122 C
BRANCH  31  32
HETATM   32  C15 UNL     1      11.568  -3.185  47.805  1.00  0.00     0.020 C
BRANCH  32  33
HETATM   33  C16 UNL     1      12.707  -4.100  47.740  1.00  0.00     0.002 C
BRANCH  33  34
HETATM   34  C17 UNL     1      13.917  -3.877  48.523  1.00  0.00     0.001 C
BRANCH  34  35
HETATM   35  C18 UNL     1      14.262  -4.841  49.578  1.00  0.00     0.009 C
BRANCH  35  36
HETATM   36  C19 UNL     1      15.777  -4.908  49.850  1.00  0.00     0.103 C
BRANCH  36  37
HETATM   37  C20 UNL     1      16.261  -3.748  50.557  1.00  0.00     0.221 C
HETATM   38  O2  UNL     1      15.576  -3.137  51.410  1.00  0.00    -0.273 OA
HETATM   39  N5  UNL     1      17.587  -3.241  50.302  1.00  0.00    -0.339 N
HETATM   40  C21 UNL     1      17.815  -2.282  49.483  1.00  0.00     0.090 C
ATOM     41  H5  UNL     1      18.375  -3.662  50.795  1.00  0.00     0.167 HD
BRANCH  40  42
HETATM   42  C22 UNL     1      16.710  -1.647  48.750  1.00  0.00     0.274 C
BRANCH  42  43
HETATM   43  N6  UNL     1      16.744  -0.224  49.050  1.00  0.00    -0.075 N
ATOM     44  H63 UNL     1      17.352   0.001  49.838  1.00  0.00     0.274 HD
ATOM     45  H62 UNL     1      17.237   0.320  48.342  1.00  0.00     0.274 HD
ATOM     46  H61 UNL     1      15.782   0.085  49.190  1.00  0.00     0.274 HD
ENDBRANCH  42  43
ENDBRANCH  40  42
ENDBRANCH  36  37
ENDBRANCH  35  36
ENDBRANCH  34  35
ENDBRANCH  33  34
ENDBRANCH  32  33
ENDBRANCH  31  32
ENDBRANCH  29  31
ENDBRANCH   4  27
TORSDOF 16
ENDMDL