MODEL 5
REMARK VINA RESULT: -8.961212212      1.555      3.759
REMARK  14 active torsions:
REMARK  status: ('A' for Active; 'I' for Inactive)
REMARK    1  A    between atoms: N1_2  and  C3_4
REMARK    2  A    between atoms: N1_2  and  C21_31
REMARK    3  A    between atoms: C3_4  and  C4_5
REMARK    4  A    between atoms: C4_5  and  C5_6
REMARK    5  A    between atoms: C5_6  and  C6_7
REMARK    6  A    between atoms: C6_7  and  C7_8
REMARK    7  A    between atoms: C7_8  and  C8_9
REMARK    8  A    between atoms: C8_9  and  C9_10
REMARK    9  A    between atoms: C9_10  and  C10_11
REMARK   10  A    between atoms: C10_11  and  N2_12
REMARK       I    between atoms: N2_12  and  C11_14
REMARK   11  A    between atoms: C11_14  and  C12_16
REMARK   12  A    between atoms: C12_16  and  C13_17
REMARK   13  A    between atoms: C13_17  and  N3_18
REMARK       I    between atoms: N3_18  and  C14_20
REMARK   14  A    between atoms: N5_22  and  C15_24
ROOT
HETATM    1  C10 UNL     1       9.471  -1.937  49.357  1.00  0.00     0.122 C
ENDROOT
BRANCH   1   2
HETATM    2  C9  UNL     1       8.321  -2.872  49.548  1.00  0.00     0.020 C
BRANCH   2   3
HETATM    3  C8  UNL     1       8.208  -3.849  48.375  1.00  0.00     0.002 C
BRANCH   3   4
HETATM    4  C7  UNL     1       7.140  -3.432  47.379  1.00  0.00     0.004 C
BRANCH   4   5
HETATM    5  C6  UNL     1       5.808  -3.802  47.879  1.00  0.00     0.027 C
BRANCH   5   6
HETATM    6  C5  UNL     1       4.785  -2.745  47.993  1.00  0.00    -0.025 C
BRANCH   6   7
HETATM    7  C4  UNL     1       4.342  -2.217  49.262  1.00  0.00     0.021 C
BRANCH   7   8
HETATM    8  C3  UNL     1       5.055  -1.556  50.327  1.00  0.00     0.204 C
BRANCH   8   9
HETATM    9  N1  UNL     1       5.326  -0.173  50.353  1.00  0.00    -0.023 N
HETATM   10  C1  UNL     1       4.193   0.512  50.968  1.00  0.00     0.280 C
HETATM   11  C2  UNL     1       6.488   0.229  51.134  1.00  0.00     0.280 C
BRANCH   9  12
HETATM   12  C21 UNL     1       5.514   0.465  49.055  1.00  0.00     0.428 C
HETATM   13  C22 UNL     1       6.911   0.697  48.611  1.00  0.00     0.071 C
HETATM   14  C23 UNL     1       6.775   1.456  47.270  1.00  0.00    -0.009 C
HETATM   15  C24 UNL     1       5.831   0.806  46.337  1.00  0.00     0.006 C
HETATM   16  C28 UNL     1       6.426   2.892  47.591  1.00  0.00     0.035 C
HETATM   17  C25 UNL     1       4.391   1.049  46.561  1.00  0.00     0.031 C
HETATM   18  C26 UNL     1       3.990   1.816  47.748  1.00  0.00     0.275 C
HETATM   19  N6  UNL     1       4.819   1.723  48.915  1.00  0.00     0.120 N
HETATM   20  C27 UNL     1       5.684   2.878  48.907  1.00  0.00     0.275 C
ENDBRANCH   9  12
ENDBRANCH   8   9
ENDBRANCH   7   8
ENDBRANCH   6   7
ENDBRANCH   5   6
ENDBRANCH   4   5
ENDBRANCH   3   4
ENDBRANCH   2   3
ENDBRANCH   1   2
BRANCH   1  21
HETATM   21  N2  UNL     1      10.346  -2.349  48.305  1.00  0.00    -0.361 N
HETATM   22  C11 UNL     1      11.731  -2.493  48.513  1.00  0.00     0.219 C
HETATM   23  O1  UNL     1      12.254  -2.278  49.615  1.00  0.00    -0.274 OA
ATOM     24  H2  UNL     1       9.959  -2.542  47.381  1.00  0.00     0.162 HD
BRANCH  22  25
HETATM   25  C12 UNL     1      12.550  -2.924  47.323  1.00  0.00     0.122 C
BRANCH  25  26
HETATM   26  C13 UNL     1      13.989  -2.815  47.707  1.00  0.00     0.131 C
BRANCH  26  27
HETATM   27  N3  UNL     1      14.562  -4.053  48.189  1.00  0.00    -0.364 N
HETATM   28  C14 UNL     1      15.579  -4.074  49.160  1.00  0.00     0.188 C
HETATM   29  N4  UNL     1      16.167  -2.856  49.576  1.00  0.00    -0.064 NA
HETATM   30  N5  UNL     1      15.986  -5.146  49.684  1.00  0.00    -0.331 N
ATOM     31  H5  UNL     1      16.728  -5.030  50.374  1.00  0.00     0.168 HD
ATOM     32  H3  UNL     1      14.217  -4.937  47.814  1.00  0.00     0.162 HD
BRANCH  30  33
HETATM   33  C15 UNL     1      15.581  -6.472  49.471  1.00  0.00     0.034 A
HETATM   34  C16 UNL     1      16.148  -7.315  48.552  1.00  0.00     0.031 A
HETATM   35  C17 UNL     1      15.702  -8.596  48.404  1.00  0.00     0.021 A
HETATM   36  C18 UNL     1      14.674  -9.071  49.171  1.00  0.00     0.011 A
HETATM   37 BR1  UNL     1      14.019 -10.848  49.001  1.00  0.00    -0.051 Br
HETATM   38  C19 UNL     1      14.089  -8.239  50.102  1.00  0.00     0.021 A
HETATM   39  C20 UNL     1      14.540  -6.951  50.249  1.00  0.00     0.031 A
ENDBRANCH  30  33
ENDBRANCH  26  27
ENDBRANCH  25  26
ENDBRANCH  22  25
ENDBRANCH   1  21
TORSDOF 14
ENDMDL