MODEL 4
REMARK VINA RESULT: -8.227790983      1.778      2.808
REMARK  16 active torsions:
REMARK  status: ('A' for Active; 'I' for Inactive)
REMARK    1  A    between atoms: N1_2  and  C2_3
REMARK       I    between atoms: N1_2  and  C9_16
REMARK    2  A    between atoms: C2_3  and  C3_4
REMARK       I    between atoms: C3_4  and  N2_6
REMARK    3  A    between atoms: N2_6  and  C4_8
REMARK    4  A    between atoms: C9_16  and  C10_18
REMARK    5  A    between atoms: C10_18  and  C11_19
REMARK    6  A    between atoms: C11_19  and  C12_20
REMARK    7  A    between atoms: C12_20  and  C13_21
REMARK    8  A    between atoms: C13_21  and  C14_22
REMARK    9  A    between atoms: C14_22  and  C15_23
REMARK   10  A    between atoms: C15_23  and  C16_24
REMARK   11  A    between atoms: C16_24  and  C17_25
REMARK   12  A    between atoms: C17_25  and  C18_26
REMARK   13  A    between atoms: C18_26  and  C19_27
REMARK   14  A    between atoms: C19_27  and  N4_28
REMARK   15  A    between atoms: N4_28  and  C20_30
REMARK   16  A    between atoms: C20_30  and  C21_34
ROOT
HETATM    1  C12 UNL     1       7.479  -3.808  49.499  1.00  0.00     0.000 C
ENDROOT
BRANCH   1   2
HETATM    2  C11 UNL     1       8.646  -2.857  49.536  1.00  0.00     0.009 C
BRANCH   2   3
HETATM    3  C10 UNL     1       9.621  -3.159  48.428  1.00  0.00     0.103 C
BRANCH   3   4
HETATM    4  C9  UNL     1      10.839  -2.332  48.568  1.00  0.00     0.219 C
HETATM    5  N1  UNL     1      12.084  -2.687  48.023  1.00  0.00    -0.348 N
HETATM    6  C1  UNL     1      12.233  -3.917  47.285  1.00  0.00     0.153 C
HETATM    7  O2  UNL     1      10.735  -1.244  49.221  1.00  0.00    -0.273 OA
BRANCH   5   8
HETATM    8  C2  UNL     1      13.230  -1.823  48.189  1.00  0.00     0.228 C
BRANCH   8   9
HETATM    9  C3  UNL     1      14.510  -2.558  48.161  1.00  0.00     0.241 C
HETATM   10  O1  UNL     1      15.088  -2.762  47.039  1.00  0.00    -0.271 OA
HETATM   11  N2  UNL     1      15.154  -3.061  49.299  1.00  0.00    -0.312 N
ATOM     12  H2  UNL     1      15.438  -2.371  49.995  1.00  0.00     0.170 HD
BRANCH  11  13
HETATM   13  C4  UNL     1      15.428  -4.270  49.570  1.00  0.00     0.107 A
HETATM   14  C5  UNL     1      15.966  -4.605  50.797  1.00  0.00     0.050 A
HETATM   15  C6  UNL     1      16.258  -5.924  51.090  1.00  0.00     0.024 A
HETATM   16  C7  UNL     1      16.023  -6.936  50.178  1.00  0.00     0.026 A
HETATM   17 BR1  UNL     1      16.407  -8.765  50.538  1.00  0.00    -0.050 Br
HETATM   18  C8  UNL     1      15.482  -6.541  48.966  1.00  0.00     0.108 A
HETATM   19  N3  UNL     1      15.207  -5.265  48.702  1.00  0.00    -0.351 N
ATOM     20  H3  UNL     1      14.809  -5.034  47.791  1.00  0.00     0.166 HD
ENDBRANCH  11  13
ENDBRANCH   8   9
ENDBRANCH   5   8
ENDBRANCH   3   4
ENDBRANCH   2   3
ENDBRANCH   1   2
BRANCH   1  21
HETATM   21  C13 UNL     1       6.262  -3.141  50.112  1.00  0.00     0.000 C
BRANCH  21  22
HETATM   22  C14 UNL     1       5.088  -3.286  49.173  1.00  0.00     0.000 C
BRANCH  22  23
HETATM   23  C15 UNL     1       5.687  -3.533  47.790  1.00  0.00     0.000 C
BRANCH  23  24
HETATM   24  C16 UNL     1       5.678  -2.280  46.977  1.00  0.00     0.000 C
BRANCH  24  25
HETATM   25  C17 UNL     1       4.549  -1.355  47.331  1.00  0.00     0.002 C
BRANCH  25  26
HETATM   26  C18 UNL     1       4.179  -0.454  46.167  1.00  0.00     0.020 C
BRANCH  26  27
HETATM   27  C19 UNL     1       4.988   0.795  46.130  1.00  0.00     0.121 C
BRANCH  27  28
HETATM   28  N4  UNL     1       4.429   1.935  46.761  1.00  0.00    -0.380 N
ATOM     29  H4  UNL     1       3.582   2.318  46.340  1.00  0.00     0.160 HD
BRANCH  28  30
HETATM   30  C20 UNL     1       4.919   2.606  47.917  1.00  0.00     0.076 C
HETATM   31  N5  UNL     1       5.748   3.573  47.739  1.00  0.00    -0.389 N
ATOM     32  H52 UNL     1       6.080   3.882  46.826  1.00  0.00     0.157 HD
ATOM     33  H51 UNL     1       6.098   4.053  48.568  1.00  0.00     0.157 HD
BRANCH  30  34
HETATM   34  C21 UNL     1       4.442   2.161  49.229  1.00  0.00     0.069 A
HETATM   35  C22 UNL     1       5.073   2.537  50.505  1.00  0.00    -0.029 A
HETATM   36  C23 UNL     1       6.177   3.549  50.532  1.00  0.00     0.016 C
HETATM   37  C24 UNL     1       4.195   2.576  51.757  1.00  0.00     0.016 C
HETATM   38  C25 UNL     1       5.290   1.168  49.957  1.00  0.00    -0.029 A
HETATM   39  C26 UNL     1       6.633   0.726  49.497  1.00  0.00     0.016 C
HETATM   40  C27 UNL     1       4.484   0.014  50.578  1.00  0.00     0.016 C
ENDBRANCH  30  34
ENDBRANCH  28  30
ENDBRANCH  27  28
ENDBRANCH  26  27
ENDBRANCH  25  26
ENDBRANCH  24  25
ENDBRANCH  23  24
ENDBRANCH  22  23
ENDBRANCH  21  22
ENDBRANCH   1  21
TORSDOF 16
ENDMDL