MODEL 4
REMARK VINA RESULT: -7.036374679      4.893      7.080
REMARK  18 active torsions:
REMARK  status: ('A' for Active; 'I' for Inactive)
REMARK    1  A    between atoms: N1_2  and  N2_5
REMARK    2  A    between atoms: N2_5  and  C4_6
REMARK    3  A    between atoms: N2_5  and  C11_17
REMARK    4  A    between atoms: N2_5  and  C20_34
REMARK    5  A    between atoms: C4_6  and  C5_7
REMARK    6  A    between atoms: C5_7  and  C6_8
REMARK    7  A    between atoms: C6_8  and  C7_9
REMARK    8  A    between atoms: C7_9  and  C8_10
REMARK    9  A    between atoms: C8_10  and  C9_11
REMARK   10  A    between atoms: C9_11  and  C10_12
REMARK   11  A    between atoms: C10_12  and  O1_13
REMARK   12  A    between atoms: O1_13  and  N3_14
REMARK   13  A    between atoms: C11_17  and  C12_18
REMARK   14  A    between atoms: C12_18  and  C13_19
REMARK   15  A    between atoms: C13_19  and  N4_20
REMARK   16  A    between atoms: N4_20  and  C14_22
REMARK   17  A    between atoms: C14_22  and  N5_24
REMARK   18  A    between atoms: N5_24  and  C15_26
ROOT
HETATM    1  N2  UNL     1       6.132   0.412  49.287  1.00  0.00     0.133 N
ENDROOT
BRANCH   1   2
HETATM    2  N1  UNL     1       5.532   1.519  49.893  1.00  0.00     0.082 N
HETATM    3  C1  UNL     1       5.073   2.571  49.034  1.00  0.00     0.309 C
HETATM    4  C2  UNL     1       4.381   1.191  50.708  1.00  0.00     0.309 C
HETATM    5  C3  UNL     1       6.480   2.177  50.803  1.00  0.00     0.309 C
ENDBRANCH   1   2
BRANCH   1   6
HETATM    6  C4  UNL     1       5.987  -0.795  50.126  1.00  0.00     0.281 C
BRANCH   6   7
HETATM    7  C5  UNL     1       5.015  -1.788  49.663  1.00  0.00     0.031 C
BRANCH   7   8
HETATM    8  C6  UNL     1       5.716  -3.125  49.542  1.00  0.00     0.002 C
BRANCH   8   9
HETATM    9  C7  UNL     1       5.708  -3.733  48.193  1.00  0.00     0.000 C
BRANCH   9  10
HETATM   10  C8  UNL     1       7.095  -3.492  47.575  1.00  0.00     0.002 C
BRANCH  10  11
HETATM   11  C9  UNL     1       8.175  -4.000  48.498  1.00  0.00     0.029 C
BRANCH  11  12
HETATM   12  C10 UNL     1       9.500  -3.847  47.786  1.00  0.00     0.208 C
BRANCH  12  13
HETATM   13  O1  UNL     1      10.301  -2.924  48.504  1.00  0.00    -0.221 OA
BRANCH  13  14
HETATM   14  N3  UNL     1      11.673  -2.995  48.483  1.00  0.00     0.004 N
HETATM   15  O2  UNL     1      12.197  -3.593  47.528  1.00  0.00    -0.511 OA
HETATM   16  O3  UNL     1      12.471  -2.445  49.450  1.00  0.00    -0.511 OA
ENDBRANCH  13  14
ENDBRANCH  12  13
ENDBRANCH  11  12
ENDBRANCH  10  11
ENDBRANCH   9  10
ENDBRANCH   8   9
ENDBRANCH   7   8
ENDBRANCH   6   7
ENDBRANCH   1   6
BRANCH   1  17
HETATM   17  C11 UNL     1       7.568   0.514  49.172  1.00  0.00     0.282 C
BRANCH  17  18
HETATM   18  C12 UNL     1       8.472  -0.579  49.398  1.00  0.00     0.050 C
BRANCH  18  19
HETATM   19  C13 UNL     1       9.719   0.037  50.084  1.00  0.00     0.123 C
BRANCH  19  20
HETATM   20  N4  UNL     1      10.815   0.242  49.218  1.00  0.00    -0.367 N
ATOM     21  H4  UNL     1      11.042  -0.485  48.539  1.00  0.00     0.161 HD
BRANCH  20  22
HETATM   22  C14 UNL     1      11.606   1.398  49.248  1.00  0.00     0.173 C
HETATM   23  S1  UNL     1      11.393   2.499  50.422  1.00  0.00    -0.041 SA
BRANCH  22  24
HETATM   24  N5  UNL     1      12.595   1.629  48.265  1.00  0.00    -0.320 N
ATOM     25  H5  UNL     1      12.420   2.324  47.540  1.00  0.00     0.169 HD
BRANCH  24  26
HETATM   26  C15 UNL     1      13.721   0.981  48.257  1.00  0.00     0.107 A
HETATM   27  C16 UNL     1      14.868   1.501  48.814  1.00  0.00     0.050 A
HETATM   28  C17 UNL     1      16.058   0.813  48.804  1.00  0.00     0.024 A
HETATM   29  C18 UNL     1      16.038  -0.431  48.203  1.00  0.00     0.026 A
HETATM   30 BR1  UNL     1      17.636  -1.493  48.125  1.00  0.00    -0.050 Br
HETATM   31  C19 UNL     1      14.896  -0.944  47.649  1.00  0.00     0.108 A
HETATM   32  N6  UNL     1      13.733  -0.229  47.680  1.00  0.00    -0.351 N
ATOM     33  H6  UNL     1      12.882  -0.612  47.268  1.00  0.00     0.166 HD
ENDBRANCH  24  26
ENDBRANCH  22  24
ENDBRANCH  20  22
ENDBRANCH  19  20
ENDBRANCH  18  19
ENDBRANCH  17  18
ENDBRANCH   1  17
BRANCH   1  34
HETATM   34  C20 UNL     1       5.627   0.123  47.969  1.00  0.00     0.239 A
HETATM   35  C21 UNL     1       4.334  -0.247  47.608  1.00  0.00     0.060 A
HETATM   36  C22 UNL     1       4.241  -0.442  46.249  1.00  0.00     0.021 A
HETATM   37  C23 UNL     1       5.480  -0.195  45.762  1.00  0.00     0.090 A
HETATM   38  N7  UNL     1       6.273   0.134  46.791  1.00  0.00    -0.344 N
ATOM     39  H7  UNL     1       7.261   0.367  46.690  1.00  0.00     0.166 HD
ENDBRANCH   1  34
TORSDOF 18
ENDMDL