MODEL 3
REMARK VINA RESULT: -8.979029798      1.980      3.102
REMARK  14 active torsions:
REMARK  status: ('A' for Active; 'I' for Inactive)
REMARK    1  A    between atoms: N1_2  and  C2_3
REMARK    2  A    between atoms: C2_3  and  C3_4
REMARK    3  A    between atoms: N2_14  and  C13_15
REMARK    4  A    between atoms: C13_15  and  C14_16
REMARK    5  A    between atoms: C14_16  and  C15_17
REMARK    6  A    between atoms: C15_17  and  C16_18
REMARK    7  A    between atoms: C16_18  and  C17_19
REMARK    8  A    between atoms: C17_19  and  C18_20
REMARK    9  A    between atoms: C18_20  and  C19_21
REMARK   10  A    between atoms: C19_21  and  N3_22
REMARK       I    between atoms: N3_22  and  C20_24
REMARK   11  A    between atoms: C20_24  and  C21_26
REMARK   12  A    between atoms: C21_26  and  N4_27
REMARK       I    between atoms: N4_27  and  C22_29
REMARK       I    between atoms: C22_29  and  N5_31
REMARK   13  A    between atoms: N5_31  and  C23_33
REMARK   14  A    between atoms: C23_33  and  C24_34
ROOT
HETATM    1  C17 UNL     1       6.561  -3.747  49.237  1.00  0.00     0.028 C
ENDROOT
BRANCH   1   2
HETATM    2  C16 UNL     1       5.536  -3.857  48.128  1.00  0.00     0.004 C
BRANCH   2   3
HETATM    3  C15 UNL     1       4.852  -2.607  47.764  1.00  0.00     0.002 C
BRANCH   3   4
HETATM    4  C14 UNL     1       5.590  -1.534  47.066  1.00  0.00     0.030 C
BRANCH   4   5
HETATM    5  C13 UNL     1       5.873  -0.290  47.814  1.00  0.00     0.272 C
BRANCH   5   6
HETATM    6  N2  UNL     1       5.671  -0.222  49.211  1.00  0.00     0.090 N
HETATM    7  C12 UNL     1       6.982  -0.116  49.907  1.00  0.00     0.274 C
HETATM    8  C11 UNL     1       7.636   1.203  49.692  1.00  0.00     0.058 C
HETATM    9  C10 UNL     1       6.999   2.243  50.572  1.00  0.00     0.238 C
HETATM   10  N1  UNL     1       6.056   3.090  49.865  1.00  0.00    -0.069 N
HETATM   11  C1  UNL     1       5.262   3.749  50.881  1.00  0.00     0.272 C
HETATM   12  C31 UNL     1       5.165   2.219  49.085  1.00  0.00     0.267 C
HETATM   13  C30 UNL     1       4.861   0.905  49.670  1.00  0.00     0.300 C
BRANCH  10  14
HETATM   14  C2  UNL     1       6.665   3.967  48.923  1.00  0.00     0.241 C
BRANCH  14  15
HETATM   15  C3  UNL     1       7.741   4.876  49.367  1.00  0.00     0.012 C
HETATM   16  C4  UNL     1       8.947   4.810  48.463  1.00  0.00     0.006 C
HETATM   17  C5  UNL     1       9.862   5.980  48.863  1.00  0.00     0.000 C
HETATM   18  C6  UNL     1      10.005   5.949  50.345  1.00  0.00     0.000 C
HETATM   19  C7  UNL     1       8.935   6.700  51.075  1.00  0.00     0.000 C
HETATM   20  C8  UNL     1       7.863   7.255  50.202  1.00  0.00     0.000 C
HETATM   21  C9  UNL     1       7.234   6.325  49.240  1.00  0.00     0.006 C
ENDBRANCH  14  15
ENDBRANCH  10  14
ENDBRANCH   5   6
ENDBRANCH   4   5
ENDBRANCH   3   4
ENDBRANCH   2   3
ENDBRANCH   1   2
BRANCH   1  22
HETATM   22  C18 UNL     1       7.905  -4.224  48.887  1.00  0.00    -0.010 C
BRANCH  22  23
HETATM   23  C19 UNL     1       8.630  -3.860  47.679  1.00  0.00     0.087 C
BRANCH  23  24
HETATM   24  N3  UNL     1       9.966  -3.468  47.634  1.00  0.00    -0.333 N
HETATM   25  C20 UNL     1      10.667  -2.503  48.331  1.00  0.00     0.260 C
HETATM   26  O1  UNL     1      10.082  -1.756  49.174  1.00  0.00    -0.267 OA
ATOM     27  H3  UNL     1      10.530  -3.990  46.963  1.00  0.00     0.168 HD
BRANCH  25  28
HETATM   28  C21 UNL     1      12.128  -2.219  48.188  1.00  0.00     0.167 C
BRANCH  28  29
HETATM   29  N4  UNL     1      12.893  -3.375  47.942  1.00  0.00    -0.314 N
HETATM   30  C22 UNL     1      13.864  -3.857  48.872  1.00  0.00     0.320 C
HETATM   31  O2  UNL     1      14.041  -3.200  49.934  1.00  0.00    -0.247 OA
HETATM   32  N5  UNL     1      14.616  -5.050  48.608  1.00  0.00    -0.339 N
ATOM     33  H5  UNL     1      14.453  -5.581  47.753  1.00  0.00     0.164 HD
ATOM     34  H4  UNL     1      12.748  -3.885  47.070  1.00  0.00     0.170 HD
BRANCH  32  35
HETATM   35  C23 UNL     1      15.593  -5.489  49.551  1.00  0.00     0.164 C
BRANCH  35  36
HETATM   36  C24 UNL     1      15.518  -6.927  49.828  1.00  0.00    -0.019 A
HETATM   37  C25 UNL     1      14.783  -7.765  49.045  1.00  0.00     0.010 A
HETATM   38  C26 UNL     1      14.690  -9.130  49.345  1.00  0.00     0.001 A
HETATM   39  C27 UNL     1      15.324  -9.664  50.424  1.00  0.00     0.002 A
HETATM   40  C28 UNL     1      16.061  -8.808  51.207  1.00  0.00     0.024 A
HETATM   41  C29 UNL     1      16.166  -7.476  50.931  1.00  0.00     0.042 A
HETATM   42 CL1  UNL     1      17.107  -6.423  51.941  1.00  0.00    -0.084 Cl
ENDBRANCH  35  36
ENDBRANCH  32  35
ENDBRANCH  28  29
ENDBRANCH  25  28
ENDBRANCH  23  24
ENDBRANCH  22  23
ENDBRANCH   1  22
TORSDOF 14
ENDMDL