MODEL 5
REMARK VINA RESULT: -7.959488395      2.081      3.021
REMARK  14 active torsions:
REMARK  status: ('A' for Active; 'I' for Inactive)
REMARK    1  A    between atoms: C2_2  and  C3_3
REMARK    2  A    between atoms: C3_3  and  C4_4
REMARK    3  A    between atoms: C4_4  and  N1_5
REMARK    4  A    between atoms: N1_5  and  C7_8
REMARK    5  A    between atoms: C7_8  and  C8_9
REMARK       I    between atoms: C8_9  and  N2_11
REMARK    6  A    between atoms: N2_11  and  C9_13
REMARK    7  A    between atoms: C9_13  and  C10_14
REMARK    8  A    between atoms: C15_19  and  C16_20
REMARK    9  A    between atoms: C16_20  and  C17_21
REMARK   10  A    between atoms: C17_21  and  C18_22
REMARK   11  A    between atoms: N3_34  and  C28_36
REMARK   12  A    between atoms: C28_36  and  C29_37
REMARK   13  A    between atoms: C28_36  and  C33_41
REMARK   14  A    between atoms: C29_37  and  C30_38
ROOT
HETATM    1  C16 UNL     1       7.539   1.160  48.693  1.00  0.00     0.028 C
HETATM    2  N3  UNL     1       6.499   1.442  48.123  1.00  0.00    -0.377 N
ATOM      3  H3  UNL     1       5.837   0.728  48.428  1.00  0.00     0.160 HD
ENDROOT
BRANCH   1   4
HETATM    4  C15 UNL     1       8.864   1.884  48.616  1.00  0.00    -0.048 C
HETATM    5  C10 UNL     1       9.761   1.651  49.769  1.00  0.00     0.034 C
HETATM    6  C11 UNL     1       9.721   2.757  50.819  1.00  0.00     0.011 C
HETATM    7  C12 UNL     1      10.054   4.093  50.167  1.00  0.00     0.001 C
HETATM    8  C13 UNL     1       8.911   4.363  49.197  1.00  0.00     0.004 C
HETATM    9  C14 UNL     1       8.878   3.271  48.186  1.00  0.00     0.037 C
BRANCH   5  10
HETATM   10  C9  UNL     1      11.208   1.425  49.410  1.00  0.00     0.131 C
BRANCH  10  11
HETATM   11  N2  UNL     1      11.277   0.220  48.603  1.00  0.00    -0.359 N
HETATM   12  C8  UNL     1      11.169  -1.048  49.229  1.00  0.00     0.243 C
HETATM   13  O1  UNL     1      11.004  -1.084  50.467  1.00  0.00    -0.272 OA
ATOM     14  H2  UNL     1      11.402   0.285  47.593  1.00  0.00     0.162 HD
BRANCH  12  15
HETATM   15  C7  UNL     1      11.250  -2.268  48.438  1.00  0.00     0.338 C
BRANCH  15  16
HETATM   16  N1  UNL     1      12.627  -2.746  48.228  1.00  0.00    -0.066 N
HETATM   17  C5  UNL     1      13.491  -1.667  47.875  1.00  0.00     0.272 C
HETATM   18  C6  UNL     1      12.576  -3.642  47.077  1.00  0.00     0.272 C
BRANCH  16  19
HETATM   19  C4  UNL     1      13.000  -3.513  49.373  1.00  0.00     0.237 C
BRANCH  19  20
HETATM   20  C3  UNL     1      14.397  -3.987  49.462  1.00  0.00     0.027 C
BRANCH  20  21
HETATM   21  C2  UNL     1      14.591  -5.325  50.130  1.00  0.00    -0.003 C
HETATM   22  C1  UNL     1      14.497  -6.368  49.006  1.00  0.00     0.005 C
ENDBRANCH  20  21
ENDBRANCH  19  20
ENDBRANCH  16  19
ENDBRANCH  15  16
ENDBRANCH  12  15
ENDBRANCH  10  11
ENDBRANCH   5  10
ENDBRANCH   1   4
BRANCH   1  23
HETATM   23  C17 UNL     1       7.623  -0.028  49.558  1.00  0.00     0.018 C
BRANCH  23  24
HETATM   24  C18 UNL     1       6.970  -1.294  49.298  1.00  0.00     0.046 C
HETATM   25  C19 UNL     1       7.049  -1.896  47.931  1.00  0.00     0.024 C
HETATM   26  C20 UNL     1       6.596  -3.316  47.893  1.00  0.00    -0.012 C
HETATM   27  C21 UNL     1       7.420  -4.238  48.749  1.00  0.00     0.009 C
HETATM   28  C25 UNL     1       5.163  -3.424  48.385  1.00  0.00     0.015 C
HETATM   29  C22 UNL     1       7.408  -3.659  50.133  1.00  0.00    -0.012 C
HETATM   30  C23 UNL     1       5.992  -3.780  50.705  1.00  0.00     0.015 C
HETATM   31  C27 UNL     1       7.799  -2.252  50.223  1.00  0.00     0.024 C
HETATM   32  C24 UNL     1       5.140  -2.939  49.819  1.00  0.00     0.060 C
HETATM   33  C26 UNL     1       5.548  -1.471  49.774  1.00  0.00     0.258 C
HETATM   34  F1  UNL     1       4.666  -0.949  48.807  1.00  0.00    -0.205 F
HETATM   35  F2  UNL     1       5.328  -0.959  51.016  1.00  0.00    -0.205 F
ENDBRANCH  23  24
ENDBRANCH   1  23
BRANCH   2  36
HETATM   36  C28 UNL     1       5.792   2.229  47.291  1.00  0.00     0.171 C
BRANCH  36  37
HETATM   37  C29 UNL     1       4.885   1.575  46.272  1.00  0.00     0.038 C
BRANCH  37  38
HETATM   38  C30 UNL     1       5.604   0.534  45.451  1.00  0.00    -0.020 C
HETATM   39  C31 UNL     1       4.860  -0.785  45.499  1.00  0.00     0.009 C
HETATM   40  C32 UNL     1       5.652   0.953  43.983  1.00  0.00     0.009 C
ENDBRANCH  37  38
ENDBRANCH  36  37
BRANCH  36  41
HETATM   41  C33 UNL     1       4.914   3.194  48.018  1.00  0.00     0.253 C
HETATM   42  N4  UNL     1       4.000   2.834  49.032  1.00  0.00    -0.060 NA
HETATM   43  O2  UNL     1       4.996   4.402  47.707  1.00  0.00    -0.275 OA
ENDBRANCH  36  41
ENDBRANCH   2  36
TORSDOF 14
ENDMDL