MODEL 5
REMARK VINA RESULT: -7.439007495      3.740      8.536
REMARK  15 active torsions:
REMARK  status: ('A' for Active; 'I' for Inactive)
REMARK    1  A    between atoms: C2_2  and  C3_3
REMARK    2  A    between atoms: C3_3  and  C4_4
REMARK    3  A    between atoms: C4_4  and  N1_5
REMARK    4  A    between atoms: N1_5  and  C5_6
REMARK    5  A    between atoms: N1_5  and  C7_8
REMARK    6  A    between atoms: N1_5  and  C9_11
REMARK    7  A    between atoms: C7_8  and  C8_9
REMARK    8  A    between atoms: C9_11  and  C10_12
REMARK    9  A    between atoms: C10_12  and  C11_13
REMARK   10  A    between atoms: N2_16  and  C14_17
REMARK   11  A    between atoms: C14_17  and  C15_18
REMARK   12  A    between atoms: C15_18  and  N3_19
REMARK       I    between atoms: N3_19  and  C16_20
REMARK   13  A    between atoms: C16_20  and  C17_22
REMARK   14  A    between atoms: C20_25  and  N4_26
REMARK   15  A    between atoms: N4_26  and  C21_28
ROOT
HETATM    1  C14 UNL     1      10.216   1.842  50.027  1.00  0.00     0.091 C
ENDROOT
BRANCH   1   2
HETATM    2  N2  UNL     1       9.208   2.437  49.281  1.00  0.00    -0.290 NA
HETATM    3  C13 UNL     1       8.633   1.752  48.175  1.00  0.00     0.095 C
HETATM    4  C12 UNL     1       7.119   2.048  48.110  1.00  0.00     0.019 C
HETATM    5  C11 UNL     1       6.488   1.168  49.179  1.00  0.00    -0.011 C
HETATM    6  C29 UNL     1       7.247   1.615  50.475  1.00  0.00     0.019 C
HETATM    7  C28 UNL     1       8.102   2.808  50.232  1.00  0.00     0.095 C
BRANCH   5   8
HETATM    8  C10 UNL     1       5.048   1.504  49.456  1.00  0.00     0.032 C
BRANCH   8   9
HETATM    9  C9  UNL     1       4.633   1.546  50.868  1.00  0.00     0.238 C
BRANCH   9  10
HETATM   10  N1  UNL     1       3.767   2.599  51.337  1.00  0.00    -0.067 N
BRANCH  10  11
HETATM   11  C4  UNL     1       3.118   2.081  52.540  1.00  0.00     0.237 C
BRANCH  11  12
HETATM   12  C3  UNL     1       3.445   0.680  52.915  1.00  0.00     0.027 C
BRANCH  12  13
HETATM   13  C2  UNL     1       2.142   0.018  53.425  1.00  0.00    -0.003 C
HETATM   14  C1  UNL     1       1.154   1.107  53.801  1.00  0.00     0.005 C
ENDBRANCH  12  13
ENDBRANCH  11  12
ENDBRANCH  10  11
BRANCH  10  15
HETATM   15  C5  UNL     1       2.833   2.899  50.291  1.00  0.00     0.233 C
HETATM   16  C6  UNL     1       1.391   2.925  50.586  1.00  0.00     0.035 C
ENDBRANCH  10  15
BRANCH  10  17
HETATM   17  C7  UNL     1       4.443   3.838  51.632  1.00  0.00     0.248 C
BRANCH  17  18
HETATM   18  C8  UNL     1       4.219   5.003  50.743  1.00  0.00     0.113 C
HETATM   19 BR1  UNL     1       5.534   5.377  49.424  1.00  0.00    -0.095 Br
ENDBRANCH  17  18
ENDBRANCH  10  17
ENDBRANCH   9  10
ENDBRANCH   8   9
ENDBRANCH   5   8
ENDBRANCH   1   2
BRANCH   1  20
HETATM   20  C15 UNL     1      11.496   1.463  49.306  1.00  0.00     0.198 C
BRANCH  20  21
HETATM   21  N3  UNL     1      11.608   0.097  49.200  1.00  0.00    -0.378 NA
HETATM   22  C16 UNL     1      11.728  -1.274  49.095  1.00  0.00     0.327 C
HETATM   23  O1  UNL     1      12.755  -1.948  49.300  1.00  0.00    -0.251 OA
BRANCH  22  24
HETATM   24  C17 UNL     1      10.531  -2.053  48.662  1.00  0.00     0.069 A
HETATM   25  C18 UNL     1       9.382  -1.677  49.383  1.00  0.00     0.024 A
HETATM   26  C19 UNL     1       8.236  -2.398  49.212  1.00  0.00     0.049 A
HETATM   27  C20 UNL     1       8.168  -3.499  48.336  1.00  0.00     0.101 A
HETATM   28  N5  UNL     1       9.297  -3.798  47.677  1.00  0.00    -0.346 N
HETATM   29  C26 UNL     1      10.454  -3.093  47.834  1.00  0.00     0.023 A
ATOM     30  H5  UNL     1       9.290  -4.586  47.030  1.00  0.00     0.167 HD
HETATM   31  C27 UNL     1      11.677  -3.467  47.050  1.00  0.00     0.069 C
BRANCH  27  32
HETATM   32  N4  UNL     1       7.086  -4.092  48.298  1.00  0.00    -0.372 N
ATOM     33  H4  UNL     1       7.238  -5.097  48.379  1.00  0.00     0.161 HD
BRANCH  32  34
HETATM   34  C21 UNL     1       5.722  -3.825  48.181  1.00  0.00     0.083 C
HETATM   35  C22 UNL     1       5.057  -3.450  49.504  1.00  0.00     0.025 C
HETATM   36  C23 UNL     1       4.391  -2.134  49.300  1.00  0.00     0.002 C
HETATM   37  C24 UNL     1       4.539  -1.739  47.863  1.00  0.00     0.002 C
HETATM   38  C25 UNL     1       5.286  -2.848  47.147  1.00  0.00     0.025 C
ENDBRANCH  32  34
ENDBRANCH  27  32
ENDBRANCH  22  24
ENDBRANCH  20  21
ENDBRANCH   1  20
TORSDOF 15
ENDMDL