MODEL 4
REMARK VINA RESULT: -6.021025530      0.348      1.060
REMARK  2 active torsions:
REMARK  status: ('A' for Active; 'I' for Inactive)
REMARK    1  A    between atoms: C2_2  and  N1_4
REMARK    2  A    between atoms: N1_4  and  N2_6
ROOT
HETATM    1  N2  UNL     1      54.621  79.254  60.667  1.00  0.00    -0.313 N
ATOM      2  H2  UNL     1      54.795  80.244  60.840  1.00  0.00     0.186 HD
HETATM    3  C4  UNL     1      55.582  78.431  60.737  1.00  0.00     0.006 C
HETATM    4  C5  UNL     1      55.358  77.004  60.493  1.00  0.00     0.084 C
HETATM    5  C6  UNL     1      56.584  76.165  60.467  1.00  0.00     0.277 C
HETATM    6  N3  UNL     1      57.761  76.770  60.982  1.00  0.00     0.084 N
HETATM    7  C7  UNL     1      57.958  76.632  62.390  1.00  0.00     0.309 C
HETATM    8  C8  UNL     1      57.957  78.085  60.466  1.00  0.00     0.277 C
HETATM    9  C9  UNL     1      56.934  79.000  61.079  1.00  0.00     0.084 C
ENDROOT
BRANCH   1  10
HETATM   10  N1  UNL     1      53.345  78.835  60.361  1.00  0.00    -0.333 N
ATOM     11  H1  UNL     1      52.760  78.402  61.075  1.00  0.00     0.180 HD
BRANCH  10  12
HETATM   12  C2  UNL     1      52.836  79.020  58.994  1.00  0.00     0.091 C
HETATM   13  C1  UNL     1      51.322  79.105  59.063  1.00  0.00     0.033 C
HETATM   14  C3  UNL     1      53.350  80.396  58.563  1.00  0.00     0.033 C
ENDBRANCH  10  12
ENDBRANCH   1  10
TORSDOF 2
ENDMDL