MODEL 3
REMARK VINA RESULT: -5.792884436      0.951      1.570
REMARK  4 active torsions:
REMARK  status: ('A' for Active; 'I' for Inactive)
REMARK    1  A    between atoms: N1_1  and  S1_4
REMARK    2  A    between atoms: S1_4  and  C1_5
REMARK    3  A    between atoms: C1_5  and  N2_7
REMARK    4  A    between atoms: N2_7  and  C2_9
ROOT
HETATM    1  N2  UNL     1      54.868  78.667  60.828  1.00  0.00    -0.370 N
ATOM      2  H2  UNL     1      54.645  78.824  61.811  1.00  0.00     0.161 HD
ENDROOT
BRANCH   1   3
HETATM    3  C1  UNL     1      53.972  79.153  59.828  1.00  0.00     0.154 C
HETATM    4  S2  UNL     1      54.218  80.627  59.204  1.00  0.00    -0.051 SA
BRANCH   3   5
HETATM    5  S1  UNL     1      52.625  78.123  59.313  1.00  0.00     0.008 SA
BRANCH   5   6
HETATM    6  N1  UNL     1      51.222  79.091  58.906  1.00  0.00    -0.368 N
ATOM      7  H12 UNL     1      50.968  79.953  59.389  1.00  0.00     0.164 HD
ATOM      8  H11 UNL     1      50.708  78.675  58.130  1.00  0.00     0.164 HD
ENDBRANCH   5   6
ENDBRANCH   3   5
ENDBRANCH   1   3
BRANCH   1   9
HETATM    9  C2  UNL     1      56.086  77.956  60.488  1.00  0.00     0.083 C
HETATM   10  C3  UNL     1      57.254  78.804  60.863  1.00  0.00     0.025 C
HETATM   11  C4  UNL     1      58.578  78.103  60.683  1.00  0.00     0.002 C
HETATM   12  C5  UNL     1      58.566  76.709  61.253  1.00  0.00     0.000 C
HETATM   13  C6  UNL     1      57.313  76.428  62.052  1.00  0.00     0.002 C
HETATM   14  C7  UNL     1      56.059  76.638  61.227  1.00  0.00     0.025 C
ENDBRANCH   1   9
TORSDOF 4
ENDMDL