MODEL 4
REMARK VINA RESULT: -6.907057854      1.816      4.362
REMARK  2 active torsions:
REMARK  status: ('A' for Active; 'I' for Inactive)
REMARK    1  A    between atoms: C2_2  and  C3_3
REMARK    2  A    between atoms: C9_12  and  O1_13
ROOT
HETATM    1  O1  UNL     1      56.593  78.105  59.511  1.00  0.00    -0.275 OA
HETATM    2  C10 UNL     1      57.650  77.949  60.357  1.00  0.00     0.229 C
HETATM    3  N2  UNL     1      58.545  77.831  61.092  1.00  0.00    -0.164 NA
ENDROOT
BRANCH   1   4
HETATM    4  C9  UNL     1      55.333  77.672  59.921  1.00  0.00     0.177 C
HETATM    5  C3  UNL     1      54.601  78.693  60.765  1.00  0.00     0.149 C
HETATM    6  C4  UNL     1      54.080  77.932  61.990  1.00  0.00     0.049 C
HETATM    7  N1  UNL     1      53.464  79.264  60.120  1.00  0.00    -0.060 N
HETATM    8  C5  UNL     1      52.485  78.304  59.696  1.00  0.00     0.183 C
ATOM      9  H12 UNL     1      53.034  79.973  60.715  1.00  0.00     0.278 HD
ATOM     10  H11 UNL     1      53.753  79.849  59.336  1.00  0.00     0.278 HD
HETATM   11  C6  UNL     1      51.551  79.003  58.702  1.00  0.00     0.040 C
HETATM   12  C7  UNL     1      53.088  77.128  58.968  1.00  0.00     0.035 C
HETATM   13  C8  UNL     1      54.545  77.367  58.644  1.00  0.00     0.038 C
BRANCH   5  14
HETATM   14  C2  UNL     1      55.499  79.775  61.299  1.00  0.00     0.037 C
HETATM   15  C1  UNL     1      55.431  81.060  60.542  1.00  0.00     0.007 C
ENDBRANCH   5  14
ENDBRANCH   1   4
TORSDOF 2
ENDMDL