MODEL 1
REMARK VINA RESULT: -7.662035349      0.000      0.000
REMARK  2 active torsions:
REMARK  status: ('A' for Active; 'I' for Inactive)
REMARK    1  A    between atoms: C2_2  and  C9_11
REMARK    2  A    between atoms: N1_3  and  C3_5
ROOT
HETATM    1  C1  UNL     1      51.453  79.078  59.318  1.00  0.00     0.075 C
HETATM    2  C2  UNL     1      52.934  79.200  59.045  1.00  0.00     0.079 C
HETATM    3  N1  UNL     1      53.650  78.223  59.306  1.00  0.00    -0.383 N
ATOM      4  H1  UNL     1      53.119  77.438  59.685  1.00  0.00     0.160 HD
ENDROOT
BRANCH   3   5
HETATM    5  C3  UNL     1      55.041  77.939  59.202  1.00  0.00     0.081 C
HETATM    6  C4  UNL     1      55.811  78.824  60.142  1.00  0.00     0.025 C
HETATM    7  C5  UNL     1      55.841  78.370  61.558  1.00  0.00     0.002 C
HETATM    8  C6  UNL     1      55.387  76.935  61.736  1.00  0.00     0.000 C
HETATM    9  C7  UNL     1      56.084  76.157  60.636  1.00  0.00     0.002 C
HETATM   10  C8  UNL     1      55.326  76.474  59.377  1.00  0.00     0.025 C
ENDBRANCH   3   5
BRANCH   2  11
HETATM   11  C9  UNL     1      53.399  80.447  58.502  1.00  0.00     0.221 C
HETATM   12  O1  UNL     1      52.871  80.898  57.453  1.00  0.00    -0.643 OA
HETATM   13  O2  UNL     1      54.429  81.188  59.103  1.00  0.00    -0.643 OA
ENDBRANCH   2  11
TORSDOF 2
ENDMDL