MODEL 1
REMARK VINA RESULT: -5.217109094      0.000      0.000
REMARK  3 active torsions:
REMARK  status: ('A' for Active; 'I' for Inactive)
REMARK    1  A    between atoms: C2_2  and  C3_3
REMARK    2  A    between atoms: C6_7  and  O1_8
REMARK    3  A    between atoms: C6_7  and  N1_10
ROOT
HETATM    1  C3  UNL     1      54.044  79.682  60.491  1.00  0.00     0.113 C
HETATM    2  S1  UNL     1      53.254  80.156  58.906  1.00  0.00    -0.159 SA
HETATM    3  C4  UNL     1      52.012  78.797  59.052  1.00  0.00     0.079 C
HETATM    4  C5  UNL     1      52.874  77.726  59.590  1.00  0.00     0.083 C
HETATM    5  C6  UNL     1      53.985  78.216  60.442  1.00  0.00     0.271 C
ENDROOT
BRANCH   5   6
HETATM    6  O1  UNL     1      53.728  77.753  61.758  1.00  0.00    -0.362 OA
ATOM      7  H1  UNL     1      53.875  76.815  61.766  1.00  0.00     0.212 HD
ENDBRANCH   5   6
BRANCH   5   8
HETATM    8  N1  UNL     1      55.228  77.602  60.062  1.00  0.00     0.116 N
HETATM    9  C7  UNL     1      55.307  77.005  58.785  1.00  0.00     0.313 C
HETATM   10  C8  UNL     1      55.795  76.727  61.054  1.00  0.00     0.313 C
ENDBRANCH   5   8
BRANCH   1  11
HETATM   11  C2  UNL     1      55.331  80.348  60.749  1.00  0.00     0.015 C
HETATM   12  C1  UNL     1      55.814  81.148  59.529  1.00  0.00     0.006 C
ENDBRANCH   1  11
TORSDOF 3
ENDMDL