MODEL 1
REMARK VINA RESULT: -7.557930039      0.000      0.000
REMARK  3 active torsions:
REMARK  status: ('A' for Active; 'I' for Inactive)
REMARK    1  A    between atoms: N1_2  and  C2_5
REMARK    2  A    between atoms: C6_9  and  O1_10
REMARK    3  A    between atoms: O1_10  and  C7_11
ROOT
HETATM    1  C2  UNL     1      56.284  77.629  61.303  1.00  0.00     0.188 C
HETATM    2  C3  UNL     1      55.982  76.344  60.581  1.00  0.00     0.033 C
HETATM    3  C4  UNL     1      54.622  76.301  59.973  1.00  0.00     0.004 C
HETATM    4  C5  UNL     1      54.279  77.518  59.158  1.00  0.00     0.033 C
HETATM    5  C6  UNL     1      54.509  78.729  59.996  1.00  0.00     0.134 C
HETATM    6  C9  UNL     1      56.004  78.765  60.338  1.00  0.00     0.065 C
ENDROOT
BRANCH   1   7
HETATM    7  N1  UNL     1      57.701  77.691  61.611  1.00  0.00    -0.075 N
HETATM    8  C1  UNL     1      58.289  76.369  61.596  1.00  0.00     0.267 C
ATOM      9  H12 UNL     1      57.874  78.171  62.495  1.00  0.00     0.277 HD
ATOM     10  H11 UNL     1      58.194  78.331  60.989  1.00  0.00     0.277 HD
ENDBRANCH   1   7
BRANCH   5  11
HETATM   11  O1  UNL     1      54.231  79.942  59.319  1.00  0.00    -0.316 OA
BRANCH  11  12
HETATM   12  C7  UNL     1      53.005  80.133  58.685  1.00  0.00     0.255 C
HETATM   13  C8  UNL     1      51.772  79.403  59.079  1.00  0.00     0.126 C
HETATM   14  O2  UNL     1      52.990  80.970  57.743  1.00  0.00    -0.266 OA
ENDBRANCH  11  12
ENDBRANCH   5  11
TORSDOF 3
ENDMDL