MODEL 3
REMARK VINA RESULT: -5.297573871      1.628      1.946
REMARK  3 active torsions:
REMARK  status: ('A' for Active; 'I' for Inactive)
REMARK    1  A    between atoms: C2_2  and  C3_3
REMARK       I    between atoms: C3_3  and  N1_5
REMARK    2  A    between atoms: N1_5  and  O2_6
REMARK    3  A    between atoms: N1_5  and  C4_8
ROOT
HETATM    1  C3  UNL     1      56.312  78.823  60.805  1.00  0.00     0.243 C
HETATM    2  O1  UNL     1      56.963  79.460  61.717  1.00  0.00    -0.271 OA
HETATM    3  N1  UNL     1      55.151  79.427  60.312  1.00  0.00    -0.212 N
ENDROOT
BRANCH   3   4
HETATM    4  O2  UNL     1      54.800  80.645  60.851  1.00  0.00    -0.284 OA
ATOM      5  H2  UNL     1      55.251  80.913  61.644  1.00  0.00     0.245 HD
ENDBRANCH   3   4
BRANCH   3   6
HETATM    6  C4  UNL     1      54.270  78.926  59.291  1.00  0.00     0.200 A
HETATM    7  C5  UNL     1      53.060  78.159  59.812  1.00  0.00     0.125 A
HETATM    8  S1  UNL     1      51.644  79.074  59.174  1.00  0.00    -0.092 SA
HETATM    9  S2  UNL     1      53.286  80.167  58.460  1.00  0.00    -0.068 SA
ENDBRANCH   3   6
BRANCH   1  10
HETATM   10  C2  UNL     1      56.894  77.535  60.412  1.00  0.00     0.101 C
HETATM   11  C1  UNL     1      56.864  76.521  61.542  1.00  0.00     0.014 C
ENDBRANCH   1  10
TORSDOF 3
ENDMDL