MODEL 1
REMARK VINA RESULT: -6.123104365      0.000      0.000
REMARK  3 active torsions:
REMARK  status: ('A' for Active; 'I' for Inactive)
REMARK    1  A    between atoms: N1_2  and  N2_3
REMARK    2  A    between atoms: N1_2  and  N3_6
REMARK    3  A    between atoms: N4_8  and  C2_10
ROOT
HETATM    1  N3  UNL     1      54.902  80.825  59.640  1.00  0.00    -0.231 N
ATOM      2  H3  UNL     1      55.155  81.813  59.648  1.00  0.00     0.209 HD
HETATM    3  N4  UNL     1      55.698  80.024  60.214  1.00  0.00    -0.316 N
ATOM      4  H4  UNL     1      56.547  80.373  60.659  1.00  0.00     0.182 HD
ENDROOT
BRANCH   3   5
HETATM    5  C2  UNL     1      55.396  78.629  60.234  1.00  0.00     0.101 C
HETATM    6  C3  UNL     1      54.949  78.146  61.604  1.00  0.00     0.027 C
HETATM    7  C4  UNL     1      55.499  76.739  61.654  1.00  0.00     0.011 C
HETATM    8  C5  UNL     1      56.889  76.937  61.082  1.00  0.00    -0.046 C
HETATM    9  C6  UNL     1      57.547  75.638  60.731  1.00  0.00     0.015 C
HETATM   10  C7  UNL     1      57.749  77.799  61.978  1.00  0.00     0.015 C
HETATM   11  C8  UNL     1      56.577  77.768  59.845  1.00  0.00     0.035 C
ENDBRANCH   3   5
BRANCH   1  12
HETATM   12  N1  UNL     1      53.727  80.484  59.006  1.00  0.00    -0.231 N
HETATM   13  C1  UNL     1      52.603  80.033  59.839  1.00  0.00     0.201 C
BRANCH  12  14
HETATM   14  N2  UNL     1      53.499  80.528  57.638  1.00  0.00    -0.328 N
ATOM     15  H22 UNL     1      52.586  80.550  57.184  1.00  0.00     0.178 HD
ATOM     16  H21 UNL     1      54.327  80.538  57.042  1.00  0.00     0.178 HD
ENDBRANCH  12  14
ENDBRANCH   1  12
TORSDOF 3
ENDMDL