MODEL 1
REMARK VINA RESULT: -6.137611321      0.000      0.000
REMARK  3 active torsions:
REMARK  status: ('A' for Active; 'I' for Inactive)
REMARK    1  A    between atoms: C2_2  and  S1_3
REMARK    2  A    between atoms: S1_3  and  C3_4
REMARK    3  A    between atoms: C6_7  and  O1_8
ROOT
HETATM    1  C3  UNL     1      54.903  78.423  60.231  1.00  0.00     0.056 C
HETATM    2  C4  UNL     1      54.999  79.910  60.140  1.00  0.00     0.019 C
HETATM    3  C5  UNL     1      53.694  80.631  60.247  1.00  0.00     0.044 C
HETATM    4  C6  UNL     1      52.724  80.308  59.148  1.00  0.00     0.179 C
HETATM    5  S2  UNL     1      52.523  78.506  58.999  1.00  0.00    -0.137 SA
HETATM    6  C7  UNL     1      54.185  77.798  59.067  1.00  0.00     0.091 C
ENDROOT
BRANCH   1   7
HETATM    7  S1  UNL     1      56.608  77.775  60.178  1.00  0.00    -0.164 SA
BRANCH   7   8
HETATM    8  C2  UNL     1      56.854  76.415  61.325  1.00  0.00     0.070 C
HETATM    9  C1  UNL     1      58.294  76.204  61.712  1.00  0.00     0.016 C
ENDBRANCH   7   8
ENDBRANCH   1   7
BRANCH   4  10
HETATM   10  O1  UNL     1      53.144  80.795  57.925  1.00  0.00    -0.385 OA
ATOM     11  H1  UNL     1      52.504  80.641  57.240  1.00  0.00     0.211 HD
ENDBRANCH   4  10
TORSDOF 3
ENDMDL