MODEL 3
REMARK VINA RESULT: -7.169271749      1.781      6.117
REMARK  6 active torsions:
REMARK  status: ('A' for Active; 'I' for Inactive)
REMARK    1  A    between atoms: C2_2  and  C3_3
REMARK    2  A    between atoms: C3_3  and  C4_4
REMARK    3  A    between atoms: C4_4  and  O1_5
REMARK    4  A    between atoms: C12_14  and  C13_15
REMARK    5  A    between atoms: C16_18  and  O2_19
REMARK    6  A    between atoms: C17_21  and  C18_22
ROOT
HETATM    1  C3  UNL     1      52.712 -12.951   9.946  1.00  0.00    -0.015 C
HETATM    2  C5  UNL     1      53.271 -12.262  11.151  1.00  0.00     0.013 C
HETATM    3  C6  UNL     1      53.251 -10.770  10.927  1.00  0.00     0.015 C
HETATM    4  C7  UNL     1      53.210 -10.665   9.365  1.00  0.00    -0.011 C
HETATM    5  C8  UNL     1      54.644 -10.935   9.102  1.00  0.00     0.021 C
HETATM    6  C9  UNL     1      52.650  -9.376   8.939  1.00  0.00    -0.035 A
HETATM    7  C10 UNL     1      53.407  -8.506   8.146  1.00  0.00    -0.041 A
HETATM    8  C11 UNL     1      54.470  -9.010   7.271  1.00  0.00     0.050 C
HETATM    9  C12 UNL     1      52.977  -7.201   7.884  1.00  0.00     0.006 A
HETATM   10  C16 UNL     1      51.757  -6.799   8.427  1.00  0.00     0.094 A
HETATM   11  C17 UNL     1      50.967  -7.670   9.216  1.00  0.00     0.081 A
HETATM   12  C19 UNL     1      51.435  -8.958   9.460  1.00  0.00    -0.031 A
HETATM   13  C20 UNL     1      50.560  -9.947  10.130  1.00  0.00     0.041 C
HETATM   14  C21 UNL     1      50.998 -11.346  10.087  1.00  0.00     0.011 C
HETATM   15  C22 UNL     1      52.190 -11.734   9.203  1.00  0.00     0.009 C
ENDROOT
BRANCH   1  16
HETATM   16  C2  UNL     1      51.565 -13.874  10.369  1.00  0.00     0.007 C
HETATM   17  C1  UNL     1      51.934 -14.755  11.525  1.00  0.00     0.006 C
ENDBRANCH   1  16
BRANCH   1  18
HETATM   18  C4  UNL     1      53.605 -13.852   9.190  1.00  0.00     0.173 C
BRANCH  18  19
HETATM   19  O1  UNL     1      53.208 -13.881   7.808  1.00  0.00    -0.400 OA
ATOM     20  H1  UNL     1      53.955 -14.100   7.265  1.00  0.00     0.209 HD
ENDBRANCH  18  19
ENDBRANCH   1  18
BRANCH   9  21
HETATM   21  C13 UNL     1      53.941  -6.286   7.261  1.00  0.00    -0.074 C
HETATM   22  C14 UNL     1      54.926  -5.535   8.059  1.00  0.00     0.044 C
HETATM   23  C15 UNL     1      53.744  -5.895   5.829  1.00  0.00     0.044 C
ENDBRANCH   9  21
BRANCH  11  24
HETATM   24  C18 UNL     1      49.726  -7.196   9.765  1.00  0.00     0.212 C
HETATM   25  O3  UNL     1      48.811  -6.763   9.009  1.00  0.00    -0.644 OA
HETATM   26  O4  UNL     1      49.441  -7.181  11.109  1.00  0.00    -0.644 OA
ENDBRANCH  11  24
BRANCH  10  27
HETATM   27  O2  UNL     1      51.311  -5.539   8.197  1.00  0.00    -0.359 OA
ATOM     28  H2  UNL     1      50.886  -5.060   8.900  1.00  0.00     0.217 HD
ENDBRANCH  10  27
TORSDOF 6
ENDMDL