MODEL 3
REMARK VINA RESULT: -8.200989903      2.604      8.454
REMARK  6 active torsions:
REMARK  status: ('A' for Active; 'I' for Inactive)
REMARK    1  A    between atoms: C5_5  and  C6_6
REMARK    2  A    between atoms: C6_6  and  N1_7
REMARK    3  A    between atoms: N1_7  and  C7_9
REMARK    4  A    between atoms: C9_13  and  C10_14
REMARK    5  A    between atoms: C11_17  and  N4_18
REMARK    6  A    between atoms: C13_24  and  C14_25
ROOT
HETATM    1  C7  UNL     1      51.056  -7.137   8.343  1.00  0.00     0.678 A
HETATM    2  N2  UNL     1      52.200  -7.805   8.409  1.00  0.00    -0.200 N
ATOM      3  H2  UNL     1      52.506  -8.408   9.173  1.00  0.00     0.183 HD
HETATM    4  C8  UNL     1      52.897  -7.531   7.257  1.00  0.00     0.138 A
HETATM    5  C9  UNL     1      52.190  -6.693   6.469  1.00  0.00     0.093 A
HETATM    6  N6  UNL     1      51.045  -6.471   7.187  1.00  0.00    -0.188 N
ATOM      7  H6  UNL     1      50.280  -5.873   6.876  1.00  0.00     0.184 HD
ENDROOT
BRANCH   5   8
HETATM    8  C10 UNL     1      52.394  -6.077   5.162  1.00  0.00     0.086 A
HETATM    9  N3  UNL     1      51.292  -5.951   4.346  1.00  0.00    -0.189 N
HETATM   10  C11 UNL     1      51.294  -5.434   3.133  1.00  0.00     0.676 A
ATOM     11  H3  UNL     1      50.399  -6.286   4.710  1.00  0.00     0.184 HD
HETATM   12  N5  UNL     1      52.442  -4.981   2.614  1.00  0.00    -0.202 N
HETATM   13  C12 UNL     1      53.569  -5.068   3.353  1.00  0.00     0.116 A
ATOM     14  H5  UNL     1      52.466  -4.578   1.677  1.00  0.00     0.183 HD
HETATM   15  C13 UNL     1      53.563  -5.619   4.641  1.00  0.00    -0.008 A
BRANCH  10  16
HETATM   16  N4  UNL     1      50.244  -5.331   2.394  1.00  0.00    -0.234 N
ATOM     17  H42 UNL     1      49.346  -5.299   2.876  1.00  0.00     0.174 HD
ATOM     18  H41 UNL     1      50.268  -5.280   1.375  1.00  0.00     0.174 HD
ENDBRANCH  10  16
BRANCH  15  19
HETATM   19  C14 UNL     1      54.828  -5.623   5.364  1.00  0.00     0.022 C
HETATM   20  C15 UNL     1      55.997  -5.094   4.534  1.00  0.00     0.009 C
HETATM   21  C16 UNL     1      56.199  -3.660   4.896  1.00  0.00     0.001 C
HETATM   22  C17 UNL     1      55.102  -3.312   5.855  1.00  0.00     0.001 C
HETATM   23  C18 UNL     1      54.797  -4.634   6.538  1.00  0.00     0.009 C
ENDBRANCH  15  19
ENDBRANCH   5   8
BRANCH   1  24
HETATM   24  N1  UNL     1      50.097  -7.127   9.246  1.00  0.00    -0.226 N
ATOM     25  H1  UNL     1      49.298  -6.506   9.122  1.00  0.00     0.177 HD
BRANCH  24  26
HETATM   26  C6  UNL     1      50.160  -7.980  10.409  1.00  0.00     0.142 C
BRANCH  26  27
HETATM   27  C5  UNL     1      48.723  -8.421  10.696  1.00  0.00     0.004 C
HETATM   28  C4  UNL     1      48.072  -7.418  11.604  1.00  0.00     0.006 C
HETATM   29  C3  UNL     1      46.671  -7.811  11.940  1.00  0.00     0.005 C
HETATM   30  C2  UNL     1      46.579  -9.167  12.571  1.00  0.00    -0.019 C
HETATM   31  C1  UNL     1      46.103  -9.054  14.022  1.00  0.00     0.010 C
HETATM   32  C20 UNL     1      47.917  -9.845  12.609  1.00  0.00     0.005 C
HETATM   33  C19 UNL     1      48.659  -9.786  11.307  1.00  0.00     0.006 C
ENDBRANCH  26  27
ENDBRANCH  24  26
ENDBRANCH   1  24
TORSDOF 6
ENDMDL