MODEL 2
REMARK VINA RESULT: -8.529955345      0.891      1.141
REMARK  7 active torsions:
REMARK  status: ('A' for Active; 'I' for Inactive)
REMARK    1  A    between atoms: O1_2  and  C2_3
REMARK    2  A    between atoms: C4_5  and  C5_6
REMARK    3  A    between atoms: C6_7  and  C7_8
REMARK    4  A    between atoms: C12_13  and  C13_14
REMARK    5  A    between atoms: C14_15  and  C15_16
REMARK    6  A    between atoms: C17_20  and  N2_21
REMARK    7  A    between atoms: C19_30  and  O2_31
ROOT
HETATM    1  C2  UNL     1      53.734  -7.580   7.276  1.00  0.00     0.072 A
HETATM    2  C3  UNL     1      53.702  -8.711   8.048  1.00  0.00     0.058 A
HETATM    3  C4  UNL     1      52.621  -9.022   8.899  1.00  0.00     0.033 A
HETATM    4  C12 UNL     1      51.590  -8.151   8.925  1.00  0.00     0.016 A
HETATM    5  C19 UNL     1      51.620  -6.972   8.126  1.00  0.00     0.082 A
HETATM    6  C21 UNL     1      52.678  -6.704   7.322  1.00  0.00     0.074 A
ENDROOT
BRANCH   4   7
HETATM    7  C13 UNL     1      50.343  -8.439   9.653  1.00  0.00     0.017 C
HETATM    8  C14 UNL     1      50.070  -8.291  10.887  1.00  0.00     0.017 C
BRANCH   8   9
HETATM    9  C15 UNL     1      48.805  -8.584  11.564  1.00  0.00     0.024 A
HETATM   10  C16 UNL     1      48.703  -9.866  12.143  1.00  0.00     0.121 A
HETATM   11  N1  UNL     1      47.583 -10.212  12.765  1.00  0.00    -0.201 N
HETATM   12  C17 UNL     1      46.568  -9.342  12.837  1.00  0.00     0.677 A
ATOM     13  H1  UNL     1      47.497 -11.136  13.187  1.00  0.00     0.183 HD
HETATM   14  N3  UNL     1      46.603  -8.136  12.319  1.00  0.00    -0.177 N
HETATM   15  C18 UNL     1      47.742  -7.695  11.648  1.00  0.00     0.126 A
ATOM     16  H3  UNL     1      45.795  -7.521  12.407  1.00  0.00     0.186 HD
HETATM   17  N4  UNL     1      47.732  -6.572  11.211  1.00  0.00    -0.384 N
ATOM     18  H42 UNL     1      48.566  -6.249  10.719  1.00  0.00     0.157 HD
ATOM     19  H41 UNL     1      46.951  -5.919  11.272  1.00  0.00     0.157 HD
BRANCH  12  20
HETATM   20  N2  UNL     1      45.508  -9.747  13.460  1.00  0.00    -0.234 N
ATOM     21  H22 UNL     1      45.292 -10.742  13.503  1.00  0.00     0.174 HD
ATOM     22  H21 UNL     1      44.929  -9.023  13.886  1.00  0.00     0.174 HD
ENDBRANCH  12  20
ENDBRANCH   8   9
ENDBRANCH   4   7
BRANCH   3  23
HETATM   23  C5  UNL     1      52.746 -10.173   9.760  1.00  0.00    -0.066 C
HETATM   24  C6  UNL     1      52.896 -11.128  10.484  1.00  0.00    -0.096 C
BRANCH  24  25
HETATM   25  C7  UNL     1      53.094 -12.297  11.339  1.00  0.00     0.065 C
HETATM   26  C8  UNL     1      52.446 -12.046  12.710  1.00  0.00     0.017 C
HETATM   27  C9  UNL     1      52.150 -13.421  13.213  1.00  0.00     0.001 C
HETATM   28  C10 UNL     1      52.148 -14.346  11.994  1.00  0.00     0.001 C
HETATM   29  C11 UNL     1      52.197 -13.402  10.822  1.00  0.00     0.017 C
ENDBRANCH  24  25
ENDBRANCH   3  23
BRANCH   5  30
HETATM   30  O2  UNL     1      50.522  -6.118   8.209  1.00  0.00    -0.355 OA
HETATM   31  C20 UNL     1      50.267  -5.263   7.117  1.00  0.00     0.210 C
ENDBRANCH   5  30
BRANCH   1  32
HETATM   32  O1  UNL     1      54.830  -7.342   6.467  1.00  0.00    -0.356 OA
HETATM   33  C1  UNL     1      54.990  -6.088   5.845  1.00  0.00     0.210 C
ENDBRANCH   1  32
TORSDOF 7
ENDMDL