MODEL 2
REMARK VINA RESULT: -8.190447790      0.669      1.094
REMARK  8 active torsions:
REMARK  status: ('A' for Active; 'I' for Inactive)
REMARK    1  A    between atoms: C2_2  and  C5_5
REMARK    2  A    between atoms: C5_5  and  C6_6
REMARK    3  A    between atoms: C7_7  and  C8_8
REMARK    4  A    between atoms: C8_8  and  O1_9
REMARK    5  A    between atoms: C8_8  and  N1_11
REMARK    6  A    between atoms: N1_11  and  C9_13
REMARK    7  A    between atoms: C15_23  and  N4_24
REMARK    8  A    between atoms: N4_24  and  C16_26
ROOT
HETATM    1  C9  UNL     1      49.104  -7.722  10.719  1.00  0.00     0.131 A
HETATM    2  N2  UNL     1      48.119  -6.837  10.760  1.00  0.00    -0.348 N
ATOM      3  H2  UNL     1      48.245  -5.959  10.256  1.00  0.00     0.167 HD
HETATM    4  C10 UNL     1      46.961  -7.021  11.425  1.00  0.00     0.120 A
HETATM    5  C11 UNL     1      46.789  -8.220  12.114  1.00  0.00     0.060 A
HETATM    6  N3  UNL     1      45.769  -8.682  12.858  1.00  0.00    -0.364 N
ATOM      7  H3  UNL     1      44.894  -8.193  13.046  1.00  0.00     0.165 HD
HETATM    8  C12 UNL     1      46.104  -9.892  13.306  1.00  0.00     0.089 A
HETATM    9  C13 UNL     1      47.351 -10.239  12.863  1.00  0.00     0.033 A
HETATM   10  C14 UNL     1      47.802  -9.185  12.102  1.00  0.00     0.023 A
HETATM   11  C15 UNL     1      48.954  -8.914  11.395  1.00  0.00     0.085 A
ENDROOT
BRANCH   1  12
HETATM   12  N1  UNL     1      50.170  -7.497  10.079  1.00  0.00    -0.338 N
ATOM     13  H1  UNL     1      51.026  -7.492  10.635  1.00  0.00     0.164 HD
BRANCH  12  14
HETATM   14  C8  UNL     1      50.339  -7.248   8.690  1.00  0.00     0.301 C
BRANCH  14  15
HETATM   15  C7  UNL     1      51.741  -7.011   8.304  1.00  0.00    -0.053 C
HETATM   16  C6  UNL     1      52.889  -6.819   7.988  1.00  0.00    -0.101 C
BRANCH  16  17
HETATM   17  C5  UNL     1      54.279  -6.575   7.599  1.00  0.00     0.102 C
BRANCH  17  18
HETATM   18  C2  UNL     1      54.243  -5.586   6.439  1.00  0.00    -0.041 C
HETATM   19  C1  UNL     1      53.689  -4.244   6.918  1.00  0.00     0.015 C
HETATM   20  C3  UNL     1      53.353  -6.068   5.332  1.00  0.00     0.015 C
HETATM   21  C4  UNL     1      55.651  -5.368   5.979  1.00  0.00     0.015 C
ENDBRANCH  17  18
ENDBRANCH  16  17
ENDBRANCH  14  15
BRANCH  14  22
HETATM   22  O1  UNL     1      49.487  -6.276   8.173  1.00  0.00    -0.366 OA
ATOM     23  H1  UNL     1      49.078  -5.762   8.860  1.00  0.00     0.213 HD
ENDBRANCH  14  22
ENDBRANCH  12  14
ENDBRANCH   1  12
BRANCH  11  24
HETATM   24  N4  UNL     1      50.008  -9.881  11.373  1.00  0.00    -0.382 N
ATOM     25  H4  UNL     1      50.609  -9.948  12.193  1.00  0.00     0.160 HD
BRANCH  24  26
HETATM   26  C16 UNL     1      50.272 -10.761  10.274  1.00  0.00     0.082 C
HETATM   27  C17 UNL     1      51.716 -10.643   9.861  1.00  0.00     0.025 C
HETATM   28  C18 UNL     1      52.413 -11.986   9.832  1.00  0.00     0.002 C
HETATM   29  C19 UNL     1      51.653 -12.978   8.964  1.00  0.00     0.000 C
HETATM   30  C20 UNL     1      50.187 -12.979   9.267  1.00  0.00     0.002 C
HETATM   31  C21 UNL     1      49.941 -12.204  10.560  1.00  0.00     0.025 C
ENDBRANCH  24  26
ENDBRANCH  11  24
TORSDOF 8
ENDMDL