MODEL 1
REMARK VINA RESULT: -8.355060813      0.000      0.000
REMARK  7 active torsions:
REMARK  status: ('A' for Active; 'I' for Inactive)
REMARK    1  A    between atoms: C3_3  and  C4_4
REMARK    2  A    between atoms: C9_11  and  N2_12
REMARK    3  A    between atoms: N2_12  and  C10_14
REMARK    4  A    between atoms: C13_17  and  N3_18
REMARK       I    between atoms: N3_18  and  C14_20
REMARK    5  A    between atoms: C14_20  and  O2_22
REMARK    6  A    between atoms: O2_22  and  C15_23
REMARK    7  A    between atoms: C15_23  and  O3_25
ROOT
HETATM    1  C10 UNL     1      51.381  -7.146   8.867  1.00  0.00     0.081 C
HETATM    2  C11 UNL     1      51.026  -6.350   7.582  1.00  0.00     0.027 C
HETATM    3  C12 UNL     1      52.093  -5.288   7.510  1.00  0.00     0.027 C
HETATM    4  C13 UNL     1      53.415  -5.977   7.342  1.00  0.00     0.086 C
HETATM    5  C17 UNL     1      53.317  -7.487   7.297  1.00  0.00     0.027 C
HETATM    6  C18 UNL     1      52.510  -8.009   8.502  1.00  0.00     0.027 C
ENDROOT
BRANCH   1   7
HETATM    7  N2  UNL     1      50.168  -7.568   9.402  1.00  0.00    -0.388 N
ATOM      8  H2  UNL     1      49.291  -7.159   9.078  1.00  0.00     0.159 HD
BRANCH   7   9
HETATM    9  C9  UNL     1      50.165  -8.547  10.375  1.00  0.00     0.018 C
HETATM   10  C8  UNL     1      49.051  -8.741  11.294  1.00  0.00     0.017 A
HETATM   11  C2  UNL     1      47.892  -8.135  11.755  1.00  0.00    -0.025 A
HETATM   12  C7  UNL     1      49.366  -9.817  12.076  1.00  0.00     0.022 A
HETATM   13  C1  UNL     1      47.283  -6.924  11.219  1.00  0.00     0.051 C
HETATM   14  C3  UNL     1      47.539  -8.894  12.857  1.00  0.00     0.019 A
HETATM   15  N1  UNL     1      48.410  -9.895  13.049  1.00  0.00    -0.361 N
ATOM     16  H1  UNL     1      48.367 -10.592  13.792  1.00  0.00     0.165 HD
HETATM   17  C20 UNL     1      50.575 -10.506  11.542  1.00  0.00     0.064 C
HETATM   18  C19 UNL     1      50.830  -9.837  10.193  1.00  0.00     0.063 C
BRANCH  14  19
HETATM   19  C4  UNL     1      46.289  -8.609  13.628  1.00  0.00     0.028 C
HETATM   20  C5  UNL     1      46.705  -8.461  15.100  1.00  0.00     0.016 C
HETATM   21  C6  UNL     1      45.466  -9.927  13.643  1.00  0.00     0.016 C
ENDBRANCH  14  19
ENDBRANCH   7   9
ENDBRANCH   1   7
BRANCH   4  22
HETATM   22  N3  UNL     1      54.073  -5.385   6.213  1.00  0.00    -0.332 N
HETATM   23  C14 UNL     1      54.984  -4.328   6.118  1.00  0.00     0.363 C
HETATM   24  O1  UNL     1      55.367  -3.740   7.151  1.00  0.00    -0.238 OA
ATOM     25  H3  UNL     1      53.833  -5.813   5.318  1.00  0.00     0.165 HD
BRANCH  23  26
HETATM   26  O2  UNL     1      55.481  -3.908   4.906  1.00  0.00    -0.273 OA
BRANCH  26  27
HETATM   27  C15 UNL     1      56.772  -3.471   4.608  1.00  0.00     0.264 C
HETATM   28  C16 UNL     1      56.854  -3.312   3.098  1.00  0.00     0.071 C
BRANCH  27  29
HETATM   29  O3  UNL     1      57.091  -2.222   5.140  1.00  0.00    -0.371 OA
ATOM     30  H3  UNL     1      56.937  -2.146   6.074  1.00  0.00     0.212 HD
ENDBRANCH  27  29
ENDBRANCH  26  27
ENDBRANCH  23  26
ENDBRANCH   4  22
TORSDOF 7
ENDMDL