MODEL 5
REMARK VINA RESULT: -7.989898377      1.235      2.221
REMARK  5 active torsions:
REMARK  status: ('A' for Active; 'I' for Inactive)
REMARK    1  A    between atoms: C2_2  and  N1_4
REMARK       I    between atoms: N1_4  and  C4_6
REMARK    2  A    between atoms: C4_6  and  C5_8
REMARK    3  A    between atoms: C8_11  and  C9_12
REMARK       I    between atoms: C9_12  and  N2_14
REMARK    4  A    between atoms: N2_14  and  N3_16
REMARK    5  A    between atoms: N3_16  and  C10_18
ROOT
HETATM    1  C9  UNL     1      51.761  -7.029   8.422  1.00  0.00     0.269 C
HETATM    2  O2  UNL     1      51.647  -5.809   8.181  1.00  0.00    -0.266 OA
HETATM    3  N2  UNL     1      52.804  -7.765   7.783  1.00  0.00    -0.269 N
ATOM      4  H2  UNL     1      52.849  -8.765   7.979  1.00  0.00     0.190 HD
ENDROOT
BRANCH   1   5
HETATM    5  C8  UNL     1      50.865  -7.706   9.343  1.00  0.00     0.033 A
HETATM    6  C7  UNL     1      49.644  -7.109   9.616  1.00  0.00     0.018 A
HETATM    7  C6  UNL     1      48.788  -7.674  10.523  1.00  0.00     0.018 A
HETATM    8  C5  UNL     1      49.143  -8.838  11.169  1.00  0.00     0.032 A
HETATM    9  C21 UNL     1      50.364  -9.410  10.880  1.00  0.00     0.018 A
HETATM   10  C20 UNL     1      51.235  -8.858   9.970  1.00  0.00     0.018 A
BRANCH   8  11
HETATM   11  C4  UNL     1      48.263  -9.451  12.145  1.00  0.00     0.251 C
HETATM   12  N1  UNL     1      47.607  -8.715  13.187  1.00  0.00    -0.353 N
ATOM     13  H1  UNL     1      47.741  -7.705  13.233  1.00  0.00     0.163 HD
HETATM   14  O1  UNL     1      48.092 -10.714  12.046  1.00  0.00    -0.268 OA
BRANCH  12  15
HETATM   15  C2  UNL     1      46.771  -9.346  14.166  1.00  0.00     0.076 C
HETATM   16  C1  UNL     1      46.560  -8.388  15.345  1.00  0.00     0.032 C
HETATM   17  C3  UNL     1      45.447  -9.842  13.722  1.00  0.00     0.032 C
ENDBRANCH  12  15
ENDBRANCH   8  11
ENDBRANCH   1   5
BRANCH   3  18
HETATM   18  N3  UNL     1      53.699  -7.287   6.977  1.00  0.00    -0.324 N
ATOM     19  H3  UNL     1      53.342  -7.227   6.024  1.00  0.00     0.181 HD
BRANCH  18  20
HETATM   20  C10 UNL     1      54.996  -6.838   7.051  1.00  0.00     0.047 C
HETATM   21  C11 UNL     1      55.038  -5.511   7.839  1.00  0.00     0.037 C
HETATM   22  C12 UNL     1      56.390  -4.907   7.737  1.00  0.00    -0.012 C
HETATM   23  C13 UNL     1      57.466  -5.806   8.265  1.00  0.00     0.009 C
HETATM   24  C17 UNL     1      56.738  -4.589   6.292  1.00  0.00     0.009 C
HETATM   25  C14 UNL     1      57.424  -7.077   7.461  1.00  0.00    -0.012 C
HETATM   26  C15 UNL     1      57.732  -6.823   6.029  1.00  0.00     0.009 C
HETATM   27  C19 UNL     1      56.055  -7.694   7.669  1.00  0.00     0.037 C
HETATM   28  C16 UNL     1      56.692  -5.862   5.460  1.00  0.00    -0.012 C
HETATM   29  C18 UNL     1      55.349  -6.450   5.590  1.00  0.00     0.037 C
ENDBRANCH  18  20
ENDBRANCH   3  18
TORSDOF 5
ENDMDL