MODEL 2
REMARK VINA RESULT: -9.194153807      7.330      9.020
REMARK  6 active torsions:
REMARK  status: ('A' for Active; 'I' for Inactive)
REMARK    1  A    between atoms: C2_2  and  C3_3
REMARK    2  A    between atoms: C6_6  and  C7_7
REMARK    3  A    between atoms: C8_8  and  C9_9
REMARK    4  A    between atoms: C10_10  and  C11_11
REMARK    5  A    between atoms: C11_11  and  O1_12
REMARK    6  A    between atoms: N1_14  and  O2_16
ROOT
HETATM    1  C3  UNL     1      52.484  -6.700   6.334  1.00  0.00    -0.028 A
HETATM    2  C4  UNL     1      51.260  -6.238   6.754  1.00  0.00     0.010 A
HETATM    3  C5  UNL     1      50.716  -6.644   7.934  1.00  0.00     0.012 A
HETATM    4  C6  UNL     1      51.361  -7.546   8.782  1.00  0.00    -0.036 A
HETATM    5  C12 UNL     1      52.588  -8.028   8.376  1.00  0.00     0.012 A
HETATM    6  C13 UNL     1      53.133  -7.589   7.147  1.00  0.00     0.010 A
ENDROOT
BRANCH   1   7
HETATM    7  C2  UNL     1      53.116  -6.256   5.104  1.00  0.00     0.084 C
HETATM    8  C1  UNL     1      53.867  -7.455   4.440  1.00  0.00     0.046 C
HETATM    9  N2  UNL     1      52.131  -5.880   4.126  1.00  0.00    -0.328 N
HETATM   10  C14 UNL     1      52.855  -5.172   3.093  1.00  0.00     0.317 C
ATOM     11  H2  UNL     1      51.129  -6.073   4.154  1.00  0.00     0.165 HD
HETATM   12  O3  UNL     1      52.623  -5.158   1.897  1.00  0.00    -0.247 OA
HETATM   13  N3  UNL     1      53.910  -4.479   3.817  1.00  0.00    -0.331 N
HETATM   14  C15 UNL     1      54.042  -5.136   5.102  1.00  0.00     0.068 C
ATOM     15  H3  UNL     1      54.454  -3.683   3.483  1.00  0.00     0.165 HD
HETATM   16  C16 UNL     1      54.055  -4.163   6.224  1.00  0.00     0.039 C
HETATM   17  C21 UNL     1      55.513  -5.432   5.323  1.00  0.00     0.021 C
HETATM   18  C17 UNL     1      55.574  -4.207   6.209  1.00  0.00    -0.006 C
HETATM   19  C18 UNL     1      56.261  -3.114   5.468  1.00  0.00     0.005 C
HETATM   20  C19 UNL     1      57.022  -3.802   4.344  1.00  0.00     0.001 C
HETATM   21  C20 UNL     1      56.412  -5.171   4.145  1.00  0.00     0.007 C
ENDBRANCH   1   7
BRANCH   4  22
HETATM   22  C7  UNL     1      50.842  -7.923  10.086  1.00  0.00     0.011 C
HETATM   23  C8  UNL     1      50.178  -9.053  10.233  1.00  0.00     0.001 C
BRANCH  23  24
HETATM   24  C9  UNL     1      49.665  -9.450  11.519  1.00  0.00     0.004 C
HETATM   25  C10 UNL     1      48.572  -9.094  12.113  1.00  0.00     0.057 C
BRANCH  25  26
HETATM   26  C11 UNL     1      47.557  -8.197  11.695  1.00  0.00     0.159 C
HETATM   27  N1  UNL     1      47.689  -7.214  10.940  1.00  0.00    -0.248 N
ATOM     28  H1  UNL     1      48.615  -7.014  10.564  1.00  0.00     0.196 HD
BRANCH  26  29
HETATM   29  O1  UNL     1      46.199  -8.439  12.202  1.00  0.00    -0.345 OA
ATOM     30  H1  UNL     1      46.017  -8.178  13.098  1.00  0.00     0.219 HD
ENDBRANCH  26  29
BRANCH  27  31
HETATM   31  O2  UNL     1      46.628  -6.370  10.581  1.00  0.00    -0.288 OA
ATOM     32  H2  UNL     1      46.701  -5.693   9.918  1.00  0.00     0.244 HD
ENDBRANCH  27  31
ENDBRANCH  25  26
ENDBRANCH  23  24
ENDBRANCH   4  22
TORSDOF 6
ENDMDL