MODEL 2
REMARK VINA RESULT: -6.082632756      4.146      7.335
REMARK  7 active torsions:
REMARK  status: ('A' for Active; 'I' for Inactive)
REMARK    1  A    between atoms: C4_4  and  C5_5
REMARK    2  A    between atoms: C7_10  and  O1_11
REMARK    3  A    between atoms: C11_16  and  C12_17
REMARK    4  A    between atoms: C13_18  and  C14_19
REMARK    5  A    between atoms: C15_20  and  O2_22
REMARK    6  A    between atoms: C20_27  and  C22_29
REMARK    7  A    between atoms: C22_29  and  N2_30
ROOT
HETATM    1  C12 UNL     1      53.764 -11.592  12.406  1.00  0.00    -0.020 C
HETATM    2  C13 UNL     1      54.303 -10.414  12.567  1.00  0.00     0.003 C
ENDROOT
BRANCH   1   3
HETATM    3  C11 UNL     1      52.573 -12.029  11.712  1.00  0.00     0.032 C
HETATM    4  C5  UNL     1      52.220 -11.481  10.386  1.00  0.00     0.065 C
HETATM    5  C6  UNL     1      53.348 -11.934   9.533  1.00  0.00     0.018 C
HETATM    6  N1  UNL     1      54.058 -11.392   8.655  1.00  0.00    -0.403 N
HETATM    7  C7  UNL     1      53.514 -13.377   9.954  1.00  0.00     0.172 C
ATOM      8  H12 UNL     1      53.947 -10.418   8.371  1.00  0.00     0.155 HD
ATOM      9  H11 UNL     1      54.833 -11.703   8.069  1.00  0.00     0.155 HD
HETATM   10  C8  UNL     1      52.790 -13.506  11.279  1.00  0.00    -0.009 C
HETATM   11  C9  UNL     1      53.638 -14.202  12.319  1.00  0.00     0.018 C
HETATM   12  C10 UNL     1      51.477 -14.226  11.163  1.00  0.00     0.018 C
BRANCH   4  13
HETATM   13  C4  UNL     1      51.810 -10.105  10.262  1.00  0.00    -0.014 C
HETATM   14  C2  UNL     1      50.525  -9.785  10.380  1.00  0.00    -0.091 C
HETATM   15  C1  UNL     1      49.502 -10.842  10.642  1.00  0.00     0.042 C
HETATM   16  C3  UNL     1      50.081  -8.367  10.255  1.00  0.00     0.042 C
ENDBRANCH   4  13
BRANCH   7  17
HETATM   17  O1  UNL     1      54.825 -13.777   9.981  1.00  0.00    -0.389 OA
ATOM     18  H1  UNL     1      54.925 -14.702  10.175  1.00  0.00     0.210 HD
ENDBRANCH   7  17
ENDBRANCH   1   3
BRANCH   2  19
HETATM   19  C14 UNL     1      55.547 -10.084  13.315  1.00  0.00    -0.037 C
HETATM   20  C15 UNL     1      55.458 -10.117  14.796  1.00  0.00     0.078 C
HETATM   21  C16 UNL     1      54.315  -9.242  15.279  1.00  0.00     0.051 C
HETATM   22  C17 UNL     1      56.708  -9.400  15.333  1.00  0.00     0.042 C
HETATM   23  C18 UNL     1      57.973  -9.949  14.771  1.00  0.00     0.004 C
HETATM   24  C19 UNL     1      57.982  -9.929  13.255  1.00  0.00     0.015 C
HETATM   25  C20 UNL     1      56.763 -10.677  12.709  1.00  0.00     0.006 C
HETATM   26  C21 UNL     1      56.735 -10.348  11.211  1.00  0.00     0.022 C
BRANCH  20  27
HETATM   27  O2  UNL     1      55.440 -11.351  15.392  1.00  0.00    -0.386 OA
ATOM     28  H2  UNL     1      56.277 -11.781  15.520  1.00  0.00     0.211 HD
ENDBRANCH  20  27
BRANCH  25  29
HETATM   29  C22 UNL     1      56.977 -12.125  12.871  1.00  0.00     0.243 C
BRANCH  29  30
HETATM   30  N2  UNL     1      57.159 -12.746  11.550  1.00  0.00    -0.078 N
ATOM     31  H23 UNL     1      57.431 -12.067  10.839  1.00  0.00     0.274 HD
ATOM     32  H22 UNL     1      57.989 -13.338  11.513  1.00  0.00     0.274 HD
ATOM     33  H21 UNL     1      56.313 -13.255  11.293  1.00  0.00     0.274 HD
ENDBRANCH  29  30
ENDBRANCH  25  29
ENDBRANCH   2  19
TORSDOF 7
ENDMDL