MODEL 5
REMARK VINA RESULT: -6.850049149      5.789      8.808
REMARK  6 active torsions:
REMARK  status: ('A' for Active; 'I' for Inactive)
REMARK    1  A    between atoms: C2_2  and  C3_3
REMARK    2  A    between atoms: C3_3  and  C4_4
REMARK    3  A    between atoms: C4_4  and  C5_5
REMARK       I    between atoms: C5_5  and  N1_7
REMARK    4  A    between atoms: N1_7  and  C6_9
REMARK    5  A    between atoms: C17_20  and  O2_21
REMARK    6  A    between atoms: C18_25  and  O3_26
ROOT
HETATM    1  C6  UNL     1      51.997  -9.411   9.818  1.00  0.00     0.093 C
HETATM    2  C7  UNL     1      50.522  -9.067   9.980  1.00  0.00     0.026 C
HETATM    3  C8  UNL     1      50.020  -9.209  11.377  1.00  0.00     0.007 C
HETATM    4  C9  UNL     1      50.366 -10.607  11.846  1.00  0.00    -0.009 C
HETATM    5  C10 UNL     1      50.013 -11.587  10.784  1.00  0.00     0.006 C
HETATM    6  C11 UNL     1      50.966 -11.667   9.640  1.00  0.00     0.012 C
HETATM    7  C12 UNL     1      52.257 -10.902   9.861  1.00  0.00    -0.011 C
HETATM    8  C13 UNL     1      53.193 -11.347   8.793  1.00  0.00     0.018 C
HETATM    9  C14 UNL     1      52.736 -11.236  11.248  1.00  0.00     0.002 C
HETATM   10  C15 UNL     1      54.108 -10.693  11.549  1.00  0.00     0.022 C
HETATM   11  C16 UNL     1      52.750 -12.685  11.563  1.00  0.00     0.013 A
HETATM   12  C17 UNL     1      53.051 -13.951  11.109  1.00  0.00     0.149 A
HETATM   13  N2  UNL     1      52.749 -14.838  12.081  1.00  0.00    -0.317 N
ATOM     14  H2  UNL     1      52.874 -15.847  12.008  1.00  0.00     0.170 HD
HETATM   15  C18 UNL     1      52.264 -14.207  13.153  1.00  0.00     0.148 A
HETATM   16  C19 UNL     1      52.251 -12.859  12.863  1.00  0.00     0.004 A
HETATM   17  C20 UNL     1      51.900 -11.550  13.465  1.00  0.00     0.050 C
HETATM   18  C21 UNL     1      51.804 -10.653  12.276  1.00  0.00     0.008 C
ENDROOT
BRANCH   1  19
HETATM   19  N1  UNL     1      52.477  -8.764   8.613  1.00  0.00    -0.356 N
HETATM   20  C5  UNL     1      52.277  -7.355   8.373  1.00  0.00     0.217 C
HETATM   21  O1  UNL     1      51.676  -6.645   9.212  1.00  0.00    -0.274 OA
ATOM     22  H1  UNL     1      52.970  -9.320   7.914  1.00  0.00     0.162 HD
BRANCH  20  23
HETATM   23  C4  UNL     1      52.783  -6.746   7.134  1.00  0.00     0.103 C
BRANCH  23  24
HETATM   24  C3  UNL     1      53.700  -5.609   7.366  1.00  0.00     0.009 C
BRANCH  24  25
HETATM   25  C2  UNL     1      55.114  -6.026   7.507  1.00  0.00    -0.004 C
HETATM   26  C1  UNL     1      55.942  -4.905   8.140  1.00  0.00     0.005 C
ENDBRANCH  24  25
ENDBRANCH  23  24
ENDBRANCH  20  23
ENDBRANCH   1  19
BRANCH  12  27
HETATM   27  O2  UNL     1      53.586 -14.343   9.859  1.00  0.00    -0.346 OA
ATOM     28  H2  UNL     1      53.145 -14.749   9.122  1.00  0.00     0.219 HD
ENDBRANCH  12  27
BRANCH  15  29
HETATM   29  O3  UNL     1      51.834 -14.768  14.371  1.00  0.00    -0.346 OA
ATOM     30  H3  UNL     1      52.206 -14.646  15.236  1.00  0.00     0.219 HD
ENDBRANCH  15  29
TORSDOF 6
ENDMDL