MODEL 1
REMARK VINA RESULT: -7.149463629      0.000      0.000
REMARK  6 active torsions:
REMARK  status: ('A' for Active; 'I' for Inactive)
REMARK    1  A    between atoms: C10_10  and  O1_11
REMARK    2  A    between atoms: C12_14  and  O2_15
REMARK    3  A    between atoms: C16_20  and  C17_21
REMARK    4  A    between atoms: C17_21  and  C18_22
REMARK    5  A    between atoms: C18_22  and  O3_24
REMARK    6  A    between atoms: C21_27  and  C22_28
ROOT
HETATM    1  C1  UNL     1      55.429 -12.646  12.352  1.00  0.00     0.014 C
HETATM    2  C2  UNL     1      54.114 -12.804  12.381  1.00  0.00    -0.085 C
HETATM    3  C3  UNL     1      53.431 -14.123  12.414  1.00  0.00     0.034 C
HETATM    4  C4  UNL     1      51.972 -13.839  12.339  1.00  0.00     0.013 C
HETATM    5  C5  UNL     1      51.750 -12.387  12.072  1.00  0.00     0.033 C
HETATM    6  C6  UNL     1      53.081 -11.760  12.387  1.00  0.00     0.022 C
HETATM    7  C7  UNL     1      53.388 -10.579  11.482  1.00  0.00     0.018 C
HETATM    8  C8  UNL     1      53.364 -10.918  10.039  1.00  0.00     0.019 C
HETATM    9  C9  UNL     1      52.567 -12.220   9.790  1.00  0.00     0.052 C
HETATM   10  C10 UNL     1      51.347 -12.104  10.616  1.00  0.00     0.093 C
HETATM   11  C11 UNL     1      50.754 -10.742  10.513  1.00  0.00     0.021 A
HETATM   12  C12 UNL     1      49.496 -10.659  11.134  1.00  0.00     0.076 A
HETATM   13  C13 UNL     1      48.850  -9.476  11.192  1.00  0.00     0.044 A
HETATM   14  C14 UNL     1      49.405  -8.338  10.649  1.00  0.00    -0.052 A
HETATM   15  C15 UNL     1      48.628  -7.085  10.668  1.00  0.00     0.049 C
HETATM   16  C16 UNL     1      50.654  -8.421  10.035  1.00  0.00    -0.038 A
HETATM   17  C20 UNL     1      51.367  -9.614   9.938  1.00  0.00    -0.014 A
HETATM   18  C21 UNL     1      52.551  -9.886   9.220  1.00  0.00    -0.065 C
ENDROOT
BRANCH  16  19
HETATM   19  C17 UNL     1      51.215  -7.192   9.548  1.00  0.00     0.071 C
BRANCH  19  20
HETATM   20  C18 UNL     1      51.001  -6.797   8.103  1.00  0.00     0.118 C
HETATM   21  C19 UNL     1      52.150  -6.079   7.453  1.00  0.00     0.039 C
BRANCH  20  22
HETATM   22  O3  UNL     1      49.808  -6.261   7.743  1.00  0.00    -0.396 OA
ATOM     23  H3  UNL     1      49.247  -6.750   7.152  1.00  0.00     0.210 HD
ENDBRANCH  20  22
ENDBRANCH  19  20
ENDBRANCH  16  19
BRANCH  18  24
HETATM   24  C22 UNL     1      53.477  -9.133   8.455  1.00  0.00     0.031 C
HETATM   25  C23 UNL     1      54.693 -10.041   8.086  1.00  0.00     0.010 C
ENDBRANCH  18  24
BRANCH  12  26
HETATM   26  O2  UNL     1      48.883 -11.764  11.698  1.00  0.00    -0.360 OA
ATOM     27  H2  UNL     1      48.560 -11.759  12.591  1.00  0.00     0.217 HD
ENDBRANCH  12  26
BRANCH  10  28
HETATM   28  O1  UNL     1      50.380 -13.046  10.292  1.00  0.00    -0.384 OA
ATOM     29  H1  UNL     1      49.871 -12.669   9.585  1.00  0.00     0.211 HD
ENDBRANCH  10  28
TORSDOF 6
ENDMDL