MODEL 1
REMARK VINA RESULT: -10.586601024      0.000      0.000
REMARK  3 active torsions:
REMARK  status: ('A' for Active; 'I' for Inactive)
REMARK    1  A    between atoms: C4_6  and  N1_7
REMARK    2  A    between atoms: N1_7  and  C5_9
REMARK    3  A    between atoms: C6_10  and  C7_11
ROOT
HETATM    1  C5  UNL     1      48.632  92.115  34.556  1.00  0.00     0.065 C
HETATM    2  C6  UNL     1      48.098  91.805  35.789  1.00  0.00     0.084 C
HETATM    3  O1  UNL     1      47.783  93.008  36.730  1.00  0.00    -0.317 OA
HETATM    4  C13 UNL     1      48.080  94.159  36.113  1.00  0.00     0.054 C
HETATM    5  C14 UNL     1      47.578  95.292  35.775  1.00  0.00     0.006 C
HETATM    6  C15 UNL     1      48.340  96.345  34.923  1.00  0.00     0.033 C
HETATM    7  C16 UNL     1      48.914  95.817  33.672  1.00  0.00     0.031 C
HETATM    8  C17 UNL     1      48.649  94.314  33.440  1.00  0.00    -0.017 C
HETATM    9  C18 UNL     1      48.852  93.498  34.400  1.00  0.00    -0.027 C
HETATM   10  C19 UNL     1      49.618  93.963  35.716  1.00  0.00     0.105 C
ENDROOT
BRANCH   1  11
HETATM   11  N1  UNL     1      48.974  91.363  33.471  1.00  0.00    -0.383 N
ATOM     12  H1  UNL     1      48.245  91.254  32.765  1.00  0.00     0.160 HD
BRANCH  11  13
HETATM   13  C4  UNL     1      50.237  90.692  33.176  1.00  0.00     0.082 C
HETATM   14  C3  UNL     1      50.786  89.828  34.246  1.00  0.00     0.031 C
HETATM   15  C2  UNL     1      51.987  89.073  33.645  1.00  0.00     0.081 C
HETATM   16  C1  UNL     1      53.041  90.025  33.138  1.00  0.00     0.243 C
HETATM   17  F1  UNL     1      53.515  90.791  34.179  1.00  0.00    -0.206 F
HETATM   18  F2  UNL     1      54.040  89.255  32.584  1.00  0.00    -0.206 F
HETATM   19  C21 UNL     1      52.390  90.903  32.056  1.00  0.00     0.081 C
HETATM   20  C20 UNL     1      51.295  91.676  32.739  1.00  0.00     0.031 C
ENDBRANCH  11  13
ENDBRANCH   1  11
BRANCH   2  21
HETATM   21  C7  UNL     1      47.755  90.559  36.315  1.00  0.00     0.045 C
HETATM   22  C8  UNL     1      46.404  90.161  35.631  1.00  0.00     0.011 C
HETATM   23  C9  UNL     1      46.330  88.664  35.561  1.00  0.00     0.001 C
HETATM   24  C10 UNL     1      46.932  88.124  36.853  1.00  0.00     0.000 C
HETATM   25  C11 UNL     1      46.587  89.124  37.923  1.00  0.00     0.001 C
HETATM   26  C12 UNL     1      47.536  90.328  37.750  1.00  0.00     0.011 C
ENDBRANCH   2  21
TORSDOF 3
ENDMDL