MODEL 2
REMARK VINA RESULT: -8.108403160      3.363      5.063
REMARK  5 active torsions:
REMARK  status: ('A' for Active; 'I' for Inactive)
REMARK    1  A    between atoms: C3_4  and  C4_5
REMARK    2  A    between atoms: C6_7  and  C7_8
REMARK    3  A    between atoms: C8_9  and  C9_10
REMARK    4  A    between atoms: C9_10  and  C10_11
REMARK    5  A    between atoms: C10_11  and  C11_12
ROOT
HETATM    1  C11 UNL     1      49.228  91.211  33.887  1.00  0.00     0.114 A
HETATM    2  N1  UNL     1      50.290  91.322  33.069  1.00  0.00    -0.340 N
ATOM      3  H1  UNL     1      50.301  92.075  32.381  1.00  0.00     0.167 HD
HETATM    4  C12 UNL     1      51.330  90.486  33.123  1.00  0.00     0.069 A
HETATM    5  C13 UNL     1      52.424  90.610  32.296  1.00  0.00     0.061 A
HETATM    6 CL1  UNL     1      52.442  91.889  31.121  1.00  0.00    -0.082 Cl
HETATM    7  C14 UNL     1      53.487  89.724  32.403  1.00  0.00     0.026 A
HETATM    8  C15 UNL     1      53.438  88.705  33.356  1.00  0.00     0.003 A
HETATM    9  C16 UNL     1      52.347  88.568  34.191  1.00  0.00     0.017 A
HETATM   10  C17 UNL     1      51.305  89.467  34.061  1.00  0.00     0.030 A
HETATM   11  C18 UNL     1      50.230  89.359  34.882  1.00  0.00     0.114 A
HETATM   12  S1  UNL     1      50.138  88.172  36.014  1.00  0.00    -0.059 SA
HETATM   13  N2  UNL     1      49.194  90.235  34.789  1.00  0.00    -0.332 N
ATOM     14  H2  UNL     1      48.391  90.144  35.411  1.00  0.00     0.168 HD
ENDROOT
BRANCH   1  15
HETATM   15  C10 UNL     1      48.090  92.151  33.728  1.00  0.00     0.104 C
BRANCH  15  16
HETATM   16  C9  UNL     1      47.102  92.326  34.381  1.00  0.00    -0.124 C
BRANCH  16  17
HETATM   17  C8  UNL     1      45.939  92.532  35.150  1.00  0.00     0.055 C
HETATM   18  C7  UNL     1      45.564  93.809  35.374  1.00  0.00     0.009 C
BRANCH  18  19
HETATM   19  C6  UNL     1      46.344  94.884  34.836  1.00  0.00     0.007 C
HETATM   20  C4  UNL     1      47.315  95.488  35.559  1.00  0.00    -0.059 C
HETATM   21  C5  UNL     1      47.505  94.979  36.919  1.00  0.00     0.048 C
BRANCH  20  22
HETATM   22  C3  UNL     1      48.026  96.541  34.927  1.00  0.00     0.044 C
HETATM   23  C2  UNL     1      49.013  96.542  34.098  1.00  0.00     0.090 C
HETATM   24  C1  UNL     1      49.745  95.420  33.525  1.00  0.00     0.082 C
HETATM   25  F1  UNL     1      49.468  97.808  33.674  1.00  0.00    -0.211 F
ENDBRANCH  20  22
ENDBRANCH  18  19
ENDBRANCH  16  17
ENDBRANCH  15  16
ENDBRANCH   1  15
TORSDOF 5
ENDMDL