MODEL 2
REMARK VINA RESULT: -8.755231807      2.826      5.032
REMARK  4 active torsions:
REMARK  status: ('A' for Active; 'I' for Inactive)
REMARK    1  A    between atoms: C2_2  and  C5_5
REMARK    2  A    between atoms: C5_5  and  C6_6
REMARK    3  A    between atoms: C6_6  and  C7_7
REMARK    4  A    between atoms: C8_10  and  C9_11
ROOT
HETATM    1  C7  UNL     1      49.497  90.566  34.075  1.00  0.00     0.118 C
HETATM    2  N1  UNL     1      48.610  89.553  34.677  1.00  0.00    -0.370 N
ATOM      3  H1  UNL     1      48.722  88.600  34.331  1.00  0.00     0.161 HD
HETATM    4  C8  UNL     1      47.648  89.731  35.649  1.00  0.00     0.085 C
HETATM    5  N2  UNL     1      47.266  90.897  35.968  1.00  0.00    -0.345 N
ATOM      6  H2  UNL     1      46.551  91.032  36.683  1.00  0.00     0.167 HD
HETATM    7  C13 UNL     1      47.852  92.012  35.311  1.00  0.00     0.043 A
HETATM    8  C14 UNL     1      47.282  93.256  35.632  1.00  0.00     0.055 A
HETATM    9  C15 UNL     1      47.672  94.389  34.998  1.00  0.00     0.058 A
HETATM   10 CL1  UNL     1      46.981  95.952  35.376  1.00  0.00    -0.082 Cl
HETATM   11  C16 UNL     1      48.641  94.285  34.033  1.00  0.00     0.056 A
HETATM   12 CL2  UNL     1      49.169  95.732  33.191  1.00  0.00    -0.083 Cl
HETATM   13  C17 UNL     1      49.202  93.045  33.724  1.00  0.00     0.037 A
HETATM   14  C18 UNL     1      48.829  91.882  34.349  1.00  0.00    -0.007 A
ENDROOT
BRANCH   1  15
HETATM   15  C6  UNL     1      50.809  90.460  34.811  1.00  0.00     0.031 C
BRANCH  15  16
HETATM   16  C5  UNL     1      52.036  90.992  34.242  1.00  0.00     0.011 C
BRANCH  16  17
HETATM   17  C2  UNL     1      52.707  90.345  33.112  1.00  0.00    -0.051 C
HETATM   18  C1  UNL     1      52.386  88.951  32.739  1.00  0.00     0.014 C
HETATM   19  C3  UNL     1      52.363  91.200  31.860  1.00  0.00     0.014 C
HETATM   20  C4  UNL     1      54.234  90.435  33.199  1.00  0.00     0.014 C
ENDBRANCH  16  17
ENDBRANCH  15  16
ENDBRANCH   1  15
BRANCH   4  21
HETATM   21  C9  UNL     1      47.022  88.575  36.361  1.00  0.00     0.007 C
HETATM   22  C10 UNL     1      48.082  87.729  37.025  1.00  0.00     0.022 C
HETATM   23  C11 UNL     1      46.148  89.172  37.462  1.00  0.00     0.022 C
HETATM   24  C12 UNL     1      46.236  87.694  35.436  1.00  0.00     0.022 C
ENDBRANCH   4  21
TORSDOF 4
ENDMDL