MODEL 4
REMARK VINA RESULT: -9.703342854      3.300      6.383
REMARK  3 active torsions:
REMARK  status: ('A' for Active; 'I' for Inactive)
REMARK    1  A    between atoms: C2_2  and  N1_3
REMARK    2  A    between atoms: N1_3  and  C3_5
REMARK    3  A    between atoms: C5_7  and  C6_8
ROOT
HETATM    1  C3  UNL     1      48.015  90.638  35.150  1.00  0.00     0.036 A
HETATM    2  C4  UNL     1      49.187  90.315  34.510  1.00  0.00     0.042 A
HETATM    3  C5  UNL     1      49.952  91.253  33.819  1.00  0.00    -0.016 A
HETATM    4  C10 UNL     1      49.557  92.549  33.754  1.00  0.00     0.020 A
HETATM    5  C11 UNL     1      48.394  92.900  34.381  1.00  0.00    -0.049 A
HETATM    6  C12 UNL     1      47.638  91.986  35.060  1.00  0.00    -0.025 A
HETATM    7  C13 UNL     1      46.477  92.686  35.611  1.00  0.00     0.042 C
HETATM    8  C14 UNL     1      46.295  93.856  34.672  1.00  0.00     0.009 C
HETATM    9  C15 UNL     1      47.750  94.252  34.448  1.00  0.00     0.039 C
ENDROOT
BRANCH   1  10
HETATM   10  N1  UNL     1      47.216  89.728  35.850  1.00  0.00    -0.381 N
ATOM     11  H1  UNL     1      46.413  89.367  35.335  1.00  0.00     0.160 HD
BRANCH  10  12
HETATM   12  C2  UNL     1      47.359  89.231  37.177  1.00  0.00     0.027 C
HETATM   13  C1  UNL     1      45.936  89.102  37.775  1.00  0.00     0.038 C
HETATM   14  C16 UNL     1      47.926  87.832  37.275  1.00  0.00     0.036 C
HETATM   15  C17 UNL     1      48.910  87.678  38.387  1.00  0.00     0.081 C
HETATM   16  C18 UNL     1      48.530  88.330  39.674  1.00  0.00     0.243 C
HETATM   17  F1  UNL     1      49.727  88.577  40.362  1.00  0.00    -0.206 F
HETATM   18  F2  UNL     1      47.831  87.450  40.513  1.00  0.00    -0.206 F
HETATM   19  C19 UNL     1      47.808  89.637  39.538  1.00  0.00     0.081 C
HETATM   20  C20 UNL     1      48.076  90.166  38.130  1.00  0.00     0.036 C
ENDBRANCH  10  12
ENDBRANCH   1  10
BRANCH   3  21
HETATM   21  C6  UNL     1      51.190  90.826  33.164  1.00  0.00     0.015 A
HETATM   22  C7  UNL     1      51.992  91.556  32.331  1.00  0.00     0.020 A
HETATM   23  C8  UNL     1      53.083  90.954  31.845  1.00  0.00     0.008 A
HETATM   24  C9  UNL     1      53.309  89.655  32.221  1.00  0.00     0.050 A
HETATM   25  S1  UNL     1      51.985  89.321  33.243  1.00  0.00    -0.101 SA
ENDBRANCH   3  21
TORSDOF 3
ENDMDL