MODEL 1
REMARK VINA RESULT: -10.350131851      0.000      0.000
REMARK  3 active torsions:
REMARK  status: ('A' for Active; 'I' for Inactive)
REMARK    1  A    between atoms: C4_5  and  N1_6
REMARK    2  A    between atoms: N1_6  and  C5_8
REMARK    3  A    between atoms: C8_12  and  C9_13
ROOT
HETATM    1  C5  UNL     1      50.211  92.156  34.819  1.00  0.00     0.155 A
HETATM    2  O1  UNL     1      50.227  93.297  34.199  1.00  0.00    -0.297 OA
HETATM    3  C6  UNL     1      49.061  93.885  34.190  1.00  0.00     0.062 A
HETATM    4  C7  UNL     1      48.190  93.030  34.884  1.00  0.00    -0.017 A
HETATM    5  C8  UNL     1      48.881  91.939  35.289  1.00  0.00     0.006 A
HETATM    6  C15 UNL     1      46.776  93.324  35.123  1.00  0.00     0.042 C
HETATM    7  C16 UNL     1      46.455  94.817  34.949  1.00  0.00     0.005 C
HETATM    8  C17 UNL     1      47.448  95.713  35.619  1.00  0.00     0.001 C
HETATM    9  C18 UNL     1      48.495  96.231  34.660  1.00  0.00     0.006 C
HETATM   10  C19 UNL     1      48.747  95.194  33.564  1.00  0.00     0.066 C
ENDROOT
BRANCH   1  11
HETATM   11  N1  UNL     1      51.276  91.254  35.022  1.00  0.00    -0.334 N
ATOM     12  H1  UNL     1      51.529  91.046  35.988  1.00  0.00     0.168 HD
BRANCH  11  13
HETATM   13  C4  UNL     1      52.021  90.613  34.014  1.00  0.00     0.073 A
HETATM   14  C3  UNL     1      52.817  91.250  33.092  1.00  0.00     0.036 A
HETATM   15  C2  UNL     1      53.508  90.528  32.144  1.00  0.00     0.044 A
HETATM   16  C1  UNL     1      53.442  89.161  32.067  1.00  0.00     0.119 A
HETATM   17  F1  UNL     1      54.107  88.431  31.150  1.00  0.00    -0.206 F
HETATM   18  C21 UNL     1      52.647  88.532  32.987  1.00  0.00     0.086 A
HETATM   19  C20 UNL     1      51.965  89.228  33.921  1.00  0.00     0.145 A
HETATM   20  F2  UNL     1      51.194  88.509  34.800  1.00  0.00    -0.204 F
ENDBRANCH  11  13
ENDBRANCH   1  11
BRANCH   5  21
HETATM   21  C9  UNL     1      48.511  90.781  36.058  1.00  0.00     0.023 C
HETATM   22  C10 UNL     1      47.471  89.848  35.597  1.00  0.00     0.009 C
HETATM   23  C11 UNL     1      46.242  89.765  36.511  1.00  0.00     0.001 C
HETATM   24  C12 UNL     1      46.659  89.259  37.892  1.00  0.00     0.000 C
HETATM   25  C13 UNL     1      48.063  89.791  38.225  1.00  0.00     0.001 C
HETATM   26  C14 UNL     1      48.157  91.123  37.513  1.00  0.00     0.009 C
ENDBRANCH   5  21
TORSDOF 3
ENDMDL