MODEL 4
REMARK VINA RESULT: -8.097971211      1.960      2.027
REMARK  4 active torsions:
REMARK  status: ('A' for Active; 'I' for Inactive)
REMARK    1  A    between atoms: C4_4  and  C5_5
REMARK    2  A    between atoms: C8_12  and  C9_13
REMARK    3  A    between atoms: C14_18  and  C15_19
REMARK    4  A    between atoms: C15_19  and  C16_20
ROOT
HETATM    1  C5  UNL     1      50.090  86.350  38.252  1.00  0.00     0.180 C
HETATM    2  C6  UNL     1      49.955  86.361  39.712  1.00  0.00     0.065 C
HETATM    3  N1  UNL     1      49.827  86.372  40.851  1.00  0.00    -0.197 NA
ENDROOT
BRANCH   1   4
HETATM    4  C4  UNL     1      49.442  87.525  37.629  1.00  0.00     0.024 A
HETATM    5  C3  UNL     1      48.162  87.878  38.019  1.00  0.00     0.033 A
HETATM    6  C2  UNL     1      47.499  88.939  37.444  1.00  0.00    -0.050 A
HETATM    7  C1  UNL     1      46.123  89.182  37.924  1.00  0.00     0.049 C
HETATM    8  C8  UNL     1      48.131  89.715  36.413  1.00  0.00    -0.010 A
HETATM    9  C7  UNL     1      49.404  89.322  36.068  1.00  0.00     0.108 A
HETATM   10  N2  UNL     1      50.017  88.261  36.670  1.00  0.00    -0.349 N
HETATM   11  S1  UNL     1      50.234  90.194  34.994  1.00  0.00    -0.060 SA
ATOM     12  H2  UNL     1      50.961  88.015  36.373  1.00  0.00     0.166 HD
BRANCH   8  13
HETATM   13  C9  UNL     1      47.326  90.792  35.954  1.00  0.00     0.026 C
HETATM   14  C10 UNL     1      46.771  90.361  34.568  1.00  0.00     0.010 C
HETATM   15  C11 UNL     1      45.389  90.916  34.453  1.00  0.00     0.001 C
HETATM   16  C12 UNL     1      45.146  91.955  35.528  1.00  0.00     0.000 C
HETATM   17  C13 UNL     1      46.277  92.903  35.767  1.00  0.00     0.005 C
HETATM   18  C14 UNL     1      47.697  92.196  35.694  1.00  0.00    -0.002 C
BRANCH  18  19
HETATM   19  C15 UNL     1      48.162  92.608  34.339  1.00  0.00     0.065 C
BRANCH  19  20
HETATM   20  C16 UNL     1      49.163  93.700  34.241  1.00  0.00     0.175 C
HETATM   21  C17 UNL     1      48.696  95.041  33.771  1.00  0.00     0.070 C
HETATM   22  F1  UNL     1      50.379  93.437  33.689  1.00  0.00    -0.226 F
HETATM   23 CL1  UNL     1      49.619  94.010  36.012  1.00  0.00    -0.083 Cl
ENDBRANCH  19  20
ENDBRANCH  18  19
ENDBRANCH   8  13
ENDBRANCH   1   4
TORSDOF 4
ENDMDL