MODEL 2
REMARK VINA RESULT: -9.411561831      2.944      4.238
REMARK  4 active torsions:
REMARK  status: ('A' for Active; 'I' for Inactive)
REMARK    1  A    between atoms: C9_11  and  C11_13
REMARK    2  A    between atoms: C11_13  and  C12_14
REMARK    3  A    between atoms: C12_14  and  C13_15
REMARK    4  A    between atoms: C17_20  and  C18_21
ROOT
HETATM    1  C1  UNL     1      46.249  92.218  36.017  1.00  0.00     0.016 C
HETATM    2  C2  UNL     1      47.622  92.131  35.379  1.00  0.00     0.034 C
HETATM    3  C3  UNL     1      48.143  93.402  34.939  1.00  0.00    -0.026 A
HETATM    4  C4  UNL     1      47.259  94.428  35.184  1.00  0.00     0.010 A
HETATM    5  C5  UNL     1      47.547  95.745  34.842  1.00  0.00     0.001 A
HETATM    6  C6  UNL     1      48.728  96.052  34.249  1.00  0.00     0.002 A
HETATM    7  C7  UNL     1      49.638  95.052  33.988  1.00  0.00     0.030 A
HETATM    8  C8  UNL     1      49.330  93.751  34.338  1.00  0.00     0.036 A
HETATM    9  N1  UNL     1      50.402  92.916  33.978  1.00  0.00    -0.371 N
ATOM     10  H1  UNL     1      51.069  93.349  33.339  1.00  0.00     0.161 HD
HETATM   11  C9  UNL     1      50.731  91.571  34.341  1.00  0.00     0.076 C
HETATM   12  C10 UNL     1      50.085  90.637  33.360  1.00  0.00     0.051 C
HETATM   13  S1  UNL     1      50.200  91.326  36.034  1.00  0.00    -0.129 SA
HETATM   14  C17 UNL     1      48.465  91.318  36.296  1.00  0.00     0.085 C
ENDROOT
BRANCH  11  15
HETATM   15  C11 UNL     1      52.242  91.340  34.299  1.00  0.00     0.043 C
BRANCH  15  16
HETATM   16  C12 UNL     1      52.465  90.016  33.642  1.00  0.00     0.011 C
BRANCH  16  17
HETATM   17  C13 UNL     1      53.574  90.018  32.635  1.00  0.00    -0.051 C
HETATM   18  C14 UNL     1      53.225  91.096  31.598  1.00  0.00     0.014 C
HETATM   19  C15 UNL     1      54.906  90.398  33.213  1.00  0.00     0.014 C
HETATM   20  C16 UNL     1      53.673  88.719  31.868  1.00  0.00     0.014 C
ENDBRANCH  16  17
ENDBRANCH  15  16
ENDBRANCH  11  15
BRANCH  14  21
HETATM   21  C18 UNL     1      48.173  91.672  37.715  1.00  0.00     0.063 C
HETATM   22  C19 UNL     1      48.274  90.807  38.705  1.00  0.00     0.264 C
HETATM   23  F1  UNL     1      48.003  91.148  39.988  1.00  0.00    -0.173 F
HETATM   24  F2  UNL     1      48.657  89.510  38.518  1.00  0.00    -0.173 F
ENDBRANCH  14  21
TORSDOF 4
ENDMDL