MODEL 2
REMARK VINA RESULT: -8.859507546      2.657      7.389
REMARK  3 active torsions:
REMARK  status: ('A' for Active; 'I' for Inactive)
REMARK    1  A    between atoms: C2_2  and  C3_3
REMARK    2  A    between atoms: C3_3  and  C4_4
REMARK    3  A    between atoms: C8_8  and  C9_9
ROOT
HETATM    1  C4  UNL     1      49.593  87.208  39.274  1.00  0.00    -0.017 A
HETATM    2  C5  UNL     1      49.811  87.228  37.918  1.00  0.00     0.018 A
HETATM    3  C6  UNL     1      49.437  88.324  37.145  1.00  0.00    -0.048 A
HETATM    4  C7  UNL     1      49.668  88.314  35.669  1.00  0.00     0.049 C
HETATM    5  C8  UNL     1      48.830  89.440  37.708  1.00  0.00     0.014 A
HETATM    6  C18 UNL     1      48.615  89.424  39.047  1.00  0.00     0.085 A
HETATM    7 CL1  UNL     1      47.979  90.769  39.995  1.00  0.00    -0.080 Cl
HETATM    8  C19 UNL     1      48.994  88.315  39.813  1.00  0.00     0.145 A
HETATM    9  F1  UNL     1      48.775  88.305  41.143  1.00  0.00    -0.204 F
ENDROOT
BRANCH   5  10
HETATM   10  C9  UNL     1      48.533  90.623  36.894  1.00  0.00     0.042 A
HETATM   11  S1  UNL     1      46.992  90.950  36.135  1.00  0.00    -0.091 SA
HETATM   12  C10 UNL     1      47.309  92.474  35.502  1.00  0.00    -0.009 A
HETATM   13  C11 UNL     1      48.594  92.721  35.879  1.00  0.00    -0.019 A
HETATM   14  C17 UNL     1      46.372  93.349  34.706  1.00  0.00     0.046 C
HETATM   15  C12 UNL     1      49.228  91.756  36.605  1.00  0.00     0.071 A
HETATM   16  C13 UNL     1      49.364  94.002  35.537  1.00  0.00     0.042 C
HETATM   17  N1  UNL     1      50.585  91.997  37.125  1.00  0.00    -0.100 NA
HETATM   18  C14 UNL     1      48.391  95.100  35.284  1.00  0.00     0.005 C
HETATM   19  C15 UNL     1      47.273  95.011  36.289  1.00  0.00     0.001 C
HETATM   20  C16 UNL     1      46.029  94.596  35.490  1.00  0.00     0.005 C
ENDBRANCH   5  10
BRANCH   1  21
HETATM   21  C3  UNL     1      49.974  86.068  40.107  1.00  0.00     0.041 C
BRANCH  21  22
HETATM   22  C2  UNL     1      50.489  84.886  39.325  1.00  0.00     0.000 C
HETATM   23  C1  UNL     1      51.487  84.074  40.099  1.00  0.00     0.005 C
ENDBRANCH  21  22
ENDBRANCH   1  21
TORSDOF 3
ENDMDL