MODEL 3
REMARK VINA RESULT: -8.499890610      1.673      2.544
REMARK  3 active torsions:
REMARK  status: ('A' for Active; 'I' for Inactive)
REMARK    1  A    between atoms: C8_9  and  C9_10
REMARK    2  A    between atoms: C9_10  and  C10_12
REMARK    3  A    between atoms: N1_13  and  C11_15
ROOT
HETATM    1  C9  UNL     1      48.943  91.553  35.322  1.00  0.00     0.104 C
HETATM    2 BR1  UNL     1      50.839  91.656  35.385  1.00  0.00    -0.085 Br
ENDROOT
BRANCH   1   3
HETATM    3  C8  UNL     1      48.262  90.567  36.163  1.00  0.00     0.035 C
HETATM    4  C2  UNL     1      48.242  90.664  37.614  1.00  0.00    -0.063 C
HETATM    5  C1  UNL     1      48.034  91.752  38.292  1.00  0.00     0.087 C
HETATM    6  C3  UNL     1      48.444  89.464  38.523  1.00  0.00     0.035 C
HETATM    7 CL1  UNL     1      48.011  91.715  40.038  1.00  0.00    -0.097 Cl
HETATM    8  C4  UNL     1      47.239  88.565  38.472  1.00  0.00     0.004 C
HETATM    9  C5  UNL     1      46.109  89.153  37.660  1.00  0.00     0.000 C
HETATM   10  C6  UNL     1      46.331  89.122  36.180  1.00  0.00     0.001 C
HETATM   11  C7  UNL     1      46.770  90.511  35.748  1.00  0.00     0.010 C
ENDBRANCH   1   3
BRANCH   1  12
HETATM   12  C10 UNL     1      48.438  91.516  33.909  1.00  0.00     0.077 C
HETATM   13  N1  UNL     1      48.095  92.577  33.299  1.00  0.00    -0.368 N
ATOM     14  H1  UNL     1      47.762  92.470  32.341  1.00  0.00     0.165 HD
BRANCH  13  15
HETATM   15  C11 UNL     1      48.130  93.895  33.819  1.00  0.00     0.031 A
HETATM   16  C12 UNL     1      49.124  94.801  33.513  1.00  0.00     0.029 A
HETATM   17  C13 UNL     1      49.072  96.080  34.073  1.00  0.00     0.002 A
HETATM   18  C14 UNL     1      48.072  96.477  34.917  1.00  0.00     0.000 A
HETATM   19  C15 UNL     1      47.078  95.562  35.218  1.00  0.00     0.002 A
HETATM   20  C16 UNL     1      47.125  94.295  34.666  1.00  0.00     0.029 A
ENDBRANCH  13  15
ENDBRANCH   1  12
TORSDOF 3
ENDMDL