MODEL 2
REMARK VINA RESULT: -4.734885605      0.542      3.834
REMARK  2 active torsions:
REMARK  status: ('A' for Active; 'I' for Inactive)
REMARK    1  A    between atoms: C4_4  and  O1_5
REMARK    2  A    between atoms: C7_9  and  O2_10
ROOT
HETATM    1  C1  UNL     1      27.653  20.200  83.684  1.00  0.00     0.012 C
HETATM    2  C2  UNL     1      28.934  20.552  84.432  1.00  0.00     0.013 C
HETATM    3  C3  UNL     1      28.996  22.051  84.515  1.00  0.00     0.038 C
HETATM    4  C4  UNL     1      30.239  22.562  85.188  1.00  0.00     0.118 C
HETATM    5  C5  UNL     1      31.480  21.851  84.757  1.00  0.00     0.034 C
HETATM    6  C6  UNL     1      31.286  20.902  83.618  1.00  0.00     0.034 C
HETATM    7  C7  UNL     1      30.145  19.957  83.783  1.00  0.00     0.122 C
ENDROOT
BRANCH   4   8
HETATM    8  O1  UNL     1      30.292  23.947  84.919  1.00  0.00    -0.396 OA
ATOM      9  H1  UNL     1      30.964  24.303  85.488  1.00  0.00     0.210 HD
ENDBRANCH   4   8
BRANCH   7  10
HETATM   10  O2  UNL     1      29.833  19.456  82.499  1.00  0.00    -0.395 OA
ATOM     11  H2  UNL     1      29.186  20.004  82.070  1.00  0.00     0.210 HD
ENDBRANCH   7  10
TORSDOF 2
ENDMDL