MODEL 5
REMARK VINA RESULT: -3.863287576      1.715      3.392
REMARK  1 active torsions:
REMARK  status: ('A' for Active; 'I' for Inactive)
REMARK    1  A    between atoms: C6_6  and  O1_8
ROOT
HETATM    1  C1  UNL     1      28.787  20.148  82.217  1.00  0.00     0.010 C
HETATM    2  C2  UNL     1      29.352  20.328  83.622  1.00  0.00    -0.016 C
HETATM    3  C3  UNL     1      28.717  21.527  84.221  1.00  0.00     0.004 C
HETATM    4  C4  UNL     1      29.514  22.335  85.154  1.00  0.00     0.003 C
HETATM    5  C5  UNL     1      30.836  21.779  85.557  1.00  0.00     0.037 C
HETATM    6  C6  UNL     1      31.605  21.128  84.455  1.00  0.00     0.054 C
HETATM    7  C7  UNL     1      32.329  22.250  83.696  1.00  0.00     0.045 C
HETATM    8  C8  UNL     1      30.816  20.274  83.544  1.00  0.00     0.041 C
ENDROOT
BRANCH   6   9
HETATM    9  O1  UNL     1      32.645  20.425  85.079  1.00  0.00    -0.390 OA
ATOM     10  H1  UNL     1      33.307  21.075  85.287  1.00  0.00     0.210 HD
ENDBRANCH   6   9
TORSDOF 1
ENDMDL