MODEL 3
REMARK VINA RESULT: -4.403537525      1.962      3.026
REMARK  2 active torsions:
REMARK  status: ('A' for Active; 'I' for Inactive)
REMARK    1  A    between atoms: C2_2  and  O1_3
REMARK    2  A    between atoms: C7_9  and  O2_10
ROOT
HETATM    1  C1  UNL     1      30.097  23.852  85.083  1.00  0.00     0.048 C
HETATM    2  C2  UNL     1      30.167  22.357  85.232  1.00  0.00     0.080 C
HETATM    3  C3  UNL     1      29.062  21.656  84.430  1.00  0.00     0.040 C
HETATM    4  C4  UNL     1      29.283  20.160  84.689  1.00  0.00     0.003 C
HETATM    5  C5  UNL     1      30.433  19.755  83.783  1.00  0.00     0.003 C
HETATM    6  C6  UNL     1      31.455  20.840  83.695  1.00  0.00     0.035 C
HETATM    7  C7  UNL     1      31.480  21.764  84.869  1.00  0.00     0.152 C
ENDROOT
BRANCH   2   8
HETATM    8  O1  UNL     1      29.859  22.079  86.584  1.00  0.00    -0.388 OA
ATOM      9  H1  UNL     1      29.868  22.915  87.036  1.00  0.00     0.210 HD
ENDBRANCH   2   8
BRANCH   7  10
HETATM   10  O2  UNL     1      32.413  22.777  84.580  1.00  0.00    -0.393 OA
ATOM     11  H2  UNL     1      31.975  23.540  84.223  1.00  0.00     0.210 HD
ENDBRANCH   7  10
TORSDOF 2
ENDMDL