MODEL 5
REMARK VINA RESULT: -4.338303987      1.654      2.511
REMARK  2 active torsions:
REMARK  status: ('A' for Active; 'I' for Inactive)
REMARK    1  A    between atoms: C2_2  and  O1_3
REMARK    2  A    between atoms: C5_7  and  O2_8
ROOT
HETATM    1  C1  UNL     1      29.890  23.912  85.155  1.00  0.00     0.045 C
HETATM    2  C2  UNL     1      30.194  22.433  85.120  1.00  0.00     0.054 C
HETATM    3  C3  UNL     1      29.128  21.697  84.322  1.00  0.00     0.040 C
HETATM    4  C4  UNL     1      29.413  20.222  84.615  1.00  0.00     0.034 C
HETATM    5  C5  UNL     1      30.650  19.861  83.872  1.00  0.00     0.118 C
HETATM    6  C6  UNL     1      31.644  20.937  83.703  1.00  0.00     0.034 C
HETATM    7  C7  UNL     1      31.527  22.127  84.560  1.00  0.00     0.040 C
ENDROOT
BRANCH   2   8
HETATM    8  O1  UNL     1      30.061  21.967  86.446  1.00  0.00    -0.390 OA
ATOM      9  H1  UNL     1      29.573  22.632  86.916  1.00  0.00     0.210 HD
ENDBRANCH   2   8
BRANCH   5  10
HETATM   10  O2  UNL     1      30.238  19.361  82.613  1.00  0.00    -0.396 OA
ATOM     11  H2  UNL     1      30.875  19.666  81.976  1.00  0.00     0.210 HD
ENDBRANCH   5  10
TORSDOF 2
ENDMDL