MODEL 3
REMARK VINA RESULT: -3.945970646      1.660      2.199
REMARK  1 active torsions:
REMARK  status: ('A' for Active; 'I' for Inactive)
REMARK    1  A    between atoms: C4_4  and  O1_5
ROOT
HETATM    1  C1  UNL     1      30.289  23.678  85.066  1.00  0.00     0.011 C
HETATM    2  C2  UNL     1      29.814  22.297  85.392  1.00  0.00    -0.002 C
HETATM    3  C3  UNL     1      28.588  21.896  84.592  1.00  0.00     0.037 C
HETATM    4  C4  UNL     1      28.611  20.385  84.857  1.00  0.00     0.119 C
HETATM    5  C5  UNL     1      30.029  20.056  84.488  1.00  0.00     0.048 C
HETATM    6  C6  UNL     1      30.795  21.216  85.107  1.00  0.00     0.065 C
HETATM    7  S1  UNL     1      32.198  21.724  84.121  1.00  0.00    -0.092 SA
ENDROOT
BRANCH   4   8
HETATM    8  O1  UNL     1      27.663  19.709  84.149  1.00  0.00    -0.396 OA
ATOM      9  H1  UNL     1      27.586  20.014  83.252  1.00  0.00     0.210 HD
ENDBRANCH   4   8
TORSDOF 1
ENDMDL