MODEL 2
REMARK VINA RESULT: -3.447098439      1.739      2.173
REMARK  1 active torsions:
REMARK  status: ('A' for Active; 'I' for Inactive)
REMARK    1  A    between atoms: N1_8  and  O1_9
ROOT
HETATM    1  C1  UNL     1      26.241  20.138  83.656  1.00  0.00     0.029 C
HETATM    2  C2  UNL     1      26.204  20.788  82.267  1.00  0.00     0.082 C
HETATM    3  C3  UNL     1      27.084  20.013  81.353  1.00  0.00     0.022 C
HETATM    4  C4  UNL     1      26.796  20.185  79.900  1.00  0.00     0.003 C
HETATM    5  C5  UNL     1      25.358  20.331  79.554  1.00  0.00     0.022 C
HETATM    6  C6  UNL     1      24.424  20.228  80.733  1.00  0.00     0.082 C
HETATM    7  C7  UNL     1      24.142  18.795  81.028  1.00  0.00     0.029 C
HETATM    8  N1  UNL     1      24.878  21.009  81.825  1.00  0.00    -0.191 NA
ENDROOT
BRANCH   8   9
HETATM    9  O1  UNL     1      24.651  22.316  81.507  1.00  0.00    -0.312 OA
ATOM     10  H1  UNL     1      24.732  22.888  82.261  1.00  0.00     0.237 HD
ENDBRANCH   8   9
TORSDOF 1
ENDMDL