MODEL 4
REMARK VINA RESULT: -4.813775926      0.450      2.416
REMARK  2 active torsions:
REMARK  status: ('A' for Active; 'I' for Inactive)
REMARK    1  A    between atoms: O1_1  and  C1_3
REMARK    2  A    between atoms: C7_9  and  O2_10
ROOT
HETATM    1  C1  UNL     1      31.758  21.799  84.897  1.00  0.00     0.147 C
HETATM    2  C2  UNL     1      31.839  20.771  83.826  1.00  0.00     0.034 C
HETATM    3  C3  UNL     1      30.762  19.762  83.815  1.00  0.00     0.002 C
HETATM    4  C4  UNL     1      29.584  20.074  84.690  1.00  0.00     0.000 C
HETATM    5  C5  UNL     1      28.860  21.323  84.324  1.00  0.00     0.002 C
HETATM    6  C6  UNL     1      29.440  22.522  85.049  1.00  0.00     0.034 C
HETATM    7  C7  UNL     1      30.789  22.865  84.485  1.00  0.00     0.147 C
ENDROOT
BRANCH   1   8
HETATM    8  O1  UNL     1      33.021  22.399  85.054  1.00  0.00    -0.393 OA
ATOM      9  H1  UNL     1      33.031  23.225  84.586  1.00  0.00     0.210 HD
ENDBRANCH   1   8
BRANCH   7  10
HETATM   10  O2  UNL     1      31.172  24.142  84.864  1.00  0.00    -0.393 OA
ATOM     11  H2  UNL     1      31.760  24.563  84.249  1.00  0.00     0.210 HD
ENDBRANCH   7  10
TORSDOF 2
ENDMDL