MODEL 5
REMARK VINA RESULT: -4.028303885      1.692      3.277
REMARK  2 active torsions:
REMARK  status: ('A' for Active; 'I' for Inactive)
REMARK    1  A    between atoms: O1_1  and  C1_3
REMARK    2  A    between atoms: C7_9  and  O2_10
ROOT
HETATM    1  C1  UNL     1      30.795  20.460  84.679  1.00  0.00     0.124 C
HETATM    2  C2  UNL     1      29.521  20.054  84.033  1.00  0.00     0.032 C
HETATM    3  C3  UNL     1      28.460  21.094  84.004  1.00  0.00     0.010 C
HETATM    4  C4  UNL     1      28.779  22.283  84.853  1.00  0.00     0.015 C
HETATM    5  C5  UNL     1      29.387  21.887  86.194  1.00  0.00     0.017 C
HETATM    6  C6  UNL     1      30.697  21.739  85.449  1.00  0.00     0.044 C
HETATM    7  C7  UNL     1      30.171  22.803  84.482  1.00  0.00     0.128 C
ENDROOT
BRANCH   1   8
HETATM    8  O1  UNL     1      31.743  20.671  83.654  1.00  0.00    -0.395 OA
ATOM      9  H1  UNL     1      31.853  21.610  83.556  1.00  0.00     0.210 HD
ENDBRANCH   1   8
BRANCH   7  10
HETATM   10  O2  UNL     1      30.330  24.105  84.925  1.00  0.00    -0.395 OA
ATOM     11  H2  UNL     1      30.498  24.684  84.190  1.00  0.00     0.210 HD
ENDBRANCH   7  10
TORSDOF 2
ENDMDL