MODEL 5
REMARK VINA RESULT: -4.246077987      1.322      3.816
REMARK  2 active torsions:
REMARK  status: ('A' for Active; 'I' for Inactive)
REMARK    1  A    between atoms: C3_3  and  O1_4
REMARK    2  A    between atoms: C7_9  and  O2_10
ROOT
HETATM    1  C1  UNL     1      27.119  20.162  83.664  1.00  0.00     0.015 C
HETATM    2  C2  UNL     1      28.459  20.850  83.833  1.00  0.00     0.039 C
HETATM    3  C3  UNL     1      28.971  20.715  85.268  1.00  0.00     0.124 C
HETATM    4  C4  UNL     1      30.294  21.489  85.291  1.00  0.00     0.032 C
HETATM    5  C5  UNL     1      31.310  20.754  84.482  1.00  0.00     0.005 C
HETATM    6  C6  UNL     1      30.782  20.031  83.304  1.00  0.00     0.032 C
HETATM    7  C7  UNL     1      29.453  20.449  82.816  1.00  0.00     0.124 C
ENDROOT
BRANCH   3   8
HETATM    8  O1  UNL     1      28.109  21.455  86.105  1.00  0.00    -0.395 OA
ATOM      9  H1  UNL     1      27.683  22.115  85.571  1.00  0.00     0.210 HD
ENDBRANCH   3   8
BRANCH   7  10
HETATM   10  O2  UNL     1      28.920  19.371  82.068  1.00  0.00    -0.395 OA
ATOM     11  H2  UNL     1      28.239  18.954  82.584  1.00  0.00     0.210 HD
ENDBRANCH   7  10
TORSDOF 2
ENDMDL