MODEL 2
REMARK VINA RESULT: -4.818521852      2.912      4.804
REMARK  2 active torsions:
REMARK  status: ('A' for Active; 'I' for Inactive)
REMARK       I    between atoms: N1_2  and  C2_4
REMARK       I    between atoms: C2_4  and  N3_8
REMARK    1  A    between atoms: N4_10  and  N5_12
REMARK    2  A    between atoms: N5_12  and  O1_14
ROOT
HETATM    1  C1  UNL     1      27.126  20.596  83.597  1.00  0.00     0.165 C
HETATM    2  N1  UNL     1      28.417  20.412  84.226  1.00  0.00    -0.230 N
ATOM      3  H1  UNL     1      28.976  19.610  83.934  1.00  0.00     0.177 HD
HETATM    4  C2  UNL     1      28.954  21.262  85.211  1.00  0.00     0.687 C
HETATM    5  N2  UNL     1      28.277  21.543  86.253  1.00  0.00    -0.234 N
ATOM      6  H21 UNL     1      28.667  22.159  86.967  1.00  0.00     0.174 HD
ATOM      7  H22 UNL     1      27.342  21.157  86.384  1.00  0.00     0.174 HD
HETATM    8  N3  UNL     1      30.244  21.794  85.031  1.00  0.00    -0.117 N
ATOM      9  H3  UNL     1      30.414  22.799  85.068  1.00  0.00     0.207 HD
HETATM   10  N4  UNL     1      31.194  20.966  84.820  1.00  0.00    -0.207 N
ATOM     11  H4  UNL     1      31.016  19.962  84.784  1.00  0.00     0.211 HD
ENDROOT
BRANCH  10  12
HETATM   12  N5  UNL     1      32.469  21.469  84.640  1.00  0.00    -0.191 N
HETATM   13  C3  UNL     1      32.636  22.763  84.046  1.00  0.00     0.209 C
BRANCH  12  14
HETATM   14  O1  UNL     1      33.451  20.813  84.986  1.00  0.00    -0.272 OA
ATOM     15  H1  UNL     1      34.088  20.527  84.343  1.00  0.00     0.246 HD
ENDBRANCH  12  14
ENDBRANCH  10  12
TORSDOF 2
ENDMDL