MODEL 5
REMARK VINA RESULT: -4.602163859      2.157      3.169
REMARK  6 active torsions:
REMARK  status: ('A' for Active; 'I' for Inactive)
REMARK    1  A    between atoms: C2_3  and  O1_4
REMARK    2  A    between atoms: C4_8  and  C5_9
REMARK    3  A    between atoms: C5_9  and  O3_10
REMARK    4  A    between atoms: C8_14  and  N2_15
REMARK    5  A    between atoms: C8_14  and  C9_19
REMARK    6  A    between atoms: C9_19  and  O4_20
ROOT
HETATM    1  N1  UNL     1      29.995  64.156   0.069  1.00  0.00    -0.191 NA
HETATM    2  C1  UNL     1      30.953  63.575   0.380  1.00  0.00     0.131 C
HETATM    3  C2  UNL     1      32.179  62.855   0.783  1.00  0.00     0.279 C
HETATM    4  C3  UNL     1      32.123  62.674   2.265  1.00  0.00     0.254 C
HETATM    5  O2  UNL     1      32.497  63.748   3.006  1.00  0.00    -0.366 OA
HETATM    6  C4  UNL     1      33.593  64.452   2.533  1.00  0.00     0.132 C
HETATM    7  C6  UNL     1      33.555  65.809   3.201  1.00  0.00     0.050 C
HETATM    8  C7  UNL     1      34.572  66.708   2.566  1.00  0.00     0.074 C
HETATM    9  C8  UNL     1      34.622  66.667   1.077  1.00  0.00     0.247 C
HETATM   10  O5  UNL     1      34.541  65.395   0.560  1.00  0.00    -0.319 OA
HETATM   11  C10 UNL     1      33.450  64.692   1.048  1.00  0.00     0.304 C
HETATM   12  O6  UNL     1      33.315  63.503   0.342  1.00  0.00    -0.308 OA
ENDROOT
BRANCH   3  13
HETATM   13  O1  UNL     1      32.165  61.590   0.169  1.00  0.00    -0.352 OA
ATOM     14  H1  UNL     1      32.768  61.026   0.639  1.00  0.00     0.214 HD
ENDBRANCH   3  13
BRANCH   6  15
HETATM   15  C5  UNL     1      34.902  63.793   2.882  1.00  0.00     0.207 C
BRANCH  15  16
HETATM   16  O3  UNL     1      35.544  63.272   1.758  1.00  0.00    -0.398 OA
ATOM     17  H3  UNL     1      35.140  62.467   1.456  1.00  0.00     0.209 HD
ENDBRANCH  15  16
ENDBRANCH   6  15
BRANCH   9  18
HETATM   18  N2  UNL     1      35.939  67.194   0.681  1.00  0.00    -0.045 N
ATOM     19  H23 UNL     1      35.925  67.675  -0.219  1.00  0.00     0.278 HD
ATOM     20  H22 UNL     1      36.241  67.987   1.246  1.00  0.00     0.278 HD
ATOM     21  H21 UNL     1      36.591  66.410   0.707  1.00  0.00     0.278 HD
ENDBRANCH   9  18
BRANCH   9  22
HETATM   22  C9  UNL     1      33.607  67.617   0.470  1.00  0.00     0.232 C
BRANCH  22  23
HETATM   23  O4  UNL     1      33.631  68.800   1.211  1.00  0.00    -0.396 OA
ATOM     24  H4  UNL     1      32.734  69.022   1.432  1.00  0.00     0.209 HD
ENDBRANCH  22  23
ENDBRANCH   9  22
TORSDOF 6
ENDMDL