MODEL 2
REMARK VINA RESULT: -7.403846485      2.657      5.891
REMARK  3 active torsions:
REMARK  status: ('A' for Active; 'I' for Inactive)
REMARK    1  A    between atoms: N1_1  and  C1_4
REMARK    2  A    between atoms: C2_7  and  N3_8
REMARK    3  A    between atoms: C7_18  and  N6_19
ROOT
HETATM    1  C1  UNL     1      35.588  61.324   8.285  1.00  0.00     0.705 A
HETATM    2  N2  UNL     1      35.635  60.062   7.898  1.00  0.00    -0.022 N
ATOM      3  H2  UNL     1      36.059  59.825   7.001  1.00  0.00     0.203 HD
HETATM    4  C2  UNL     1      35.114  59.057   8.696  1.00  0.00     0.709 A
HETATM    5  N5  UNL     1      34.568  59.378   9.853  1.00  0.00    -0.021 N
ATOM      6  H5  UNL     1      34.190  58.630  10.434  1.00  0.00     0.203 HD
HETATM    7  C7  UNL     1      34.487  60.632  10.300  1.00  0.00     0.709 A
HETATM    8  N7  UNL     1      35.017  61.597   9.474  1.00  0.00    -0.022 N
ATOM      9  H7  UNL     1      34.975  62.569   9.778  1.00  0.00     0.203 HD
ENDROOT
BRANCH   4  10
HETATM   10  N3  UNL     1      35.185  57.714   8.244  1.00  0.00    -0.213 N
HETATM   11  C3  UNL     1      36.149  56.737   8.728  1.00  0.00     0.168 C
HETATM   12  C4  UNL     1      35.294  55.579   9.259  1.00  0.00     0.252 C
HETATM   13  N4  UNL     1      34.576  54.991   8.152  1.00  0.00    -0.072 N
HETATM   14  C5  UNL     1      34.559  55.799   6.962  1.00  0.00     0.252 C
ATOM     15  H42 UNL     1      34.939  54.060   7.945  1.00  0.00     0.277 HD
ATOM     16  H41 UNL     1      33.626  54.748   8.431  1.00  0.00     0.277 HD
HETATM   17  C6  UNL     1      34.216  57.244   7.249  1.00  0.00     0.168 C
ENDBRANCH   4  10
BRANCH   1  18
HETATM   18  N1  UNL     1      36.151  62.338   7.629  1.00  0.00    -0.234 N
ATOM     19  H12 UNL     1      35.732  63.261   7.743  1.00  0.00     0.174 HD
ATOM     20  H11 UNL     1      37.009  62.269   7.082  1.00  0.00     0.174 HD
ENDBRANCH   1  18
BRANCH   7  21
HETATM   21  N6  UNL     1      33.911  60.992  11.511  1.00  0.00    -0.213 N
HETATM   22  C8  UNL     1      32.932  62.025  11.663  1.00  0.00     0.167 C
HETATM   23  C9  UNL     1      31.741  61.336  12.364  1.00  0.00     0.188 C
HETATM   24  O1  UNL     1      32.173  60.943  13.603  1.00  0.00    -0.388 OA
HETATM   25  C10 UNL     1      33.168  60.010  13.641  1.00  0.00     0.188 C
HETATM   26  C11 UNL     1      34.320  60.297  12.716  1.00  0.00     0.167 C
ENDBRANCH   7  21
TORSDOF 3
ENDMDL