MODEL 5
REMARK VINA RESULT: -6.694066260      5.428      6.649
REMARK  4 active torsions:
REMARK  status: ('A' for Active; 'I' for Inactive)
REMARK    1  A    between atoms: N1_2  and  N2_4
REMARK    2  A    between atoms: N5_12  and  C4_14
REMARK    3  A    between atoms: C4_14  and  N6_15
REMARK    4  A    between atoms: C6_22  and  N8_23
ROOT
HETATM    1  N2  UNL     1      35.524  63.354   7.792  1.00  0.00    -0.268 N
ATOM      2  H2  UNL     1      35.645  63.518   8.791  1.00  0.00     0.190 HD
HETATM    3  C2  UNL     1      34.997  64.284   7.068  1.00  0.00     0.261 A
HETATM    4  N3  UNL     1      34.579  65.479   7.505  1.00  0.00    -0.261 N
ATOM      5  H3  UNL     1      34.620  65.816   8.467  1.00  0.00     0.190 HD
HETATM    6  N4  UNL     1      34.102  66.145   6.459  1.00  0.00    -0.262 N
ATOM      7  H4  UNL     1      33.709  67.087   6.465  1.00  0.00     0.190 HD
HETATM    8  C3  UNL     1      34.236  65.340   5.394  1.00  0.00     0.245 A
HETATM    9  N5  UNL     1      33.889  65.624   4.196  1.00  0.00    -0.309 N
ATOM     10  H5  UNL     1      33.473  66.538   4.019  1.00  0.00     0.166 HD
HETATM   11  O1  UNL     1      34.779  64.209   5.763  1.00  0.00    -0.243 OA
ENDROOT
BRANCH   9  12
HETATM   12  C4  UNL     1      34.053  64.730   3.093  1.00  0.00     0.287 C
HETATM   13  C5  UNL     1      33.695  65.476   1.822  1.00  0.00     0.136 C
HETATM   14  N7  UNL     1      33.069  64.640   0.897  1.00  0.00    -0.345 N
HETATM   15  C6  UNL     1      32.483  63.592   1.247  1.00  0.00     0.145 C
ATOM     16  H7  UNL     1      33.090  64.890  -0.091  1.00  0.00     0.167 HD
HETATM   17  S1  UNL     1      32.678  63.502   3.035  1.00  0.00    -0.028 SA
BRANCH  12  18
HETATM   18  N6  UNL     1      35.329  64.087   3.030  1.00  0.00    -0.037 N
ATOM     19  H63 UNL     1      35.396  63.518   2.187  1.00  0.00     0.278 HD
ATOM     20  H62 UNL     1      36.061  64.771   2.842  1.00  0.00     0.278 HD
ATOM     21  H61 UNL     1      35.567  63.532   3.852  1.00  0.00     0.278 HD
ENDBRANCH  12  18
BRANCH  15  22
HETATM   22  N8  UNL     1      31.784  62.600   0.500  1.00  0.00    -0.370 N
HETATM   23  C7  UNL     1      30.419  62.843   0.064  1.00  0.00     0.151 C
HETATM   24  C8  UNL     1      32.414  61.356   0.169  1.00  0.00     0.151 C
ENDBRANCH  15  22
ENDBRANCH   9  12
BRANCH   1  25
HETATM   25  N1  UNL     1      35.930  62.144   7.263  1.00  0.00    -0.338 N
HETATM   26  C1  UNL     1      36.129  61.006   8.140  1.00  0.00     0.167 C
ATOM     27  H1  UNL     1      36.088  62.051   6.260  1.00  0.00     0.179 HD
ENDBRANCH   1  25
TORSDOF 4
ENDMDL