MODEL 4
REMARK VINA RESULT: -7.068444313      2.196      6.101
REMARK  3 active torsions:
REMARK  status: ('A' for Active; 'I' for Inactive)
REMARK    1  A    between atoms: O1_2  and  N1_3
REMARK    2  A    between atoms: C2_5  and  C4_7
REMARK    3  A    between atoms: C7_15  and  N5_16
ROOT
HETATM    1  C4  UNL     1      34.720  63.385   9.006  1.00  0.00     0.099 A
HETATM    2  C5  UNL     1      35.551  63.186   7.942  1.00  0.00     0.149 A
HETATM    3  N2  UNL     1      36.014  64.243   7.116  1.00  0.00    -0.081 NA
HETATM    4  N3  UNL     1      35.956  61.907   7.656  1.00  0.00    -0.176 N
ATOM      5  H3  UNL     1      36.577  61.748   6.863  1.00  0.00     0.185 HD
HETATM    6  C6  UNL     1      35.558  60.860   8.393  1.00  0.00     0.711 A
HETATM    7  N4  UNL     1      35.963  59.606   8.103  1.00  0.00    -0.021 N
ATOM      8  H4  UNL     1      36.584  59.454   7.309  1.00  0.00     0.203 HD
HETATM    9  C7  UNL     1      35.565  58.554   8.839  1.00  0.00     0.694 A
HETATM   10  N6  UNL     1      34.745  58.698   9.899  1.00  0.00    -0.140 N
ATOM     11  H6  UNL     1      34.446  57.895  10.454  1.00  0.00     0.189 HD
HETATM   12  C8  UNL     1      34.341  59.939  10.192  1.00  0.00     0.362 A
HETATM   13  O2  UNL     1      33.581  60.125  11.163  1.00  0.00    -0.245 OA
HETATM   14  N7  UNL     1      34.740  61.014   9.449  1.00  0.00    -0.057 N
HETATM   15  C9  UNL     1      34.336  62.247   9.740  1.00  0.00     0.286 A
HETATM   16  O3  UNL     1      33.579  62.439  10.708  1.00  0.00    -0.266 OA
ENDROOT
BRANCH   1  17
HETATM   17  C2  UNL     1      34.239  64.683   9.389  1.00  0.00     0.047 C
HETATM   18  N1  UNL     1      33.885  65.562   8.466  1.00  0.00    -0.271 N
ATOM     19  H1  UNL     1      33.970  65.277   7.491  1.00  0.00     0.194 HD
HETATM   20  C3  UNL     1      34.093  65.155  10.770  1.00  0.00     0.071 C
BRANCH  18  21
HETATM   21  O1  UNL     1      33.427  66.792   8.709  1.00  0.00    -0.285 OA
HETATM   22  C1  UNL     1      33.758  67.988   8.070  1.00  0.00     0.237 C
ENDBRANCH  18  21
ENDBRANCH   1  17
BRANCH   9  23
HETATM   23  N5  UNL     1      35.964  57.373   8.544  1.00  0.00    -0.234 N
ATOM     24  H52 UNL     1      36.959  57.235   8.363  1.00  0.00     0.174 HD
ATOM     25  H51 UNL     1      35.296  56.603   8.494  1.00  0.00     0.174 HD
ENDBRANCH   9  23
TORSDOF 3
ENDMDL