MODEL 2
REMARK VINA RESULT: -6.793977570      1.808      5.189
REMARK  4 active torsions:
REMARK  status: ('A' for Active; 'I' for Inactive)
REMARK    1  A    between atoms: O1_2  and  C2_3
REMARK    2  A    between atoms: C5_11  and  C6_12
REMARK    3  A    between atoms: C8_16  and  N5_17
REMARK    4  A    between atoms: N6_20  and  O3_21
ROOT
HETATM    1  C2  UNL     1      34.017  64.584   9.259  1.00  0.00     0.226 A
HETATM    2  N1  UNL     1      34.801  64.238   8.224  1.00  0.00    -0.308 N
ATOM      3  H1  UNL     1      35.063  64.911   7.503  1.00  0.00     0.170 HD
HETATM    4  C3  UNL     1      35.224  62.965   8.182  1.00  0.00     0.150 A
HETATM    5  N2  UNL     1      36.059  62.572   7.092  1.00  0.00    -0.080 NA
HETATM    6  C4  UNL     1      34.872  62.056   9.157  1.00  0.00     0.121 A
HETATM    7  N3  UNL     1      35.399  60.816   8.939  1.00  0.00    -0.346 N
ATOM      8  H3  UNL     1      36.273  60.790   8.413  1.00  0.00     0.166 HD
HETATM    9  C5  UNL     1      34.914  59.619   9.333  1.00  0.00     0.102 C
HETATM   10  C7  UNL     1      34.047  59.439  10.387  1.00  0.00     0.085 C
HETATM   11  C8  UNL     1      33.572  60.376  11.307  1.00  0.00     0.131 C
HETATM   12  N6  UNL     1      33.623  61.715  11.232  1.00  0.00    -0.189 N
HETATM   13  C9  UNL     1      34.064  62.479  10.193  1.00  0.00     0.168 A
HETATM   14  N7  UNL     1      33.646  63.736  10.234  1.00  0.00    -0.304 N
ATOM     15  H7  UNL     1      33.049  64.056  10.996  1.00  0.00     0.171 HD
ENDROOT
BRANCH   9  16
HETATM   16  C6  UNL     1      35.326  58.439   8.606  1.00  0.00     0.281 C
HETATM   17  N4  UNL     1      36.027  58.445   7.395  1.00  0.00    -0.056 NA
HETATM   18  O2  UNL     1      35.030  57.308   9.104  1.00  0.00    -0.269 OA
ENDBRANCH   9  16
BRANCH  11  19
HETATM   19  N5  UNL     1      33.014  59.914  12.358  1.00  0.00    -0.384 N
ATOM     20  H52 UNL     1      33.602  59.911  13.192  1.00  0.00     0.157 HD
ATOM     21  H51 UNL     1      32.050  59.598  12.263  1.00  0.00     0.157 HD
ENDBRANCH  11  19
BRANCH  12  22
HETATM   22  O3  UNL     1      33.192  62.461  12.303  1.00  0.00    -0.279 OA
ATOM     23  H3  UNL     1      33.628  62.362  13.142  1.00  0.00     0.245 HD
ENDBRANCH  12  22
BRANCH   1  24
HETATM   24  O1  UNL     1      33.588  65.919   9.282  1.00  0.00    -0.327 OA
HETATM   25  C1  UNL     1      33.894  66.816   8.239  1.00  0.00     0.213 C
ENDBRANCH   1  24
TORSDOF 4
ENDMDL