MODEL 3
REMARK VINA RESULT: -6.673557304      1.791      3.385
REMARK  3 active torsions:
REMARK  status: ('A' for Active; 'I' for Inactive)
REMARK    1  A    between atoms: C3_4  and  C4_5
REMARK    2  A    between atoms: C6_10  and  N4_11
REMARK    3  A    between atoms: N5_16  and  O3_17
ROOT
HETATM    1  N1  UNL     1      36.818  59.660   6.207  1.00  0.00    -0.191 NA
HETATM    2  C1  UNL     1      36.232  59.946   7.165  1.00  0.00     0.106 C
HETATM    3  C2  UNL     1      35.505  60.261   8.355  1.00  0.00     0.132 A
HETATM    4  C3  UNL     1      35.227  61.562   8.676  1.00  0.00     0.083 A
HETATM    5  C5  UNL     1      34.518  61.807   9.844  1.00  0.00     0.109 A
HETATM    6  N3  UNL     1      34.223  63.169  10.185  1.00  0.00    -0.097 NA
HETATM    7  C6  UNL     1      34.111  60.776  10.647  1.00  0.00     0.162 A
HETATM    8  N5  UNL     1      34.385  59.501  10.330  1.00  0.00    -0.168 N
HETATM    9  C10 UNL     1      35.073  59.248   9.199  1.00  0.00     0.295 A
HETATM   10  O4  UNL     1      35.329  58.048   8.906  1.00  0.00    -0.264 OA
ENDROOT
BRANCH   4  11
HETATM   11  C4  UNL     1      35.628  62.709   7.865  1.00  0.00     0.268 C
HETATM   12  N2  UNL     1      36.792  63.459   8.094  1.00  0.00    -0.057 NA
HETATM   13  O1  UNL     1      34.908  63.088   6.880  1.00  0.00    -0.271 OA
ENDBRANCH   4  11
BRANCH   8  14
HETATM   14  O3  UNL     1      33.989  58.451  11.120  1.00  0.00    -0.278 OA
ATOM     15  H3  UNL     1      33.092  58.140  11.133  1.00  0.00     0.245 HD
ENDBRANCH   8  14
BRANCH   7  16
HETATM   16  N4  UNL     1      33.386  61.102  11.833  1.00  0.00    -0.340 N
HETATM   17  C7  UNL     1      32.008  61.613  11.880  1.00  0.00     0.153 C
HETATM   18  C8  UNL     1      31.614  61.282  13.289  1.00  0.00     0.189 C
HETATM   19  O2  UNL     1      32.625  60.474  13.808  1.00  0.00    -0.370 OA
HETATM   20  C9  UNL     1      33.782  61.022  13.224  1.00  0.00     0.294 C
ENDBRANCH   7  16
TORSDOF 3
ENDMDL