MODEL 5
REMARK VINA RESULT: -5.327046872      1.579      2.097
REMARK  4 active torsions:
REMARK  status: ('A' for Active; 'I' for Inactive)
REMARK    1  A    between atoms: O1_2  and  C2_3
REMARK    2  A    between atoms: C3_4  and  N1_5
REMARK    3  A    between atoms: N1_5  and  O2_6
REMARK       I    between atoms: N1_5  and  C4_8
REMARK    4  A    between atoms: C9_18  and  N4_19
ROOT
HETATM    1  C2  UNL     1      34.156  61.195  10.610  1.00  0.00     0.230 C
HETATM    2  C3  UNL     1      33.917  62.365   9.713  1.00  0.00     0.273 C
HETATM    3  N3  UNL     1      33.122  63.268  10.520  1.00  0.00    -0.066 NA
HETATM    4  O4  UNL     1      32.382  62.508  11.343  1.00  0.00    -0.239 OA
HETATM    5  C5  UNL     1      33.110  61.405  11.690  1.00  0.00     0.247 C
HETATM    6  O5  UNL     1      32.381  60.265  12.020  1.00  0.00    -0.337 OA
HETATM    7  C6  UNL     1      32.317  60.728  13.344  1.00  0.00     0.091 C
HETATM    8  C7  UNL     1      31.117  61.637  13.513  1.00  0.00     0.048 C
HETATM    9  C8  UNL     1      32.418  59.665  14.396  1.00  0.00     0.048 C
HETATM   10  C9  UNL     1      33.618  61.442  13.095  1.00  0.00     0.283 C
ENDROOT
BRANCH   1  11
HETATM   11  O1  UNL     1      33.818  60.006   9.968  1.00  0.00    -0.381 OA
HETATM   12  C1  UNL     1      34.917  59.202   9.713  1.00  0.00     0.202 C
ENDBRANCH   1  11
BRANCH  10  13
HETATM   13  N4  UNL     1      34.785  60.680  13.400  1.00  0.00    -0.067 N
ATOM     14  H43 UNL     1      34.557  59.990  14.115  1.00  0.00     0.275 HD
ATOM     15  H42 UNL     1      35.005  60.074  12.610  1.00  0.00     0.275 HD
ATOM     16  H41 UNL     1      35.625  61.187  13.678  1.00  0.00     0.275 HD
ENDBRANCH  10  13
BRANCH   2  17
HETATM   17  N1  UNL     1      35.077  63.054   9.274  1.00  0.00    -0.187 N
HETATM   18  C4  UNL     1      35.938  62.628   8.227  1.00  0.00     0.356 C
HETATM   19  N2  UNL     1      37.067  63.400   7.880  1.00  0.00    -0.038 NA
HETATM   20  O3  UNL     1      35.773  61.577   7.557  1.00  0.00    -0.248 OA
BRANCH  17  21
HETATM   21  O2  UNL     1      35.376  64.210   9.915  1.00  0.00    -0.282 OA
ATOM     22  H2  UNL     1      36.215  64.605   9.712  1.00  0.00     0.245 HD
ENDBRANCH  17  21
ENDBRANCH   2  17
TORSDOF 4
ENDMDL