MODEL 3
REMARK VINA RESULT: -7.562793019      2.326      3.978
REMARK  4 active torsions:
REMARK  status: ('A' for Active; 'I' for Inactive)
REMARK    1  A    between atoms: C3_4  and  C4_5
REMARK    2  A    between atoms: C6_12  and  N4_13
REMARK    3  A    between atoms: C7_16  and  N5_17
REMARK    4  A    between atoms: N5_17  and  N6_19
ROOT
HETATM    1  C1  UNL     1      32.062  61.683  13.027  1.00  0.00     0.160 C
HETATM    2  N1  UNL     1      33.127  61.126  12.179  1.00  0.00    -0.313 N
HETATM    3  C2  UNL     1      33.465  61.758  11.029  1.00  0.00     0.113 A
HETATM    4  C3  UNL     1      34.459  61.293  10.180  1.00  0.00     0.056 A
HETATM    5  C7  UNL     1      35.084  60.127  10.592  1.00  0.00     0.137 A
HETATM    6  N7  UNL     1      34.742  59.498  11.739  1.00  0.00    -0.292 N
ATOM      7  H7  UNL     1      35.217  58.641  12.021  1.00  0.00     0.172 HD
HETATM    8  C8  UNL     1      33.774  60.017  12.499  1.00  0.00     0.327 A
HETATM    9  O4  UNL     1      33.488  59.387  13.572  1.00  0.00    -0.246 OA
ENDROOT
BRANCH   4  10
HETATM   10  C4  UNL     1      34.855  62.027   8.965  1.00  0.00     0.102 A
HETATM   11  N2  UNL     1      35.416  61.522   7.853  1.00  0.00    -0.294 N
HETATM   12  N3  UNL     1      35.703  62.497   6.975  1.00  0.00    -0.264 N
ATOM     13  H2  UNL     1      35.599  60.531   7.696  1.00  0.00     0.187 HD
HETATM   14  C5  UNL     1      35.344  63.676   7.474  1.00  0.00     0.295 A
ATOM     15  H3  UNL     1      36.133  62.355   6.061  1.00  0.00     0.190 HD
HETATM   16  O1  UNL     1      35.447  64.830   6.956  1.00  0.00    -0.264 OA
HETATM   17  C6  UNL     1      34.801  63.375   8.749  1.00  0.00     0.200 A
BRANCH  17  18
HETATM   18  N4  UNL     1      34.339  64.414   9.580  1.00  0.00    -0.107 N
HETATM   19  O2  UNL     1      34.997  64.768  10.573  1.00  0.00    -0.531 OA
HETATM   20  O3  UNL     1      33.167  65.045   9.263  1.00  0.00    -0.531 OA
ENDBRANCH  17  18
ENDBRANCH   4  10
BRANCH   5  21
HETATM   21  N5  UNL     1      36.032  59.639   9.877  1.00  0.00    -0.291 N
ATOM     22  H5  UNL     1      36.906  60.163   9.834  1.00  0.00     0.188 HD
BRANCH  21  23
HETATM   23  N6  UNL     1      35.960  58.465   9.164  1.00  0.00    -0.344 N
ATOM     24  H62 UNL     1      35.910  58.555   8.149  1.00  0.00     0.176 HD
ATOM     25  H61 UNL     1      35.955  57.530   9.571  1.00  0.00     0.176 HD
ENDBRANCH  21  23
ENDBRANCH   5  21
TORSDOF 4
ENDMDL