MODEL 1
REMARK VINA RESULT: -6.241648653      0.000      0.000
REMARK  3 active torsions:
REMARK  status: ('A' for Active; 'I' for Inactive)
REMARK    1  A    between atoms: C4_7  and  C5_8
REMARK    2  A    between atoms: C5_8  and  O1_9
REMARK    3  A    between atoms: O1_9  and  S1_10
ROOT
HETATM    1  N1  UNL     1      34.126  63.749   9.395  1.00  0.00    -0.064 NA
HETATM    2  C1  UNL     1      34.148  62.531  10.139  1.00  0.00     0.188 C
HETATM    3  N2  UNL     1      33.179  62.193  10.923  1.00  0.00    -0.309 N
ATOM      4  H2  UNL     1      32.375  62.813  11.014  1.00  0.00     0.167 HD
HETATM    5  C2  UNL     1      33.203  60.955  11.677  1.00  0.00     0.309 C
HETATM    6  C3  UNL     1      33.837  59.844  10.906  1.00  0.00     0.120 C
HETATM    7  C4  UNL     1      35.055  60.238  10.146  1.00  0.00     0.115 C
HETATM    8  N3  UNL     1      35.258  61.649  10.033  1.00  0.00    -0.358 N
ATOM      9  H3  UNL     1      36.195  62.021   9.876  1.00  0.00     0.162 HD
HETATM   10  N4  UNL     1      33.862  61.227  12.929  1.00  0.00    -0.021 N
ATOM     11  H41 UNL     1      33.853  62.209  13.204  1.00  0.00     0.283 HD
ATOM     12  H42 UNL     1      34.877  61.131  12.899  1.00  0.00     0.283 HD
HETATM   13  C6  UNL     1      33.199  60.331  13.871  1.00  0.00     0.264 C
HETATM   14  C7  UNL     1      31.801  60.295  13.292  1.00  0.00     0.200 C
HETATM   15  O5  UNL     1      31.887  60.614  11.964  1.00  0.00    -0.337 OA
ENDROOT
BRANCH   7  16
HETATM   16  C5  UNL     1      35.021  59.654   8.744  1.00  0.00     0.218 C
BRANCH  16  17
HETATM   17  O1  UNL     1      34.503  58.353   8.814  1.00  0.00    -0.255 OA
BRANCH  17  18
HETATM   18  S1  UNL     1      35.366  57.298   7.850  1.00  0.00     0.251 S
HETATM   19  O2  UNL     1      36.336  56.474   8.629  1.00  0.00    -0.572 OA
HETATM   20  O3  UNL     1      36.075  58.067   6.757  1.00  0.00    -0.572 OA
HETATM   21  O4  UNL     1      34.250  56.259   7.121  1.00  0.00    -0.572 OA
ENDBRANCH  17  18
ENDBRANCH  16  17
ENDBRANCH   7  16
TORSDOF 3
ENDMDL