MODEL 5
REMARK VINA RESULT: -7.102295907      2.964      3.960
REMARK  4 active torsions:
REMARK  status: ('A' for Active; 'I' for Inactive)
REMARK    1  A    between atoms: C2_3  and  N2_4
REMARK    2  A    between atoms: N3_7  and  S1_8
REMARK    3  A    between atoms: C5_14  and  N5_15
REMARK    4  A    between atoms: C6_20  and  N7_21
ROOT
HETATM    1  N1  UNL     1      34.282  57.336   7.378  1.00  0.00    -0.196 NA
HETATM    2  C1  UNL     1      35.009  57.937   8.078  1.00  0.00     0.079 C
HETATM    3  C2  UNL     1      35.904  58.704   8.947  1.00  0.00     0.258 C
ENDROOT
BRANCH   3   4
HETATM    4  N2  UNL     1      35.400  60.018   9.147  1.00  0.00    -0.279 N
HETATM    5  C3  UNL     1      35.624  61.068   8.332  1.00  0.00     0.346 A
HETATM    6  O1  UNL     1      36.313  61.047   7.271  1.00  0.00    -0.245 OA
HETATM    7  N3  UNL     1      34.995  62.139   8.833  1.00  0.00    -0.157 N
HETATM    8  C4  UNL     1      34.355  61.809   9.973  1.00  0.00     0.174 A
HETATM    9  N4  UNL     1      33.593  62.511  10.843  1.00  0.00    -0.173 N
HETATM   10  C7  UNL     1      34.626  60.457  10.155  1.00  0.00     0.130 A
HETATM   11  C5  UNL     1      33.062  61.924  11.929  1.00  0.00     0.679 A
ATOM     12  H4  UNL     1      33.418  63.501  10.671  1.00  0.00     0.186 HD
HETATM   13  N6  UNL     1      33.317  60.618  12.116  1.00  0.00    -0.175 N
HETATM   14  C6  UNL     1      34.072  59.875  11.274  1.00  0.00     0.145 A
ATOM     15  H6  UNL     1      32.919  60.162  12.936  1.00  0.00     0.186 HD
BRANCH   7  16
HETATM   16  S1  UNL     1      34.968  63.738   8.162  1.00  0.00     0.370 S
HETATM   17  O2  UNL     1      34.502  64.724   9.196  1.00  0.00    -0.186 OA
HETATM   18  O3  UNL     1      36.285  64.110   7.564  1.00  0.00    -0.186 OA
ENDBRANCH   7  16
BRANCH  11  19
HETATM   19  N5  UNL     1      32.328  62.604  12.765  1.00  0.00    -0.234 N
ATOM     20  H52 UNL     1      32.136  63.596  12.624  1.00  0.00     0.174 HD
ATOM     21  H51 UNL     1      31.922  62.158  13.588  1.00  0.00     0.174 HD
ENDBRANCH  11  19
BRANCH  14  22
HETATM   22  N7  UNL     1      34.302  58.628  11.470  1.00  0.00    -0.383 N
ATOM     23  H72 UNL     1      34.885  58.142  10.788  1.00  0.00     0.157 HD
ATOM     24  H71 UNL     1      33.926  58.119  12.271  1.00  0.00     0.157 HD
ENDBRANCH  14  22
ENDBRANCH   3   4
TORSDOF 4
ENDMDL