MODEL 3
REMARK VINA RESULT: -5.624772752      2.410      4.305
REMARK  6 active torsions:
REMARK  status: ('A' for Active; 'I' for Inactive)
REMARK    1  A    between atoms: N1_1  and  C1_5
REMARK    2  A    between atoms: C2_8  and  N3_9
REMARK    3  A    between atoms: N3_9  and  N4_11
REMARK    4  A    between atoms: C8_22  and  C9_23
REMARK    5  A    between atoms: C9_23  and  O4_24
REMARK    6  A    between atoms: C9_23  and  O5_26
ROOT
HETATM    1  C1  UNL     1      34.462  67.043   1.026  1.00  0.00     0.388 C
HETATM    2  N2  UNL     1      33.192  67.233   0.412  1.00  0.00    -0.333 N
ATOM      3  H2  UNL     1      33.029  68.154   0.005  1.00  0.00     0.164 HD
HETATM    4  C2  UNL     1      32.235  66.401   0.304  1.00  0.00     0.135 C
HETATM    5  C3  UNL     1      32.379  65.042   0.861  1.00  0.00     0.135 C
HETATM    6  C4  UNL     1      33.038  64.165  -0.182  1.00  0.00     0.055 C
HETATM    7  C5  UNL     1      32.400  62.819  -0.102  1.00  0.00     0.106 C
HETATM    8  C6  UNL     1      31.201  63.039   0.730  1.00  0.00     0.218 C
HETATM    9  O3  UNL     1      30.403  62.102   1.040  1.00  0.00    -0.274 OA
HETATM   10  N5  UNL     1      31.111  64.404   1.099  1.00  0.00    -0.339 N
ATOM     11  H5  UNL     1      30.280  64.862   1.473  1.00  0.00     0.164 HD
HETATM   12  C7  UNL     1      33.200  65.140   2.095  1.00  0.00     0.045 C
HETATM   13  C8  UNL     1      32.898  64.498   3.184  1.00  0.00     0.060 C
HETATM   14  N6  UNL     1      34.343  65.978   2.036  1.00  0.00    -0.348 N
ATOM     15  H6  UNL     1      35.098  65.840   2.708  1.00  0.00     0.163 HD
ENDROOT
BRANCH   4  16
HETATM   16  N3  UNL     1      31.021  66.732  -0.338  1.00  0.00    -0.227 N
ATOM     17  H3  UNL     1      30.765  66.268  -1.210  1.00  0.00     0.194 HD
BRANCH  16  18
HETATM   18  N4  UNL     1      30.177  67.679   0.208  1.00  0.00    -0.037 N
HETATM   19  O1  UNL     1      30.561  68.869   0.208  1.00  0.00    -0.516 OA
HETATM   20  O2  UNL     1      28.945  67.400   0.752  1.00  0.00    -0.516 OA
ENDBRANCH  16  18
ENDBRANCH   4  16
BRANCH  13  21
HETATM   21  C9  UNL     1      33.656  64.540   4.448  1.00  0.00     0.280 C
BRANCH  21  22
HETATM   22  O4  UNL     1      33.646  65.828   4.981  1.00  0.00    -0.368 OA
ATOM     23  H4  UNL     1      34.531  66.164   5.057  1.00  0.00     0.213 HD
ENDBRANCH  21  22
BRANCH  21  24
HETATM   24  O5  UNL     1      35.005  64.213   4.279  1.00  0.00    -0.368 OA
ATOM     25  H5  UNL     1      35.541  64.481   5.016  1.00  0.00     0.213 HD
ENDBRANCH  21  24
ENDBRANCH  13  21
BRANCH   1  26
HETATM   26  N1  UNL     1      35.540  66.738   0.137  1.00  0.00    -0.041 N
ATOM     27  H13 UNL     1      35.788  65.752   0.216  1.00  0.00     0.279 HD
ATOM     28  H12 UNL     1      35.214  66.766  -0.829  1.00  0.00     0.279 HD
ATOM     29  H11 UNL     1      36.374  67.316   0.240  1.00  0.00     0.279 HD
ENDBRANCH   1  26
TORSDOF 6
ENDMDL