MODEL 2
REMARK VINA RESULT: -5.298420864      1.286      4.051
REMARK  6 active torsions:
REMARK  status: ('A' for Active; 'I' for Inactive)
REMARK    1  A    between atoms: C2_2  and  C3_3
REMARK    2  A    between atoms: C5_7  and  O3_8
REMARK    3  A    between atoms: C6_11  and  O5_13
REMARK    4  A    between atoms: C8_15  and  O6_16
REMARK    5  A    between atoms: C8_15  and  C9_18
REMARK    6  A    between atoms: C10_20  and  O8_21
ROOT
HETATM    1  C3  UNL     1      34.029  59.410  11.167  1.00  0.00     0.291 C
HETATM    2  O1  UNL     1      33.699  59.592   9.803  1.00  0.00    -0.314 OA
HETATM    3  C4  UNL     1      34.924  59.001   9.510  1.00  0.00     0.262 C
HETATM    4  O2  UNL     1      35.360  59.354  10.759  1.00  0.00    -0.314 OA
HETATM    5  C5  UNL     1      34.865  57.530   9.196  1.00  0.00     0.327 C
HETATM    6  O4  UNL     1      35.603  57.330   8.031  1.00  0.00    -0.317 OA
HETATM    7  C6  UNL     1      35.387  58.500   7.283  1.00  0.00     0.203 C
HETATM    8  C7  UNL     1      36.299  58.588   6.106  1.00  0.00     0.082 C
HETATM    9  C8  UNL     1      35.662  59.561   8.334  1.00  0.00     0.225 C
ENDROOT
BRANCH   9  10
HETATM   10  O6  UNL     1      37.020  59.649   8.516  1.00  0.00    -0.375 OA
ATOM     11  H6  UNL     1      37.507  58.915   8.161  1.00  0.00     0.211 HD
ENDBRANCH   9  10
BRANCH   9  12
HETATM   12  C9  UNL     1      35.046  60.885   7.969  1.00  0.00     0.316 C
HETATM   13  O7  UNL     1      35.563  61.885   8.793  1.00  0.00    -0.305 OA
HETATM   14  C10 UNL     1      35.590  62.706   7.665  1.00  0.00     0.415 C
HETATM   15  O9  UNL     1      35.657  61.543   6.898  1.00  0.00    -0.305 OA
BRANCH  14  16
HETATM   16  O8  UNL     1      36.700  63.533   7.578  1.00  0.00    -0.349 OA
ATOM     17  H8  UNL     1      36.734  64.222   8.230  1.00  0.00     0.215 HD
ENDBRANCH  14  16
ENDBRANCH   9  12
BRANCH   7  18
HETATM   18  O5  UNL     1      34.036  58.486   6.924  1.00  0.00    -0.363 OA
ATOM     19  H5  UNL     1      33.934  59.158   6.260  1.00  0.00     0.213 HD
ENDBRANCH   7  18
BRANCH   5  20
HETATM   20  O3  UNL     1      35.413  56.852  10.281  1.00  0.00    -0.366 OA
ATOM     21  H3  UNL     1      35.309  55.922  10.116  1.00  0.00     0.212 HD
ENDBRANCH   5  20
BRANCH   1  22
HETATM   22  C2  UNL     1      33.674  60.552  12.013  1.00  0.00     0.023 C
HETATM   23  C1  UNL     1      33.106  61.612  11.469  1.00  0.00     0.012 C
ENDBRANCH   1  22
TORSDOF 6
ENDMDL