MODEL 4
REMARK VINA RESULT: -6.526758198      2.379      3.757
REMARK  8 active torsions:
REMARK  status: ('A' for Active; 'I' for Inactive)
REMARK    1  A    between atoms: N1_1  and  N2_4
REMARK    2  A    between atoms: N2_4  and  C1_6
REMARK    3  A    between atoms: N4_9  and  N5_10
REMARK    4  A    between atoms: C3_14  and  N6_15
REMARK    5  A    between atoms: N6_15  and  N7_16
REMARK    6  A    between atoms: N6_15  and  O1_19
REMARK    7  A    between atoms: C4_21  and  S1_22
REMARK    8  A    between atoms: S1_22  and  N8_23
ROOT
HETATM    1  C1  UNL     1      32.897  62.151  11.621  1.00  0.00     0.155 A
HETATM    2  N3  UNL     1      32.916  63.440  11.300  1.00  0.00    -0.262 N
ATOM      3  H3  UNL     1      32.421  64.170  11.813  1.00  0.00     0.191 HD
HETATM    4  N4  UNL     1      33.659  63.650  10.230  1.00  0.00    -0.198 N
HETATM    5  C2  UNL     1      34.178  62.458   9.789  1.00  0.00     0.128 A
HETATM    6  C3  UNL     1      34.981  62.005   8.787  1.00  0.00     0.142 A
HETATM    7  C4  UNL     1      35.236  60.657   8.746  1.00  0.00     0.154 A
HETATM    8  S2  UNL     1      34.362  60.064  10.082  1.00  0.00    -0.068 SA
HETATM    9  C5  UNL     1      33.700  61.516  10.661  1.00  0.00     0.086 A
ENDROOT
BRANCH   6  10
HETATM   10  N6  UNL     1      35.572  62.880   7.766  1.00  0.00    -0.166 N
BRANCH  10  11
HETATM   11  N7  UNL     1      34.854  63.291   6.660  1.00  0.00    -0.319 N
ATOM     12  H72 UNL     1      33.867  63.038   6.603  1.00  0.00     0.179 HD
ATOM     13  H71 UNL     1      35.286  63.834   5.913  1.00  0.00     0.179 HD
ENDBRANCH  10  11
BRANCH  10  14
HETATM   14  O1  UNL     1      36.755  63.274   7.885  1.00  0.00    -0.268 OA
ATOM     15  H1  UNL     1      36.937  64.187   8.071  1.00  0.00     0.247 HD
ENDBRANCH  10  14
ENDBRANCH   6  10
BRANCH   7  16
HETATM   16  S1  UNL     1      36.233  59.784   7.571  1.00  0.00     0.265 S
HETATM   17  O2  UNL     1      37.634  60.297   7.524  1.00  0.00    -0.200 OA
HETATM   18  O3  UNL     1      36.313  58.346   8.070  1.00  0.00    -0.200 OA
BRANCH  16  19
HETATM   19  N8  UNL     1      35.493  59.873   6.038  1.00  0.00    -0.324 N
ATOM     20  H82 UNL     1      35.523  60.689   5.426  1.00  0.00     0.169 HD
ATOM     21  H81 UNL     1      35.023  58.988   5.844  1.00  0.00     0.169 HD
ENDBRANCH  16  19
ENDBRANCH   7  16
BRANCH   4  22
HETATM   22  N5  UNL     1      33.849  64.911   9.681  1.00  0.00    -0.324 N
ATOM     23  H52 UNL     1      33.910  65.801  10.174  1.00  0.00     0.179 HD
ATOM     24  H51 UNL     1      33.950  65.069   8.678  1.00  0.00     0.179 HD
ENDBRANCH   4  22
BRANCH   1  25
HETATM   25  N2  UNL     1      32.317  61.515  12.565  1.00  0.00    -0.290 N
ATOM     26  H2  UNL     1      31.298  61.493  12.579  1.00  0.00     0.188 HD
BRANCH  25  27
HETATM   27  N1  UNL     1      33.004  60.853  13.569  1.00  0.00    -0.344 N
ATOM     28  H12 UNL     1      33.118  61.341  14.458  1.00  0.00     0.176 HD
ATOM     29  H11 UNL     1      33.394  59.917  13.457  1.00  0.00     0.176 HD
ENDBRANCH  25  27
ENDBRANCH   1  25
TORSDOF 8
ENDMDL