MODEL 4
REMARK VINA RESULT: -8.087483752      1.885      3.831
REMARK  5 active torsions:
REMARK  status: ('A' for Active; 'I' for Inactive)
REMARK    1  A    between atoms: N1_1  and  C1_4
REMARK    2  A    between atoms: C2_7  and  N3_8
REMARK    3  A    between atoms: C5_15  and  C6_16
REMARK       I    between atoms: C6_16  and  N6_18
REMARK    4  A    between atoms: N6_18  and  N7_20
REMARK    5  A    between atoms: N7_20  and  C7_22
ROOT
HETATM    1  C1  UNL     1      32.825  61.476  12.058  1.00  0.00     0.144 A
HETATM    2  N2  UNL     1      33.335  62.087  11.002  1.00  0.00    -0.320 N
ATOM      3  H2  UNL     1      33.213  63.092  10.879  1.00  0.00     0.169 HD
HETATM    4  C2  UNL     1      34.003  61.383  10.111  1.00  0.00     0.152 A
HETATM    5  C5  UNL     1      34.142  60.047  10.312  1.00  0.00     0.123 A
HETATM    6  S1  UNL     1      33.277  59.860  11.825  1.00  0.00    -0.045 SA
ENDROOT
BRANCH   5   7
HETATM    7  C6  UNL     1      34.788  58.966   9.578  1.00  0.00     0.281 C
HETATM    8  O1  UNL     1      34.140  58.554   8.539  1.00  0.00    -0.265 OA
HETATM    9  N6  UNL     1      35.979  58.323   9.828  1.00  0.00    -0.251 N
ATOM     10  H6  UNL     1      36.544  58.596  10.631  1.00  0.00     0.191 HD
BRANCH   9  11
HETATM   11  N7  UNL     1      36.428  57.276   8.968  1.00  0.00    -0.127 N
ATOM     12  H7  UNL     1      37.293  57.382   8.436  1.00  0.00     0.206 HD
BRANCH  11  13
HETATM   13  C7  UNL     1      35.731  56.197   8.869  1.00  0.00     0.725 A
HETATM   14  N8  UNL     1      35.415  55.315   9.828  1.00  0.00    -0.112 N
HETATM   15  N9  UNL     1      34.680  54.340   9.313  1.00  0.00     0.009 NA
ATOM     16  H8  UNL     1      35.697  55.384  10.806  1.00  0.00     0.203 HD
HETATM   17  N10 UNL     1      34.534  54.618   8.010  1.00  0.00    -0.211 N
HETATM   18  N11 UNL     1      35.166  55.736   7.744  1.00  0.00    -0.117 N
ATOM     19  H10 UNL     1      34.017  54.053   7.336  1.00  0.00     0.206 HD
ATOM     20  H11 UNL     1      35.219  56.183   6.828  1.00  0.00     0.207 HD
ENDBRANCH  11  13
ENDBRANCH   9  11
ENDBRANCH   5   7
BRANCH   4  21
HETATM   21  N3  UNL     1      34.568  62.065   8.937  1.00  0.00    -0.234 N
HETATM   22  C3  UNL     1      34.539  63.386   8.702  1.00  0.00     0.138 A
HETATM   23  C4  UNL     1      35.207  63.627   7.516  1.00  0.00     0.128 A
HETATM   24  N4  UNL     1      35.617  62.412   7.085  1.00  0.00    -0.296 N
HETATM   25  N5  UNL     1      35.225  61.492   7.949  1.00  0.00    -0.235 N
ATOM     26  H4  UNL     1      36.145  62.236   6.230  1.00  0.00     0.187 HD
ATOM     27  H5  UNL     1      35.404  60.491   7.863  1.00  0.00     0.209 HD
ENDBRANCH   4  21
BRANCH   1  28
HETATM   28  N1  UNL     1      32.135  62.021  13.040  1.00  0.00    -0.380 N
ATOM     29  H12 UNL     1      31.949  63.005  13.234  1.00  0.00     0.158 HD
ATOM     30  H11 UNL     1      31.653  61.538  13.798  1.00  0.00     0.158 HD
ENDBRANCH   1  28
TORSDOF 5
ENDMDL