MODEL 1
REMARK VINA RESULT: -6.699069453      0.000      0.000
REMARK  3 active torsions:
REMARK  status: ('A' for Active; 'I' for Inactive)
REMARK    1  A    between atoms: C5_11  and  C6_12
REMARK       I    between atoms: N5_14  and  C7_16
REMARK       I    between atoms: C7_16  and  N7_20
REMARK    2  A    between atoms: N7_20  and  N8_22
REMARK    3  A    between atoms: N10_26  and  O3_27
ROOT
HETATM    1  C1  UNL     1      34.550  59.977  12.912  1.00  0.00     0.059 C
HETATM    2  C2  UNL     1      33.399  59.583  12.030  1.00  0.00     0.224 C
HETATM    3  N1  UNL     1      32.202  60.261  12.498  1.00  0.00    -0.392 N
ATOM      4  H1  UNL     1      31.395  59.748  12.854  1.00  0.00     0.155 HD
HETATM    5  C3  UNL     1      32.222  61.670  12.432  1.00  0.00     0.196 C
HETATM    6  C4  UNL     1      32.985  62.175  11.273  1.00  0.00     0.139 A
HETATM    7  N2  UNL     1      33.194  63.435  10.803  1.00  0.00    -0.284 N
ATOM      8  H2  UNL     1      32.810  64.284  11.218  1.00  0.00     0.188 HD
HETATM    9  N3  UNL     1      33.957  63.399   9.747  1.00  0.00    -0.280 N
ATOM     10  H3  UNL     1      34.261  64.212   9.211  1.00  0.00     0.189 HD
HETATM   11  C5  UNL     1      34.289  62.089   9.466  1.00  0.00     0.187 A
HETATM   12  N9  UNL     1      33.681  61.381  10.410  1.00  0.00    -0.196 N
HETATM   13  N10 UNL     1      33.634  59.977  10.628  1.00  0.00    -0.168 N
ENDROOT
BRANCH  11  14
HETATM   14  C6  UNL     1      35.133  61.679   8.359  1.00  0.00     0.179 C
HETATM   15  N4  UNL     1      34.980  61.941   6.992  1.00  0.00    -0.078 NA
HETATM   16  N5  UNL     1      36.198  60.928   8.627  1.00  0.00    -0.174 N
HETATM   17  C7  UNL     1      37.090  60.468   7.652  1.00  0.00     0.696 C
ATOM     18  H5  UNL     1      36.375  60.674   9.599  1.00  0.00     0.185 HD
HETATM   19  N6  UNL     1      38.330  60.833   7.636  1.00  0.00    -0.233 N
HETATM   20  N7  UNL     1      36.630  59.573   6.646  1.00  0.00    -0.072 N
ATOM     21  H62 UNL     1      38.659  61.475   8.357  1.00  0.00     0.174 HD
ATOM     22  H61 UNL     1      38.979  60.497   6.925  1.00  0.00     0.174 HD
ATOM     23  H7  UNL     1      36.976  59.675   5.692  1.00  0.00     0.212 HD
BRANCH  20  24
HETATM   24  N8  UNL     1      35.712  58.554   6.938  1.00  0.00    -0.024 N
HETATM   25  O1  UNL     1      34.858  58.232   6.109  1.00  0.00    -0.516 OA
HETATM   26  O2  UNL     1      35.744  57.904   8.131  1.00  0.00    -0.516 OA
ENDBRANCH  20  24
ENDBRANCH  11  14
BRANCH  13  27
HETATM   27  O3  UNL     1      33.768  59.126   9.618  1.00  0.00    -0.270 OA
ATOM     28  H3  UNL     1      34.540  59.056   9.070  1.00  0.00     0.246 HD
ENDBRANCH  13  27
TORSDOF 3
ENDMDL