MODEL 2
REMARK VINA RESULT: -8.542935444      0.118      1.284
REMARK  6 active torsions:
REMARK  status: ('A' for Active; 'I' for Inactive)
REMARK    1  A    between atoms: N2_5  and  C3_6
REMARK    2  A    between atoms: C3_6  and  C4_7
REMARK    3  A    between atoms: C4_7  and  C5_8
REMARK    4  A    between atoms: C6_11  and  C7_12
REMARK       I    between atoms: C7_12  and  N4_14
REMARK    5  A    between atoms: N4_14  and  N5_16
REMARK    6  A    between atoms: C8_23  and  N8_24
ROOT
HETATM    1  C5  UNL     1      34.716  61.573   9.158  1.00  0.00     0.080 A
HETATM    2  N3  UNL     1      33.996  61.163  10.260  1.00  0.00    -0.334 N
ATOM      3  H3  UNL     1      34.025  60.176  10.516  1.00  0.00     0.168 HD
HETATM    4  C6  UNL     1      33.263  61.988  11.008  1.00  0.00     0.191 A
HETATM    5  N6  UNL     1      33.198  63.301  10.702  1.00  0.00    -0.279 N
ATOM      6  H6  UNL     1      32.637  63.933  11.274  1.00  0.00     0.189 HD
HETATM    7  N7  UNL     1      33.852  63.758   9.677  1.00  0.00    -0.282 N
ATOM      8  H7  UNL     1      33.804  64.750   9.448  1.00  0.00     0.188 HD
HETATM    9  C8  UNL     1      34.597  62.924   8.913  1.00  0.00     0.141 A
ENDROOT
BRANCH   1  10
HETATM   10  C4  UNL     1      35.479  60.624   8.405  1.00  0.00     0.054 C
BRANCH  10  11
HETATM   11  C3  UNL     1      36.040  59.526   8.774  1.00  0.00     0.139 C
BRANCH  11  12
HETATM   12  N2  UNL     1      35.524  58.233   8.381  1.00  0.00    -0.208 N
HETATM   13  N1  UNL     1      35.632  57.146   9.093  1.00  0.00    -0.283 N
HETATM   14  C2  UNL     1      35.052  56.129   8.453  1.00  0.00     0.047 A
ATOM     15  H1  UNL     1      36.090  57.084  10.002  1.00  0.00     0.189 HD
HETATM   16  C1  UNL     1      34.969  54.712   8.951  1.00  0.00     0.072 C
HETATM   17  C9  UNL     1      34.560  56.632   7.274  1.00  0.00     0.047 A
HETATM   18  N9  UNL     1      34.873  57.939   7.270  1.00  0.00    -0.283 N
HETATM   19  C10 UNL     1      33.830  55.847   6.239  1.00  0.00     0.072 C
ATOM     20  H9  UNL     1      34.645  58.600   6.527  1.00  0.00     0.189 HD
ENDBRANCH  11  12
ENDBRANCH  10  11
ENDBRANCH   1  10
BRANCH   9  21
HETATM   21  N8  UNL     1      35.202  63.466   7.929  1.00  0.00    -0.383 N
ATOM     22  H82 UNL     1      34.609  63.953   7.257  1.00  0.00     0.157 HD
ATOM     23  H81 UNL     1      36.217  63.403   7.840  1.00  0.00     0.157 HD
ENDBRANCH   9  21
BRANCH   4  24
HETATM   24  C7  UNL     1      32.517  61.509  12.165  1.00  0.00     0.304 C
HETATM   25  O1  UNL     1      31.272  61.634  12.184  1.00  0.00    -0.263 OA
HETATM   26  N4  UNL     1      33.232  60.917  13.232  1.00  0.00    -0.270 N
ATOM     27  H4  UNL     1      34.247  60.824  13.202  1.00  0.00     0.189 HD
BRANCH  26  28
HETATM   28  N5  UNL     1      32.484  60.460  14.346  1.00  0.00    -0.342 N
ATOM     29  H52 UNL     1      31.688  60.998  14.689  1.00  0.00     0.176 HD
ATOM     30  H51 UNL     1      32.775  59.583  14.780  1.00  0.00     0.176 HD
ENDBRANCH  26  28
ENDBRANCH   4  24
TORSDOF 6
ENDMDL