MODEL 5
REMARK VINA RESULT: -4.295940970      1.468      2.128
REMARK  7 active torsions:
REMARK  status: ('A' for Active; 'I' for Inactive)
REMARK    1  A    between atoms: C2_2  and  C3_4
REMARK    2  A    between atoms: C3_4  and  O2_5
REMARK    3  A    between atoms: C4_7  and  C6_9
REMARK    4  A    between atoms: C8_12  and  O4_14
REMARK    5  A    between atoms: C10_16  and  O5_17
REMARK    6  A    between atoms: C12_21  and  O6_22
REMARK    7  A    between atoms: C12_21  and  O7_24
ROOT
HETATM    1  C3  UNL     1      32.286  63.328   1.889  1.00  0.00     0.191 C
HETATM    2  C4  UNL     1      33.716  62.910   1.682  1.00  0.00     0.056 C
HETATM    3  C5  UNL     1      33.826  61.476   1.213  1.00  0.00     0.027 C
HETATM    4  C7  UNL     1      34.427  63.790   0.683  1.00  0.00     0.062 C
HETATM    5  C8  UNL     1      34.331  65.245   0.997  1.00  0.00     0.105 C
HETATM    6  C9  UNL     1      34.462  65.993  -0.339  1.00  0.00     0.050 C
HETATM    7  C10 UNL     1      33.117  65.715   1.671  1.00  0.00     0.237 C
HETATM    8  C11 UNL     1      32.271  66.536   0.757  1.00  0.00     0.107 C
HETATM    9  N1  UNL     1      31.612  67.202   0.043  1.00  0.00    -0.194 NA
HETATM   10  C12 UNL     1      32.261  64.736   2.376  1.00  0.00     0.249 C
ENDROOT
BRANCH   7  11
HETATM   11  O5  UNL     1      33.525  66.669   2.650  1.00  0.00    -0.368 OA
ATOM     12  H5  UNL     1      32.917  67.398   2.599  1.00  0.00     0.212 HD
ENDBRANCH   7  11
BRANCH   5  13
HETATM   13  O4  UNL     1      35.472  65.602   1.720  1.00  0.00    -0.386 OA
ATOM     14  H4  UNL     1      36.055  66.068   1.132  1.00  0.00     0.210 HD
ENDBRANCH   5  13
BRANCH  10  15
HETATM   15  O6  UNL     1      32.518  64.815   3.764  1.00  0.00    -0.360 OA
ATOM     16  H6  UNL     1      31.826  65.276   4.224  1.00  0.00     0.213 HD
ENDBRANCH  10  15
BRANCH  10  17
HETATM   17  O7  UNL     1      30.909  65.159   2.275  1.00  0.00    -0.360 OA
ATOM     18  H7  UNL     1      30.846  65.632   1.453  1.00  0.00     0.213 HD
ENDBRANCH  10  17
BRANCH   1  19
HETATM   19  C2  UNL     1      31.452  63.168   0.699  1.00  0.00     0.164 C
HETATM   20  C1  UNL     1      30.347  62.139   0.681  1.00  0.00     0.094 C
HETATM   21  O1  UNL     1      31.545  63.801  -0.338  1.00  0.00    -0.295 OA
ENDBRANCH   1  19
BRANCH   1  22
HETATM   22  O2  UNL     1      31.769  62.515   2.904  1.00  0.00    -0.376 OA
ATOM     23  H2  UNL     1      32.209  61.673   2.869  1.00  0.00     0.211 HD
ENDBRANCH   1  22
BRANCH   2  24
HETATM   24  C6  UNL     1      34.443  62.995   2.974  1.00  0.00     0.244 C
HETATM   25  O3  UNL     1      34.283  62.049   3.746  1.00  0.00    -0.306 OA
ENDBRANCH   2  24
TORSDOF 7
ENDMDL