MODEL 3
REMARK VINA RESULT: -7.464027926      1.923      6.515
REMARK  5 active torsions:
REMARK  status: ('A' for Active; 'I' for Inactive)
REMARK    1  A    between atoms: C2_2  and  C4_4
REMARK       I    between atoms: C4_4  and  N1_6
REMARK    2  A    between atoms: N1_6  and  O2_8
REMARK    3  A    between atoms: O2_8  and  C5_9
REMARK    4  A    between atoms: C5_9  and  O3_10
REMARK    5  A    between atoms: C7_14  and  N3_15
ROOT
HETATM    1  C5  UNL     1      35.649  58.855   9.288  1.00  0.00     0.302 C
HETATM    2  C6  UNL     1      34.453  59.146  10.168  1.00  0.00     0.262 C
HETATM    3  N2  UNL     1      34.304  60.600   9.992  1.00  0.00    -0.096 N
HETATM    4  C7  UNL     1      33.692  61.504  10.772  1.00  0.00     0.697 A
HETATM    5  N4  UNL     1      33.672  62.820  10.421  1.00  0.00    -0.150 N
ATOM      6  H4  UNL     1      33.205  63.501  11.019  1.00  0.00     0.188 HD
HETATM    7  C8  UNL     1      34.264  63.218   9.293  1.00  0.00     0.331 A
HETATM    8  O4  UNL     1      34.270  64.427   8.929  1.00  0.00    -0.261 OA
HETATM    9  C9  UNL     1      34.885  62.307   8.499  1.00  0.00     0.347 A
HETATM   10  O5  UNL     1      35.459  62.660   7.418  1.00  0.00    -0.259 OA
HETATM   11  N5  UNL     1      34.884  61.000   8.884  1.00  0.00    -0.135 N
HETATM   12  N6  UNL     1      35.441  59.874   8.262  1.00  0.00    -0.042 NA
ENDROOT
BRANCH   1  13
HETATM   13  O2  UNL     1      35.650  57.598   8.746  1.00  0.00    -0.216 OA
BRANCH  13  14
HETATM   14  N1  UNL     1      34.857  57.552   7.624  1.00  0.00    -0.226 N
HETATM   15  C4  UNL     1      34.567  56.302   7.013  1.00  0.00     0.270 C
HETATM   16  O1  UNL     1      35.045  55.253   7.514  1.00  0.00    -0.266 OA
ATOM     17  H1  UNL     1      34.477  58.413   7.230  1.00  0.00     0.198 HD
BRANCH  15  18
HETATM   18  C2  UNL     1      33.745  56.200   5.841  1.00  0.00    -0.002 C
HETATM   19  C1  UNL     1      34.243  55.807   4.690  1.00  0.00     0.024 C
HETATM   20  C3  UNL     1      32.286  56.557   5.957  1.00  0.00     0.053 C
ENDBRANCH  15  18
ENDBRANCH  13  14
ENDBRANCH   1  13
BRANCH   1  21
HETATM   21  O3  UNL     1      36.840  59.192   9.939  1.00  0.00    -0.348 OA
ATOM     22  H3  UNL     1      37.556  59.397   9.349  1.00  0.00     0.214 HD
ENDBRANCH   1  21
BRANCH   4  23
HETATM   23  N3  UNL     1      33.097  61.207  11.879  1.00  0.00    -0.233 N
ATOM     24  H32 UNL     1      33.526  60.463  12.431  1.00  0.00     0.174 HD
ATOM     25  H31 UNL     1      32.248  61.669  12.207  1.00  0.00     0.174 HD
ENDBRANCH   4  23
TORSDOF 5
ENDMDL