MODEL 2
REMARK VINA RESULT: -6.154407726      4.983      7.274
REMARK  8 active torsions:
REMARK  status: ('A' for Active; 'I' for Inactive)
REMARK    1  A    between atoms: O1_2  and  C2_3
REMARK    2  A    between atoms: C2_3  and  C3_4
REMARK    3  A    between atoms: C3_4  and  O2_5
REMARK    4  A    between atoms: N1_9  and  O3_11
REMARK    5  A    between atoms: O3_11  and  C6_12
REMARK    6  A    between atoms: N3_17  and  N4_18
REMARK    7  A    between atoms: C9_21  and  O4_23
REMARK    8  A    between atoms: C11_25  and  N5_26
ROOT
HETATM    1  C2  UNL     1      33.097  62.609   2.122  1.00  0.00     0.117 C
HETATM    2  C4  UNL     1      33.755  62.374   3.442  1.00  0.00     0.100 C
HETATM    3  C5  UNL     1      33.932  63.715   4.093  1.00  0.00     0.049 C
HETATM    4  N1  UNL     1      34.559  63.949   5.174  1.00  0.00    -0.263 N
ATOM      5  H1  UNL     1      34.615  64.905   5.525  1.00  0.00     0.194 HD
HETATM    6  C9  UNL     1      33.246  64.735   3.261  1.00  0.00     0.125 C
HETATM    7  C10 UNL     1      34.017  66.027   3.246  1.00  0.00     0.055 C
HETATM    8  C11 UNL     1      33.406  64.097   1.879  1.00  0.00     0.259 C
ENDROOT
BRANCH   4   9
HETATM    9  O3  UNL     1      35.165  62.933   5.877  1.00  0.00    -0.200 OA
BRANCH   9  10
HETATM   10  C6  UNL     1      34.965  62.802   7.263  1.00  0.00     0.259 C
HETATM   11  N2  UNL     1      34.590  63.752   8.016  1.00  0.00    -0.352 N
HETATM   12  C7  UNL     1      34.468  63.330   9.392  1.00  0.00     0.145 C
ATOM     13  H2  UNL     1      34.398  64.699   7.689  1.00  0.00     0.163 HD
HETATM   14  C8  UNL     1      34.489  61.817   9.285  1.00  0.00     0.172 C
HETATM   15  N3  UNL     1      35.147  61.622   8.009  1.00  0.00    -0.260 N
BRANCH  15  16
HETATM   16  N4  UNL     1      35.848  60.487   7.557  1.00  0.00    -0.340 N
ATOM     17  H42 UNL     1      35.740  59.518   7.859  1.00  0.00     0.177 HD
ATOM     18  H41 UNL     1      36.577  60.500   6.843  1.00  0.00     0.177 HD
ENDBRANCH  15  16
ENDBRANCH   9  10
ENDBRANCH   4   9
BRANCH   6  19
HETATM   19  O4  UNL     1      31.916  64.881   3.559  1.00  0.00    -0.382 OA
ATOM     20  H4  UNL     1      31.354  64.267   3.103  1.00  0.00     0.211 HD
ENDBRANCH   6  19
BRANCH   1  21
HETATM   21  O1  UNL     1      31.741  62.405   2.163  1.00  0.00    -0.380 OA
HETATM   22  C1  UNL     1      31.158  62.564   0.934  1.00  0.00     0.202 C
ENDBRANCH   1  21
BRANCH   1  23
HETATM   23  C3  UNL     1      33.773  61.883   0.987  1.00  0.00     0.204 C
BRANCH  23  24
HETATM   24  O2  UNL     1      35.041  61.489   1.413  1.00  0.00    -0.398 OA
ATOM     25  H2  UNL     1      35.687  62.009   0.949  1.00  0.00     0.209 HD
ENDBRANCH  23  24
ENDBRANCH   1  23
BRANCH   8  26
HETATM   26  N5  UNL     1      34.771  64.269   1.494  1.00  0.00    -0.069 N
ATOM     27  H53 UNL     1      35.022  63.665   0.711  1.00  0.00     0.275 HD
ATOM     28  H52 UNL     1      34.927  65.171   1.046  1.00  0.00     0.275 HD
ATOM     29  H51 UNL     1      35.388  64.131   2.294  1.00  0.00     0.275 HD
ENDBRANCH   8  26
TORSDOF 8
ENDMDL