MODEL 2
REMARK VINA RESULT: -5.676787278      1.756      2.723
REMARK  5 active torsions:
REMARK  status: ('A' for Active; 'I' for Inactive)
REMARK    1  A    between atoms: C2_3  and  N2_4
REMARK    2  A    between atoms: C2_3  and  C3_8
REMARK    3  A    between atoms: C3_8  and  O1_9
REMARK    4  A    between atoms: C7_22  and  S1_23
REMARK    5  A    between atoms: S1_23  and  N7_24
ROOT
HETATM    1  N1  UNL     1      33.683  57.311   7.391  1.00  0.00    -0.195 NA
HETATM    2  C1  UNL     1      34.557  58.035   7.154  1.00  0.00     0.098 C
HETATM    3  C2  UNL     1      35.667  58.983   6.795  1.00  0.00     0.349 C
ENDROOT
BRANCH   3   4
HETATM    4  N2  UNL     1      35.126  59.717   5.611  1.00  0.00    -0.057 N
ATOM      5  H23 UNL     1      35.270  59.245   4.718  1.00  0.00     0.276 HD
ATOM      6  H22 UNL     1      34.108  59.739   5.555  1.00  0.00     0.276 HD
ATOM      7  H21 UNL     1      35.566  60.635   5.681  1.00  0.00     0.276 HD
ENDBRANCH   3   4
BRANCH   3   8
HETATM    8  C3  UNL     1      36.113  59.862   7.897  1.00  0.00     0.209 C
HETATM    9  N3  UNL     1      37.033  58.907   8.671  1.00  0.00    -0.348 N
HETATM   10  C4  UNL     1      36.375  57.781   9.178  1.00  0.00     0.180 C
ATOM     11  H3  UNL     1      38.030  59.078   8.803  1.00  0.00     0.163 HD
HETATM   12  N4  UNL     1      35.317  58.208  10.043  1.00  0.00    -0.338 N
HETATM   13  C5  UNL     1      34.796  59.539   9.951  1.00  0.00     0.121 A
ATOM     14  H4  UNL     1      34.931  57.560  10.729  1.00  0.00     0.168 HD
HETATM   15  N5  UNL     1      33.938  59.953  10.909  1.00  0.00    -0.338 N
HETATM   16  C8  UNL     1      35.248  60.379   8.900  1.00  0.00     0.084 A
HETATM   17  C6  UNL     1      33.480  61.203  10.891  1.00  0.00     0.183 A
ATOM     18  H5  UNL     1      33.641  59.310  11.642  1.00  0.00     0.168 HD
HETATM   19  N6  UNL     1      33.880  61.997   9.941  1.00  0.00    -0.341 N
HETATM   20  C7  UNL     1      34.765  61.652   8.913  1.00  0.00     0.164 A
ATOM     21  H6  UNL     1      33.519  62.951   9.946  1.00  0.00     0.167 HD
BRANCH   8  22
HETATM   22  O1  UNL     1      37.203  60.661   7.471  1.00  0.00    -0.364 OA
ATOM     23  H1  UNL     1      37.661  61.017   8.224  1.00  0.00     0.213 HD
ENDBRANCH   8  22
BRANCH  20  24
HETATM   24  S1  UNL     1      35.172  62.902   7.853  1.00  0.00     0.273 S
HETATM   25  O2  UNL     1      34.680  64.279   8.396  1.00  0.00    -0.199 OA
HETATM   26  O3  UNL     1      35.057  62.861   6.422  1.00  0.00    -0.199 OA
BRANCH  24  27
HETATM   27  N7  UNL     1      36.920  63.172   8.042  1.00  0.00    -0.323 N
ATOM     28  H72 UNL     1      37.660  62.521   7.777  1.00  0.00     0.169 HD
ATOM     29  H71 UNL     1      37.025  64.095   8.463  1.00  0.00     0.169 HD
ENDBRANCH  24  27
ENDBRANCH  20  24
ENDBRANCH   3   8
TORSDOF 5
ENDMDL