MODEL 1
REMARK VINA RESULT: -7.871171385      0.000      0.000
REMARK  8 active torsions:
REMARK  status: ('A' for Active; 'I' for Inactive)
REMARK    1  A    between atoms: O1_2  and  C2_3
REMARK    2  A    between atoms: C2_3  and  C3_5
REMARK    3  A    between atoms: C4_6  and  O3_7
REMARK    4  A    between atoms: C5_9  and  C6_10
REMARK    5  A    between atoms: C6_10  and  O5_12
REMARK    6  A    between atoms: C8_14  and  N1_15
REMARK    7  A    between atoms: N1_15  and  N2_17
REMARK    8  A    between atoms: N3_20  and  N4_21
ROOT
HETATM    1  C3  UNL     1      33.923  60.989  10.232  1.00  0.00     0.116 A
HETATM    2  C4  UNL     1      33.610  62.312  10.188  1.00  0.00     0.105 A
HETATM    3  C5  UNL     1      34.102  63.091   9.108  1.00  0.00     0.120 A
HETATM    4  C8  UNL     1      34.878  62.558   8.114  1.00  0.00     0.161 A
HETATM    5  N3  UNL     1      35.166  61.247   8.193  1.00  0.00    -0.229 N
HETATM    6  C9  UNL     1      34.722  60.477   9.195  1.00  0.00     0.158 A
HETATM    7  N5  UNL     1      35.074  59.099   9.201  1.00  0.00    -0.079 NA
ENDROOT
BRANCH   4   8
HETATM    8  N1  UNL     1      35.318  63.269   7.142  1.00  0.00    -0.290 N
ATOM      9  H1  UNL     1      34.764  63.284   6.285  1.00  0.00     0.188 HD
BRANCH   8  10
HETATM   10  N2  UNL     1      36.473  64.012   7.155  1.00  0.00    -0.344 N
ATOM     11  H22 UNL     1      36.729  64.428   8.051  1.00  0.00     0.176 HD
ATOM     12  H21 UNL     1      37.083  64.175   6.354  1.00  0.00     0.176 HD
ENDBRANCH   8  10
ENDBRANCH   4   8
BRANCH   3  13
HETATM   13  C6  UNL     1      33.749  64.502   9.090  1.00  0.00     0.299 C
HETATM   14  O4  UNL     1      32.599  64.892   9.436  1.00  0.00    -0.259 OA
BRANCH  13  15
HETATM   15  O5  UNL     1      34.636  65.491   8.699  1.00  0.00    -0.322 OA
HETATM   16  C7  UNL     1      34.170  66.700   8.138  1.00  0.00     0.213 C
ENDBRANCH  13  15
ENDBRANCH   3  13
BRANCH   5  17
HETATM   17  N4  UNL     1      35.958  60.701   7.180  1.00  0.00    -0.335 N
ATOM     18  H42 UNL     1      35.644  60.727   6.210  1.00  0.00     0.177 HD
ATOM     19  H41 UNL     1      36.848  60.282   7.453  1.00  0.00     0.177 HD
ENDBRANCH   5  17
BRANCH   2  20
HETATM   20  O3  UNL     1      32.846  62.899  11.139  1.00  0.00    -0.358 OA
ATOM     21  H3  UNL     1      31.896  62.883  11.102  1.00  0.00     0.217 HD
ENDBRANCH   2  20
BRANCH   1  22
HETATM   22  C2  UNL     1      33.506  60.071  11.252  1.00  0.00     0.299 C
HETATM   23  O2  UNL     1      34.353  59.451  11.980  1.00  0.00    -0.259 OA
BRANCH  22  24
HETATM   24  O1  UNL     1      32.191  59.794  11.516  1.00  0.00    -0.322 OA
HETATM   25  C1  UNL     1      31.569  60.053  12.741  1.00  0.00     0.213 C
ENDBRANCH  22  24
ENDBRANCH   1  22
TORSDOF 8
ENDMDL