MODEL 3
REMARK VINA RESULT: -7.436893432      2.161      5.977
REMARK  3 active torsions:
REMARK  status: ('A' for Active; 'I' for Inactive)
REMARK    1  A    between atoms: N3_7  and  C3_8
REMARK    2  A    between atoms: C5_11  and  N5_12
REMARK    3  A    between atoms: C7_22  and  N9_23
ROOT
HETATM    1  C3  UNL     1      33.796  61.216  10.555  1.00  0.00     0.166 A
HETATM    2  C4  UNL     1      33.761  62.528  10.139  1.00  0.00     0.169 A
HETATM    3  N4  UNL     1      34.346  62.567   8.930  1.00  0.00    -0.115 N
HETATM    4  C5  UNL     1      34.696  63.396   7.910  1.00  0.00     0.286 A
HETATM    5  N6  UNL     1      35.293  62.674   6.960  1.00  0.00    -0.251 N
ATOM      6  H6  UNL     1      35.657  63.041   6.081  1.00  0.00     0.191 HD
HETATM    7  N7  UNL     1      35.338  61.406   7.338  1.00  0.00    -0.128 N
ATOM      8  H7  UNL     1      35.735  60.625   6.817  1.00  0.00     0.205 HD
HETATM    9  C6  UNL     1      34.750  61.357   8.556  1.00  0.00     0.708 A
HETATM   10  N8  UNL     1      34.404  60.534   9.567  1.00  0.00    -0.172 N
ATOM     11  H8  UNL     1      34.580  59.530   9.580  1.00  0.00     0.186 HD
ENDROOT
BRANCH   1  12
HETATM   12  N3  UNL     1      33.292  60.667  11.787  1.00  0.00    -0.076 N
HETATM   13  C2  UNL     1      33.884  59.784  12.610  1.00  0.00     0.362 A
HETATM   14  N2  UNL     1      33.068  59.538  13.652  1.00  0.00    -0.234 N
HETATM   15  O1  UNL     1      35.011  59.270  12.439  1.00  0.00    -0.244 OA
HETATM   16  N1  UNL     1      31.968  60.243  13.517  1.00  0.00    -0.124 N
ATOM     17  H2  UNL     1      33.272  58.905  14.426  1.00  0.00     0.192 HD
HETATM   18  C1  UNL     1      30.799  60.298  14.405  1.00  0.00     0.197 C
HETATM   19  C7  UNL     1      32.096  60.940  12.374  1.00  0.00     0.704 A
BRANCH  19  20
HETATM   20  N9  UNL     1      31.238  61.769  11.855  1.00  0.00    -0.232 N
ATOM     21  H92 UNL     1      30.318  61.471  11.528  1.00  0.00     0.174 HD
ATOM     22  H91 UNL     1      31.355  62.772  11.709  1.00  0.00     0.174 HD
ENDBRANCH  19  20
ENDBRANCH   1  12
BRANCH   4  23
HETATM   23  N5  UNL     1      34.465  64.785   7.863  1.00  0.00    -0.077 N
HETATM   24  O2  UNL     1      34.922  65.528   8.752  1.00  0.00    -0.529 OA
HETATM   25  O3  UNL     1      33.734  65.338   6.838  1.00  0.00    -0.529 OA
ENDBRANCH   4  23
TORSDOF 3
ENDMDL