MODEL 4
REMARK VINA RESULT: -6.990664664      2.612      3.579
REMARK  6 active torsions:
REMARK  status: ('A' for Active; 'I' for Inactive)
REMARK    1  A    between atoms: C1_2  and  O2_4
REMARK    2  A    between atoms: O2_4  and  N2_5
REMARK    3  A    between atoms: C2_7  and  O3_8
REMARK    4  A    between atoms: C2_7  and  C3_10
REMARK    5  A    between atoms: C4_11  and  S1_12
REMARK    6  A    between atoms: S1_12  and  N3_13
ROOT
HETATM    1  C3  UNL     1      34.517  61.278   9.116  1.00  0.00     0.090 A
HETATM    2  C4  UNL     1      35.370  61.929   8.280  1.00  0.00     0.172 A
HETATM    3  N4  UNL     1      36.166  61.149   7.524  1.00  0.00    -0.313 N
ATOM      4  H4  UNL     1      36.863  61.457   6.846  1.00  0.00     0.175 HD
HETATM    5  S2  UNL     1      35.780  59.582   7.920  1.00  0.00     0.003 SA
HETATM    6  C5  UNL     1      34.577  59.893   9.076  1.00  0.00     0.121 A
HETATM    7  N5  UNL     1      33.788  58.967   9.849  1.00  0.00    -0.092 NA
ENDROOT
BRANCH   1   8
HETATM    8  C2  UNL     1      33.604  61.947  10.092  1.00  0.00     0.176 C
HETATM    9  N2  UNL     1      33.232  61.440  11.198  1.00  0.00    -0.234 N
ATOM     10  H2  UNL     1      33.588  60.510  11.422  1.00  0.00     0.197 HD
BRANCH   9  11
HETATM   11  O2  UNL     1      32.413  62.011  12.103  1.00  0.00    -0.181 OA
BRANCH  11  12
HETATM   12  C1  UNL     1      31.465  61.275  12.816  1.00  0.00     0.394 C
HETATM   13  N1  UNL     1      31.655  59.877  12.924  1.00  0.00    -0.031 NA
HETATM   14  O1  UNL     1      30.499  61.899  13.319  1.00  0.00    -0.240 OA
ENDBRANCH  11  12
ENDBRANCH   9  11
BRANCH   8  15
HETATM   15  O3  UNL     1      33.101  63.212   9.821  1.00  0.00    -0.344 OA
ATOM     16  H3  UNL     1      32.320  63.451  10.308  1.00  0.00     0.219 HD
ENDBRANCH   8  15
ENDBRANCH   1   8
BRANCH   2  17
HETATM   17  S1  UNL     1      35.471  63.701   8.042  1.00  0.00     0.274 S
HETATM   18  O4  UNL     1      34.314  64.134   7.116  1.00  0.00    -0.199 OA
HETATM   19  O5  UNL     1      35.281  64.457   9.297  1.00  0.00    -0.199 OA
BRANCH  17  20
HETATM   20  N3  UNL     1      36.889  64.095   7.202  1.00  0.00    -0.323 N
ATOM     21  H32 UNL     1      37.127  65.036   6.891  1.00  0.00     0.169 HD
ATOM     22  H31 UNL     1      37.455  63.259   7.060  1.00  0.00     0.169 HD
ENDBRANCH  17  20
ENDBRANCH   2  17
TORSDOF 6
ENDMDL