MODEL 1
REMARK VINA RESULT: -8.617791497      0.000      0.000
REMARK  4 active torsions:
REMARK  status: ('A' for Active; 'I' for Inactive)
REMARK    1  A    between atoms: O1_2  and  C2_3
REMARK    2  A    between atoms: C2_3  and  C3_5
REMARK    3  A    between atoms: C4_8  and  C5_9
REMARK    4  A    between atoms: C7_15  and  N4_16
ROOT
HETATM    1  C3  UNL     1      33.822  59.673  11.071  1.00  0.00     0.198 A
HETATM    2  N1  UNL     1      33.931  60.913  10.590  1.00  0.00    -0.321 N
ATOM      3  H1  UNL     1      33.626  61.695  11.170  1.00  0.00     0.169 HD
HETATM    4  C4  UNL     1      34.427  61.165   9.374  1.00  0.00     0.151 A
HETATM    5  N6  UNL     1      34.826  60.087   8.624  1.00  0.00    -0.174 N
ATOM      6  H6  UNL     1      35.208  60.243   7.692  1.00  0.00     0.186 HD
HETATM    7  C9  UNL     1      34.724  58.835   9.087  1.00  0.00     0.679 A
HETATM    8  N7  UNL     1      35.106  57.808   8.368  1.00  0.00    -0.234 N
ATOM      9  H71 UNL     1      35.028  56.854   8.721  1.00  0.00     0.174 HD
ATOM     10  H72 UNL     1      35.489  57.959   7.435  1.00  0.00     0.174 HD
HETATM   11  N8  UNL     1      34.220  58.636  10.316  1.00  0.00    -0.171 N
ATOM     12  H8  UNL     1      34.138  57.687  10.680  1.00  0.00     0.186 HD
ENDROOT
BRANCH   4  13
HETATM   13  C5  UNL     1      34.584  62.477   8.770  1.00  0.00     0.112 A
HETATM   14  C6  UNL     1      35.382  62.555   7.624  1.00  0.00     0.141 A
HETATM   15  N2  UNL     1      35.535  63.757   7.055  1.00  0.00    -0.295 N
HETATM   16  N3  UNL     1      34.969  64.830   7.534  1.00  0.00    -0.133 N
ATOM     17  H2  UNL     1      36.114  63.836   6.219  1.00  0.00     0.186 HD
HETATM   18  C7  UNL     1      34.176  64.816   8.653  1.00  0.00     0.693 A
ATOM     19  H3  UNL     1      35.123  65.717   7.055  1.00  0.00     0.205 HD
HETATM   20  N5  UNL     1      34.015  63.601   9.239  1.00  0.00    -0.182 N
HETATM   21  C8  UNL     1      33.183  63.537  10.433  1.00  0.00     0.176 C
BRANCH  18  22
HETATM   22  N4  UNL     1      33.661  65.912   9.052  1.00  0.00    -0.233 N
ATOM     23  H42 UNL     1      34.070  66.551   9.736  1.00  0.00     0.174 HD
ATOM     24  H41 UNL     1      32.761  66.198   8.668  1.00  0.00     0.174 HD
ENDBRANCH  18  22
ENDBRANCH   4  13
BRANCH   1  25
HETATM   25  C2  UNL     1      33.285  59.380  12.392  1.00  0.00     0.327 C
HETATM   26  O2  UNL     1      33.326  58.219  12.862  1.00  0.00    -0.256 OA
BRANCH  25  27
HETATM   27  O1  UNL     1      32.725  60.417  13.122  1.00  0.00    -0.320 OA
HETATM   28  C1  UNL     1      31.313  60.665  13.102  1.00  0.00     0.213 C
ENDBRANCH  25  27
ENDBRANCH   1  25
TORSDOF 4
ENDMDL