MODEL 2
REMARK VINA RESULT: -8.139967869      1.955      4.432
REMARK  4 active torsions:
REMARK  status: ('A' for Active; 'I' for Inactive)
REMARK    1  A    between atoms: C2_3  and  C3_4
REMARK    2  A    between atoms: C4_5  and  O1_6
REMARK    3  A    between atoms: N3_12  and  C6_13
REMARK    4  A    between atoms: N4_14  and  O3_16
ROOT
HETATM    1  C3  UNL     1      33.859  60.883  10.083  1.00  0.00     0.122 A
HETATM    2  C4  UNL     1      34.453  59.976   9.259  1.00  0.00     0.174 A
HETATM    3  N2  UNL     1      35.024  60.682   8.231  1.00  0.00    -0.287 N
ATOM      4  H2  UNL     1      35.548  60.290   7.449  1.00  0.00     0.172 HD
HETATM    5  C5  UNL     1      34.774  61.954   8.438  1.00  0.00     0.334 A
HETATM    6  O2  UNL     1      35.147  62.920   7.687  1.00  0.00    -0.246 OA
HETATM    7  N3  UNL     1      34.057  62.151   9.567  1.00  0.00    -0.252 N
ENDROOT
BRANCH   1   8
HETATM    8  C2  UNL     1      33.229  60.674  11.373  1.00  0.00     0.075 A
HETATM    9  N1  UNL     1      33.693  59.946  12.370  1.00  0.00    -0.301 N
HETATM   10  C1  UNL     1      34.955  59.211  12.303  1.00  0.00     0.161 C
HETATM   11  C9  UNL     1      33.055  59.902  13.593  1.00  0.00     0.329 A
HETATM   12  N5  UNL     1      31.937  60.610  13.790  1.00  0.00    -0.275 N
HETATM   13  O5  UNL     1      33.547  59.190  14.493  1.00  0.00    -0.246 OA
HETATM   14  C8  UNL     1      31.435  61.363  12.804  1.00  0.00     0.251 A
ATOM     15  H5  UNL     1      31.467  60.576  14.695  1.00  0.00     0.173 HD
HETATM   16  C7  UNL     1      32.063  61.408  11.590  1.00  0.00     0.106 A
HETATM   17  O4  UNL     1      30.370  62.051  12.963  1.00  0.00    -0.268 OA
ENDBRANCH   1   8
BRANCH   2  18
HETATM   18  O1  UNL     1      34.537  58.586   9.319  1.00  0.00    -0.344 OA
ATOM     19  H1  UNL     1      34.992  57.957   8.772  1.00  0.00     0.219 HD
ENDBRANCH   2  18
BRANCH   7  20
HETATM   20  C6  UNL     1      33.652  63.406  10.082  1.00  0.00     0.217 C
HETATM   21  N4  UNL     1      33.763  64.452   9.358  1.00  0.00    -0.264 N
ATOM     22  H4  UNL     1      34.147  64.333   8.421  1.00  0.00     0.194 HD
BRANCH  21  23
HETATM   23  O3  UNL     1      33.413  65.708   9.733  1.00  0.00    -0.289 OA
ATOM     24  H3  UNL     1      33.474  66.482   9.186  1.00  0.00     0.244 HD
ENDBRANCH  21  23
ENDBRANCH   7  20
TORSDOF 4
ENDMDL