MODEL 3
REMARK VINA RESULT: -6.994074526      2.278      4.792
REMARK  8 active torsions:
REMARK  status: ('A' for Active; 'I' for Inactive)
REMARK    1  A    between atoms: S1_2  and  C2_3
REMARK    2  A    between atoms: C3_4  and  C4_5
REMARK    3  A    between atoms: C4_5  and  O1_6
REMARK    4  A    between atoms: C4_5  and  N1_8
REMARK    5  A    between atoms: N1_8  and  N2_10
REMARK    6  A    between atoms: N3_15  and  N4_16
REMARK    7  A    between atoms: C6_19  and  N5_20
REMARK    8  A    between atoms: N7_24  and  O3_25
ROOT
HETATM    1  N5  UNL     1      33.918  64.563   9.567  1.00  0.00    -0.122 N
ATOM      2  H5  UNL     1      33.796  64.899  10.522  1.00  0.00     0.197 HD
HETATM    3  C7  UNL     1      33.786  65.479   8.550  1.00  0.00     0.196 C
HETATM    4  N6  UNL     1      33.669  66.288   7.697  1.00  0.00    -0.171 NA
ENDROOT
BRANCH   1   5
HETATM    5  C6  UNL     1      34.175  63.347   9.410  1.00  0.00     0.742 A
HETATM    6  N3  UNL     1      35.089  63.006   8.480  1.00  0.00    -0.051 N
HETATM    7  C5  UNL     1      35.445  61.759   8.221  1.00  0.00     0.299 A
HETATM    8  C3  UNL     1      34.846  60.704   8.948  1.00  0.00     0.123 A
HETATM    9  O2  UNL     1      36.302  61.491   7.344  1.00  0.00    -0.264 OA
HETATM   10  C2  UNL     1      33.937  61.062   9.872  1.00  0.00     0.137 A
HETATM   11  N7  UNL     1      33.598  62.379  10.106  1.00  0.00    -0.042 N
BRANCH   6  12
HETATM   12  N4  UNL     1      35.709  64.043   7.733  1.00  0.00    -0.321 N
ATOM     13  H42 UNL     1      36.375  64.650   8.209  1.00  0.00     0.178 HD
ATOM     14  H41 UNL     1      35.461  64.134   6.748  1.00  0.00     0.178 HD
ENDBRANCH   6  12
BRANCH   8  15
HETATM   15  C4  UNL     1      35.227  59.371   8.591  1.00  0.00     0.173 C
BRANCH  15  16
HETATM   16  O1  UNL     1      36.074  58.732   9.354  1.00  0.00    -0.344 OA
ATOM     17  H1  UNL     1      36.989  58.987   9.339  1.00  0.00     0.219 HD
ENDBRANCH  15  16
BRANCH  15  18
HETATM   18  N1  UNL     1      34.776  58.666   7.476  1.00  0.00    -0.286 N
ATOM     19  H1  UNL     1      33.960  58.056   7.539  1.00  0.00     0.188 HD
BRANCH  18  20
HETATM   20  N2  UNL     1      35.485  58.819   6.238  1.00  0.00    -0.343 N
ATOM     21  H22 UNL     1      36.444  58.482   6.159  1.00  0.00     0.176 HD
ATOM     22  H21 UNL     1      35.007  59.266   5.456  1.00  0.00     0.176 HD
ENDBRANCH  18  20
ENDBRANCH  15  18
ENDBRANCH   8  15
BRANCH  10  23
HETATM   23  S1  UNL     1      33.151  59.854  10.911  1.00  0.00    -0.113 SA
HETATM   24  C1  UNL     1      34.228  59.594  12.357  1.00  0.00     0.097 C
ENDBRANCH  10  23
BRANCH  11  25
HETATM   25  O3  UNL     1      32.658  62.630  11.071  1.00  0.00    -0.268 OA
ATOM     26  H3  UNL     1      31.751  62.436  10.862  1.00  0.00     0.246 HD
ENDBRANCH  11  25
ENDBRANCH   1   5
TORSDOF 8
ENDMDL