MODEL 1
REMARK VINA RESULT: -8.339433846      0.000      0.000
REMARK  5 active torsions:
REMARK  status: ('A' for Active; 'I' for Inactive)
REMARK    1  A    between atoms: C2_5  and  C3_6
REMARK    2  A    between atoms: C4_7  and  C5_8
REMARK    3  A    between atoms: C5_8  and  N3_9
REMARK    4  A    between atoms: N3_9  and  N4_11
REMARK    5  A    between atoms: N7_22  and  N8_23
ROOT
HETATM    1  C3  UNL     1      34.262  61.147   9.483  1.00  0.00     0.068 A
HETATM    2  C4  UNL     1      34.362  62.460   9.083  1.00  0.00     0.067 A
HETATM    3  C6  UNL     1      34.984  62.711   7.879  1.00  0.00     0.272 A
HETATM    4  O1  UNL     1      35.077  63.911   7.513  1.00  0.00    -0.266 OA
HETATM    5  N5  UNL     1      35.476  61.694   7.122  1.00  0.00    -0.265 N
ATOM      6  H5  UNL     1      35.933  61.907   6.235  1.00  0.00     0.190 HD
HETATM    7  N6  UNL     1      35.376  60.435   7.512  1.00  0.00    -0.287 N
ATOM      8  H6  UNL     1      35.751  59.684   6.932  1.00  0.00     0.188 HD
HETATM    9  C7  UNL     1      34.775  60.155   8.680  1.00  0.00     0.130 A
HETATM   10  S1  UNL     1      34.673  58.575   9.127  1.00  0.00    -0.058 SA
ENDROOT
BRANCH   1  11
HETATM   11  C2  UNL     1      33.609  60.852  10.749  1.00  0.00     0.161 A
HETATM   12  N2  UNL     1      32.429  61.394  11.102  1.00  0.00    -0.277 N
HETATM   13  N1  UNL     1      32.073  60.955  12.294  1.00  0.00    -0.244 N
ATOM     14  H2  UNL     1      31.890  62.046  10.532  1.00  0.00     0.189 HD
HETATM   15  C1  UNL     1      30.871  61.287  13.050  1.00  0.00     0.183 C
HETATM   16  C8  UNL     1      33.057  60.122  12.689  1.00  0.00     0.363 A
HETATM   17  N7  UNL     1      34.002  60.052  11.751  1.00  0.00    -0.192 N
HETATM   18  O2  UNL     1      33.071  59.506  13.784  1.00  0.00    -0.243 OA
BRANCH  17  19
HETATM   19  N8  UNL     1      35.195  59.320  11.728  1.00  0.00    -0.333 N
ATOM     20  H82 UNL     1      36.109  59.567  11.347  1.00  0.00     0.177 HD
ATOM     21  H81 UNL     1      35.287  58.384  12.123  1.00  0.00     0.177 HD
ENDBRANCH  17  19
ENDBRANCH   1  11
BRANCH   2  22
HETATM   22  C5  UNL     1      33.815  63.505   9.938  1.00  0.00     0.124 C
BRANCH  22  23
HETATM   23  N3  UNL     1      34.319  64.701   9.909  1.00  0.00    -0.317 N
ATOM     24  H3  UNL     1      35.202  64.864  10.392  1.00  0.00     0.185 HD
BRANCH  23  25
HETATM   25  N4  UNL     1      33.726  65.762   9.262  1.00  0.00    -0.345 N
ATOM     26  H42 UNL     1      33.797  65.787   8.245  1.00  0.00     0.176 HD
ATOM     27  H41 UNL     1      33.228  66.511   9.744  1.00  0.00     0.176 HD
ENDBRANCH  23  25
ENDBRANCH  22  23
ENDBRANCH   2  22
TORSDOF 5
ENDMDL