MODEL 5
REMARK VINA RESULT: 3.615447805      5.205      6.641
REMARK  4 active torsions:
REMARK  status: ('A' for Active; 'I' for Inactive)
REMARK    1  A    between atoms: O1_2  and  C2_3
REMARK    2  A    between atoms: C2_3  and  O2_4
REMARK    3  A    between atoms: C3_6  and  O3_7
REMARK    4  A    between atoms: C5_13  and  N3_14
ROOT
HETATM    1  C2  UNL     1      34.031  65.283   8.218  1.00  0.00     0.226 C
HETATM    2  C3  UNL     1      33.371  64.811   9.475  1.00  0.00     0.296 C
HETATM    3  N1  UNL     1      33.056  63.407   9.477  1.00  0.00    -0.089 NA
HETATM    4  N2  UNL     1      34.140  62.590   9.235  1.00  0.00    -0.219 N
HETATM    5  S1  UNL     1      34.188  60.927   9.864  1.00  0.00     0.064 SA
HETATM    6  C4  UNL     1      35.215  63.115   8.473  1.00  0.00     0.083 C
HETATM    7  C5  UNL     1      36.414  62.592   8.559  1.00  0.00     0.196 C
HETATM    8  C6  UNL     1      34.930  64.260   7.586  1.00  0.00     0.212 C
HETATM    9  C7  UNL     1      34.368  63.782   6.325  1.00  0.00     0.076 C
HETATM   10  N4  UNL     1      33.921  63.415   5.312  1.00  0.00    -0.196 NA
ENDROOT
BRANCH   1  11
HETATM   11  O1  UNL     1      34.709  66.478   8.451  1.00  0.00    -0.355 OA
HETATM   12  C1  UNL     1      33.954  67.591   8.105  1.00  0.00     0.205 C
ENDBRANCH   1  11
BRANCH   1  13
HETATM   13  O2  UNL     1      33.022  65.569   7.300  1.00  0.00    -0.361 OA
ATOM     14  H2  UNL     1      33.438  65.618   6.446  1.00  0.00     0.213 HD
ENDBRANCH   1  13
BRANCH   2  15
HETATM   15  O3  UNL     1      34.257  65.018  10.535  1.00  0.00    -0.373 OA
ATOM     16  H3  UNL     1      34.144  64.309  11.158  1.00  0.00     0.212 HD
ENDBRANCH   2  15
BRANCH   7  17
HETATM   17  N3  UNL     1      37.471  63.125   7.795  1.00  0.00    -0.125 N
HETATM   18  O4  UNL     1      38.573  62.568   7.788  1.00  0.00    -0.532 OA
HETATM   19  O5  UNL     1      37.287  64.258   7.060  1.00  0.00    -0.532 OA
ENDBRANCH   7  17
TORSDOF 4
ENDMDL