MODEL 2
REMARK VINA RESULT: -8.043998236      1.545      3.947
REMARK  3 active torsions:
REMARK  status: ('A' for Active; 'I' for Inactive)
REMARK    1  A    between atoms: O1_2  and  C2_3
REMARK    2  A    between atoms: C5_8  and  N2_9
REMARK    3  A    between atoms: C7_17  and  O3_18
ROOT
HETATM    1  C2  UNL     1      35.015  60.130   8.463  1.00  0.00     0.180 A
HETATM    2  N1  UNL     1      35.298  61.317   7.902  1.00  0.00    -0.320 N
ATOM      3  H1  UNL     1      35.839  61.374   7.039  1.00  0.00     0.169 HD
HETATM    4  C3  UNL     1      34.844  62.437   8.515  1.00  0.00     0.122 A
HETATM    5  C4  UNL     1      34.097  62.382   9.703  1.00  0.00     0.107 A
HETATM    6  C5  UNL     1      33.820  61.160  10.259  1.00  0.00     0.116 A
HETATM    7  C7  UNL     1      34.296  60.020   9.614  1.00  0.00     0.147 A
HETATM    8  C8  UNL     1      33.639  63.632  10.297  1.00  0.00     0.259 C
HETATM    9  O4  UNL     1      32.974  63.609  11.353  1.00  0.00    -0.267 OA
HETATM   10  N6  UNL     1      33.969  64.868   9.645  1.00  0.00    -0.341 N
ATOM     11  H6  UNL     1      34.022  65.745  10.164  1.00  0.00     0.164 HD
HETATM   12  C9  UNL     1      34.222  64.816   8.219  1.00  0.00     0.248 C
HETATM   13  N7  UNL     1      35.118  63.715   7.971  1.00  0.00    -0.359 N
ATOM     14  H7  UNL     1      35.952  63.857   7.402  1.00  0.00     0.162 HD
ENDROOT
BRANCH   6  15
HETATM   15  N2  UNL     1      33.076  61.043  11.449  1.00  0.00    -0.183 N
HETATM   16  N3  UNL     1      31.864  61.540  11.617  1.00  0.00     0.005 NA
HETATM   17  N4  UNL     1      31.452  61.292  12.848  1.00  0.00    -0.222 N
HETATM   18  N5  UNL     1      32.405  60.630  13.477  1.00  0.00    -0.237 N
ATOM     19  H4  UNL     1      30.552  61.565  13.245  1.00  0.00     0.205 HD
HETATM   20  C6  UNL     1      33.411  60.475  12.611  1.00  0.00     0.360 A
ATOM     21  H5  UNL     1      32.380  60.300  14.441  1.00  0.00     0.193 HD
HETATM   22  O2  UNL     1      34.512  59.879  12.863  1.00  0.00    -0.243 OA
ENDBRANCH   6  15
BRANCH   7  23
HETATM   23  O3  UNL     1      33.988  58.803  10.216  1.00  0.00    -0.355 OA
ATOM     24  H3  UNL     1      33.326  58.702  10.890  1.00  0.00     0.218 HD
ENDBRANCH   7  23
BRANCH   1  25
HETATM   25  O1  UNL     1      35.483  58.981   7.832  1.00  0.00    -0.339 OA
HETATM   26  C1  UNL     1      35.366  58.801   6.429  1.00  0.00     0.211 C
ENDBRANCH   1  25
TORSDOF 3
ENDMDL