MODEL 2
REMARK VINA RESULT: -7.071243375      2.088      4.103
REMARK  4 active torsions:
REMARK  status: ('A' for Active; 'I' for Inactive)
REMARK    1  A    between atoms: O1_2  and  C2_3
REMARK    2  A    between atoms: C2_3  and  C3_5
REMARK    3  A    between atoms: N3_13  and  N4_14
REMARK    4  A    between atoms: N6_20  and  O3_22
ROOT
HETATM    1  C3  UNL     1      33.992  60.646  10.049  1.00  0.00     0.144 C
HETATM    2  C4  UNL     1      33.910  59.206  10.128  1.00  0.00     0.122 C
HETATM    3  N1  UNL     1      34.521  58.609   9.069  1.00  0.00    -0.387 N
HETATM    4  C5  UNL     1      35.908  58.323   8.743  1.00  0.00     0.132 C
HETATM    5  C6  UNL     1      35.574  59.256   7.553  1.00  0.00     0.063 C
HETATM    6  C7  UNL     1      34.307  58.296   7.700  1.00  0.00     0.132 C
HETATM    7  C8  UNL     1      35.304  60.627   7.793  1.00  0.00     0.232 C
HETATM    8  N2  UNL     1      36.507  61.434   7.795  1.00  0.00    -0.073 NA
HETATM    9  N3  UNL     1      35.997  62.738   7.966  1.00  0.00    -0.007 N
HETATM   10  C9  UNL     1      34.713  62.648   8.606  1.00  0.00     0.741 C
HETATM   11  N6  UNL     1      33.824  63.509   8.854  1.00  0.00    -0.096 N
ATOM     12  H6  UNL     1      32.971  63.211   9.328  1.00  0.00     0.213 HD
HETATM   13  N7  UNL     1      34.614  61.222   8.931  1.00  0.00    -0.150 N
ENDROOT
BRANCH   9  14
HETATM   14  N4  UNL     1      36.612  63.910   7.590  1.00  0.00    -0.216 N
HETATM   15  N5  UNL     1      37.804  63.991   7.191  1.00  0.00    -0.329 N
ATOM     16  H52 UNL     1      38.334  63.121   7.150  1.00  0.00     0.178 HD
ATOM     17  H51 UNL     1      38.258  64.860   6.912  1.00  0.00     0.178 HD
ATOM     18  H4  UNL     1      36.065  64.770   7.637  1.00  0.00     0.210 HD
ENDBRANCH   9  14
BRANCH  11  19
HETATM   19  O3  UNL     1      33.959  64.816   8.514  1.00  0.00    -0.276 OA
ATOM     20  H3  UNL     1      33.430  65.503   8.904  1.00  0.00     0.245 HD
ENDBRANCH  11  19
BRANCH   1  21
HETATM   21  C2  UNL     1      33.380  61.301  11.132  1.00  0.00     0.311 C
HETATM   22  O2  UNL     1      32.614  62.273  11.016  1.00  0.00    -0.258 OA
BRANCH  21  23
HETATM   23  O1  UNL     1      33.617  60.867  12.472  1.00  0.00    -0.321 OA
HETATM   24  C1  UNL     1      32.495  60.425  13.196  1.00  0.00     0.213 C
ENDBRANCH  21  23
ENDBRANCH   1  21
TORSDOF 4
ENDMDL