MODEL 4
REMARK VINA RESULT: -6.265829601      4.677      6.781
REMARK  4 active torsions:
REMARK  status: ('A' for Active; 'I' for Inactive)
REMARK    1  A    between atoms: C3_6  and  N3_7
REMARK    2  A    between atoms: N3_7  and  C4_9
REMARK    3  A    between atoms: C4_9  and  C5_10
REMARK    4  A    between atoms: C5_10  and  C6_11
ROOT
HETATM    1  N1  UNL     1      12.229  31.812  32.985  1.00  0.00    -0.188 NA
HETATM    2  C1  UNL     1      12.492  30.954  32.247  1.00  0.00     0.139 C
HETATM    3  C2  UNL     1      12.833  29.900  31.329  1.00  0.00     0.217 A
HETATM    4  N2  UNL     1      13.180  28.662  31.740  1.00  0.00    -0.164 N
ATOM      5  H2  UNL     1      13.234  28.355  32.711  1.00  0.00     0.186 HD
HETATM    6  C3  UNL     1      13.442  27.899  30.668  1.00  0.00     0.694 A
HETATM    7  N4  UNL     1      13.244  28.716  29.600  1.00  0.00    -0.130 N
ATOM      8  H4  UNL     1      13.364  28.432  28.627  1.00  0.00     0.205 HD
HETATM    9  N5  UNL     1      12.877  29.924  29.985  1.00  0.00    -0.262 N
ATOM     10  H5  UNL     1      12.667  30.719  29.382  1.00  0.00     0.190 HD
ENDROOT
BRANCH   6  11
HETATM   11  N3  UNL     1      13.808  26.650  30.636  1.00  0.00    -0.224 N
ATOM     12  H3  UNL     1      14.734  26.352  30.941  1.00  0.00     0.177 HD
BRANCH  11  13
HETATM   13  C4  UNL     1      12.826  25.707  30.142  1.00  0.00     0.142 C
BRANCH  13  14
HETATM   14  C5  UNL     1      11.694  25.546  31.159  1.00  0.00     0.058 C
BRANCH  14  15
HETATM   15  C6  UNL     1      10.425  25.227  30.473  1.00  0.00    -0.057 A
HETATM   16  C7  UNL     1      10.220  25.429  29.124  1.00  0.00     0.007 A
HETATM   17  C8  UNL     1       9.038  25.132  28.480  1.00  0.00     0.001 A
HETATM   18  C9  UNL     1       8.014  24.604  29.242  1.00  0.00     0.000 A
HETATM   19  C10 UNL     1       8.167  24.381  30.604  1.00  0.00     0.001 A
HETATM   20  C11 UNL     1       9.366  24.694  31.196  1.00  0.00     0.007 A
ENDBRANCH  14  15
ENDBRANCH  13  14
ENDBRANCH  11  13
ENDBRANCH   6  11
TORSDOF 4
ENDMDL