MODEL 5
REMARK VINA RESULT: -6.266797790      6.868      8.900
REMARK  4 active torsions:
REMARK  status: ('A' for Active; 'I' for Inactive)
REMARK    1  A    between atoms: C3_8  and  N3_9
REMARK    2  A    between atoms: N3_9  and  C4_11
REMARK    3  A    between atoms: C4_11  and  C5_12
REMARK    4  A    between atoms: C5_12  and  C6_13
ROOT
HETATM    1  O1  UNL     1      14.799  30.429  32.454  1.00  0.00    -0.266 OA
HETATM    2  C1  UNL     1      13.841  29.991  31.769  1.00  0.00     0.276 A
HETATM    3  C2  UNL     1      13.692  30.295  30.434  1.00  0.00     0.182 A
HETATM    4  N1  UNL     1      12.652  29.808  29.730  1.00  0.00    -0.292 N
ATOM      5  H1  UNL     1      12.535  30.026  28.741  1.00  0.00     0.186 HD
HETATM    6  N2  UNL     1      11.788  29.034  30.370  1.00  0.00    -0.132 N
ATOM      7  H2  UNL     1      10.994  28.658  29.850  1.00  0.00     0.205 HD
HETATM    8  C3  UNL     1      11.906  28.723  31.663  1.00  0.00     0.695 A
HETATM    9  N4  UNL     1      12.933  29.197  32.378  1.00  0.00    -0.154 N
ATOM     10  H4  UNL     1      13.028  28.962  33.366  1.00  0.00     0.187 HD
ENDROOT
BRANCH   8  11
HETATM   11  N3  UNL     1      11.041  27.972  32.220  1.00  0.00    -0.224 N
ATOM     12  H3  UNL     1      10.101  28.325  32.393  1.00  0.00     0.177 HD
BRANCH  11  13
HETATM   13  C4  UNL     1      11.385  26.629  32.606  1.00  0.00     0.142 C
BRANCH  13  14
HETATM   14  C5  UNL     1      11.720  25.854  31.346  1.00  0.00     0.058 C
BRANCH  14  15
HETATM   15  C6  UNL     1      10.497  25.422  30.631  1.00  0.00    -0.057 A
HETATM   16  C7  UNL     1       9.429  24.825  31.269  1.00  0.00     0.007 A
HETATM   17  C8  UNL     1       8.286  24.422  30.595  1.00  0.00     0.001 A
HETATM   18  C9  UNL     1       8.245  24.643  29.221  1.00  0.00     0.000 A
HETATM   19  C10 UNL     1       9.290  25.236  28.543  1.00  0.00     0.001 A
HETATM   20  C11 UNL     1      10.411  25.621  29.265  1.00  0.00     0.007 A
ENDBRANCH  14  15
ENDBRANCH  13  14
ENDBRANCH  11  13
ENDBRANCH   8  11
TORSDOF 4
ENDMDL