MODEL 5
REMARK VINA RESULT: -6.014345178      1.391      1.736
REMARK  4 active torsions:
REMARK  status: ('A' for Active; 'I' for Inactive)
REMARK    1  A    between atoms: C1_2  and  N2_4
REMARK    2  A    between atoms: N2_4  and  N3_6
REMARK    3  A    between atoms: C2_8  and  C3_9
REMARK    4  A    between atoms: C4_10  and  C5_11
ROOT
HETATM    1  C3  UNL     1       8.907  30.337  37.602  1.00  0.00     0.021 C
HETATM    2  C4  UNL     1       8.696  30.114  38.844  1.00  0.00     0.031 C
ENDROOT
BRANCH   1   3
HETATM    3  C2  UNL     1       9.690  31.288  36.866  1.00  0.00     0.107 C
HETATM    4  N3  UNL     1      10.736  30.798  36.218  1.00  0.00    -0.310 N
ATOM      5  H3  UNL     1      10.959  29.803  36.250  1.00  0.00     0.186 HD
BRANCH   4   6
HETATM    6  N2  UNL     1      11.517  31.687  35.495  1.00  0.00    -0.279 N
ATOM      7  H2  UNL     1      11.899  32.517  35.948  1.00  0.00     0.189 HD
BRANCH   6   8
HETATM    8  C1  UNL     1      11.780  31.441  34.140  1.00  0.00     0.199 C
HETATM    9  N1  UNL     1      11.992  32.538  33.260  1.00  0.00    -0.068 NA
HETATM   10  S1  UNL     1      11.838  29.919  33.589  1.00  0.00    -0.043 SA
ENDBRANCH   6   8
ENDBRANCH   4   6
ENDBRANCH   1   3
BRANCH   2  11
HETATM   11  C5  UNL     1       9.146  30.714  40.061  1.00  0.00     0.031 A
HETATM   12  C6  UNL     1       8.574  30.546  41.280  1.00  0.00     0.029 A
HETATM   13  C7  UNL     1       9.050  31.158  42.460  1.00  0.00     0.004 A
HETATM   14  C8  UNL     1      10.152  31.968  42.386  1.00  0.00     0.017 A
HETATM   15  C9  UNL     1      10.720  32.128  41.144  1.00  0.00     0.088 A
HETATM   16  N4  UNL     1      10.257  31.542  40.041  1.00  0.00    -0.366 N
ATOM     17  H4  UNL     1      10.734  31.709  39.155  1.00  0.00     0.165 HD
ENDBRANCH   2  11
TORSDOF 4
ENDMDL