MODEL 3
REMARK VINA RESULT: -6.147384510      1.720      2.172
REMARK  4 active torsions:
REMARK  status: ('A' for Active; 'I' for Inactive)
REMARK    1  A    between atoms: C7_8  and  C8_9
REMARK    2  A    between atoms: C8_9  and  C9_10
REMARK    3  A    between atoms: C9_10  and  N2_11
REMARK    4  A    between atoms: N2_11  and  C10_13
ROOT
HETATM    1  N1  UNL     1      14.252  30.634  31.827  1.00  0.00    -0.191 NA
HETATM    2  C1  UNL     1      13.753  29.636  31.462  1.00  0.00     0.100 C
HETATM    3  C2  UNL     1      13.160  28.393  31.027  1.00  0.00     0.051 A
HETATM    4  C3  UNL     1      13.968  27.457  30.370  1.00  0.00     0.023 A
HETATM    5  C4  UNL     1      13.450  26.259  29.941  1.00  0.00     0.002 A
HETATM    6  C5  UNL     1      12.120  25.969  30.156  1.00  0.00     0.001 A
HETATM    7  C6  UNL     1      11.345  26.905  30.804  1.00  0.00     0.009 A
HETATM    8  C7  UNL     1      11.829  28.109  31.245  1.00  0.00    -0.036 A
ENDROOT
BRANCH   8   9
HETATM    9  C8  UNL     1      11.022  29.129  31.938  1.00  0.00     0.060 C
BRANCH   9  10
HETATM   10  C9  UNL     1      10.604  28.753  33.319  1.00  0.00     0.142 C
BRANCH  10  11
HETATM   11  N2  UNL     1      11.476  29.418  34.270  1.00  0.00    -0.224 N
ATOM     12  H2  UNL     1      12.488  29.307  34.198  1.00  0.00     0.177 HD
BRANCH  11  13
HETATM   13  C10 UNL     1      10.974  30.149  35.205  1.00  0.00     0.693 A
HETATM   14  N3  UNL     1       9.958  29.786  36.026  1.00  0.00    -0.185 N
HETATM   15  C11 UNL     1       9.697  30.796  36.880  1.00  0.00     0.215 A
ATOM     16  H3  UNL     1       9.469  28.891  36.001  1.00  0.00     0.185 HD
HETATM   17  N4  UNL     1      10.549  31.800  36.599  1.00  0.00    -0.281 N
HETATM   18  N5  UNL     1      11.311  31.391  35.584  1.00  0.00    -0.131 N
ATOM     19  H4  UNL     1      10.601  32.703  37.071  1.00  0.00     0.188 HD
ATOM     20  H5  UNL     1      12.051  31.947  35.154  1.00  0.00     0.205 HD
ENDBRANCH  11  13
ENDBRANCH  10  11
ENDBRANCH   9  10
ENDBRANCH   8   9
TORSDOF 4
ENDMDL