MODEL 5
REMARK VINA RESULT: -6.099597404      1.575      2.116
REMARK  5 active torsions:
REMARK  status: ('A' for Active; 'I' for Inactive)
REMARK    1  A    between atoms: C2_2  and  C3_3
REMARK    2  A    between atoms: C3_3  and  O1_4
REMARK    3  A    between atoms: O1_4  and  C4_5
REMARK    4  A    between atoms: C10_13  and  N2_14
REMARK    5  A    between atoms: N3_17  and  O2_18
ROOT
HETATM    1  C4  UNL     1      12.872  27.617  30.870  1.00  0.00     0.070 A
HETATM    2  C5  UNL     1      12.954  28.929  30.394  1.00  0.00     0.039 A
HETATM    3  C6  UNL     1      12.694  29.985  31.242  1.00  0.00     0.036 A
HETATM    4  C7  UNL     1      12.352  29.731  32.562  1.00  0.00     0.092 A
HETATM    5  C8  UNL     1      12.265  28.438  33.057  1.00  0.00     0.012 A
HETATM    6  C9  UNL     1      11.926  28.196  34.371  1.00  0.00     0.120 A
HETATM    7  N1  UNL     1      11.684  29.263  35.149  1.00  0.00    -0.199 N
ATOM      8  H1  UNL     1      11.431  29.112  36.126  1.00  0.00     0.183 HD
HETATM    9  C10 UNL     1      11.762  30.524  34.689  1.00  0.00     0.702 A
HETATM   10  N3  UNL     1      12.093  30.756  33.410  1.00  0.00    -0.052 N
HETATM   11  C11 UNL     1      12.533  27.386  32.183  1.00  0.00     0.052 A
ENDROOT
BRANCH   1  12
HETATM   12  O1  UNL     1      13.133  26.580  30.019  1.00  0.00    -0.347 OA
BRANCH  12  13
HETATM   13  C3  UNL     1      12.327  25.461  29.821  1.00  0.00     0.202 C
BRANCH  13  14
HETATM   14  C2  UNL     1      10.901  25.881  29.612  1.00  0.00    -0.011 C
HETATM   15  C1  UNL     1      10.111  25.167  28.843  1.00  0.00     0.009 C
ENDBRANCH  13  14
ENDBRANCH  12  13
ENDBRANCH   1  12
BRANCH  10  16
HETATM   16  O2  UNL     1      12.186  32.034  32.893  1.00  0.00    -0.269 OA
ATOM     17  H2  UNL     1      12.449  32.722  33.492  1.00  0.00     0.245 HD
ENDBRANCH  10  16
BRANCH   9  18
HETATM   18  N2  UNL     1      11.525  31.530  35.456  1.00  0.00    -0.232 N
ATOM     19  H22 UNL     1      11.270  31.354  36.428  1.00  0.00     0.174 HD
ATOM     20  H21 UNL     1      11.587  32.487  35.108  1.00  0.00     0.174 HD
ENDBRANCH   9  18
TORSDOF 5
ENDMDL