MODEL 4
REMARK VINA RESULT: -5.265493045      2.185      6.004
REMARK  3 active torsions:
REMARK  status: ('A' for Active; 'I' for Inactive)
REMARK    1  A    between atoms: N1_2  and  C3_4
REMARK    2  A    between atoms: C3_4  and  C4_5
REMARK    3  A    between atoms: C4_5  and  C5_6
ROOT
HETATM    1  C5  UNL     1      13.484  26.814  31.424  1.00  0.00    -0.030 A
HETATM    2  C6  UNL     1      13.003  26.321  32.627  1.00  0.00     0.097 A
HETATM    3  N2  UNL     1      12.457  27.133  33.544  1.00  0.00    -0.351 N
ATOM      4  H2  UNL     1      12.114  26.738  34.419  1.00  0.00     0.166 HD
HETATM    5  C7  UNL     1      12.353  28.454  33.335  1.00  0.00     0.111 A
HETATM    6  N3  UNL     1      11.824  29.251  34.230  1.00  0.00    -0.385 N
ATOM      7  H31 UNL     1      11.745  30.255  34.071  1.00  0.00     0.157 HD
ATOM      8  H32 UNL     1      11.484  28.841  35.101  1.00  0.00     0.157 HD
HETATM    9  C8  UNL     1      12.810  29.003  32.165  1.00  0.00     0.034 A
HETATM   10  C9  UNL     1      13.383  28.152  31.201  1.00  0.00    -0.012 A
HETATM   11  C10 UNL     1      13.861  28.726  29.955  1.00  0.00     0.030 A
HETATM   12  C11 UNL     1      13.735  30.031  29.784  1.00  0.00     0.088 A
HETATM   13  N4  UNL     1      13.153  30.873  30.773  1.00  0.00    -0.374 N
ATOM     14  H4  UNL     1      13.085  31.873  30.581  1.00  0.00     0.164 HD
HETATM   15  C12 UNL     1      12.709  30.434  31.897  1.00  0.00     0.103 A
ENDROOT
BRANCH   1  16
HETATM   16  C4  UNL     1      14.105  25.923  30.453  1.00  0.00     0.060 C
BRANCH  16  17
HETATM   17  C3  UNL     1      15.334  25.302  31.101  1.00  0.00     0.120 C
BRANCH  17  18
HETATM   18  N1  UNL     1      16.123  24.624  30.097  1.00  0.00    -0.421 N
HETATM   19  C1  UNL     1      15.351  24.017  29.076  1.00  0.00     0.142 C
HETATM   20  C2  UNL     1      17.229  23.889  30.604  1.00  0.00     0.142 C
ENDBRANCH  17  18
ENDBRANCH  16  17
ENDBRANCH   1  16
TORSDOF 3
ENDMDL