MODEL 1
REMARK VINA RESULT: -6.062954735      0.000      0.000
REMARK  4 active torsions:
REMARK  status: ('A' for Active; 'I' for Inactive)
REMARK    1  A    between atoms: C4_5  and  C5_6
REMARK    2  A    between atoms: C5_6  and  C6_7
REMARK    3  A    between atoms: C6_7  and  N2_8
REMARK    4  A    between atoms: N2_8  and  C7_10
ROOT
HETATM    1  N2  UNL     1      11.859  26.660  29.882  1.00  0.00    -0.375 N
ATOM      2  H2  UNL     1      11.693  27.663  29.949  1.00  0.00     0.161 HD
ENDROOT
BRANCH   1   3
HETATM    3  C6  UNL     1      13.219  26.261  29.882  1.00  0.00     0.126 C
BRANCH   3   4
HETATM    4  C5  UNL     1      13.917  26.695  31.151  1.00  0.00     0.058 C
BRANCH   4   5
HETATM    5  C4  UNL     1      13.494  28.050  31.588  1.00  0.00    -0.057 A
HETATM    6  C3  UNL     1      12.845  28.195  32.777  1.00  0.00     0.009 A
HETATM    7  C2  UNL     1      12.415  29.420  33.260  1.00  0.00     0.027 A
HETATM    8  C1  UNL     1      12.648  30.563  32.510  1.00  0.00     0.046 A
HETATM    9  N1  UNL     1      12.245  31.852  32.924  1.00  0.00    -0.102 NA
HETATM   10  C12 UNL     1      13.310  30.417  31.295  1.00  0.00     0.027 A
HETATM   11  C11 UNL     1      13.729  29.181  30.836  1.00  0.00     0.009 A
ENDBRANCH   4   5
ENDBRANCH   3   4
ENDBRANCH   1   3
BRANCH   1  12
HETATM   12  C7  UNL     1      10.827  25.938  29.809  1.00  0.00     0.116 A
HETATM   13  C8  UNL     1      10.380  25.347  30.998  1.00  0.00     0.136 A
HETATM   14  N3  UNL     1       9.292  24.563  31.025  1.00  0.00    -0.371 N
HETATM   15  C9  UNL     1       8.587  24.317  29.903  1.00  0.00     0.104 A
ATOM     16  H3  UNL     1       8.993  24.147  31.907  1.00  0.00     0.164 HD
HETATM   17  C10 UNL     1       9.008  24.888  28.726  1.00  0.00     0.106 A
HETATM   18  N4  UNL     1      10.108  25.675  28.718  1.00  0.00    -0.350 N
ATOM     19  H4  UNL     1      10.402  26.088  27.833  1.00  0.00     0.166 HD
ENDBRANCH   1  12
TORSDOF 4
ENDMDL