MODEL 2
REMARK VINA RESULT: -5.352647943      1.997      7.996
REMARK  5 active torsions:
REMARK  status: ('A' for Active; 'I' for Inactive)
REMARK    1  A    between atoms: C4_4  and  N1_5
REMARK    2  A    between atoms: N1_5  and  C5_7
REMARK    3  A    between atoms: C5_7  and  C6_8
REMARK    4  A    between atoms: C6_8  and  N2_9
REMARK    5  A    between atoms: N2_9  and  C7_11
ROOT
HETATM    1  C5  UNL     1       9.652  32.099  37.579  1.00  0.00     0.141 C
ENDROOT
BRANCH   1   2
HETATM    2  N1  UNL     1      10.477  32.104  38.737  1.00  0.00    -0.375 N
ATOM      3  H1  UNL     1      11.442  32.409  38.607  1.00  0.00     0.161 HD
BRANCH   2   4
HETATM    4  C4  UNL     1      10.142  31.767  39.929  1.00  0.00     0.100 A
HETATM    5  C3  UNL     1      10.671  32.427  41.005  1.00  0.00     0.048 A
HETATM    6  C2  UNL     1      10.267  32.013  42.274  1.00  0.00     0.005 A
HETATM    7  C1  UNL     1       9.371  30.985  42.472  1.00  0.00     0.017 A
HETATM    8  C10 UNL     1       8.876  30.362  41.342  1.00  0.00     0.089 A
HETATM    9  N4  UNL     1       9.254  30.745  40.120  1.00  0.00    -0.353 N
ATOM     10  H4  UNL     1       8.869  30.264  39.307  1.00  0.00     0.166 HD
ENDBRANCH   2   4
ENDBRANCH   1   2
BRANCH   1  11
HETATM   11  C6  UNL     1      10.038  31.000  36.591  1.00  0.00     0.141 C
BRANCH  11  12
HETATM   12  N2  UNL     1      11.170  31.458  35.770  1.00  0.00    -0.369 N
ATOM     13  H2  UNL     1      11.619  32.363  35.913  1.00  0.00     0.161 HD
BRANCH  12  14
HETATM   14  C7  UNL     1      11.561  30.617  34.838  1.00  0.00     0.144 A
HETATM   15  N3  UNL     1      11.947  30.899  33.593  1.00  0.00    -0.346 N
HETATM   16  C8  UNL     1      12.301  29.924  32.813  1.00  0.00     0.097 A
ATOM     17  H3  UNL     1      11.964  31.862  33.260  1.00  0.00     0.167 HD
HETATM   18  C9  UNL     1      12.259  28.650  33.316  1.00  0.00     0.070 A
HETATM   19  S1  UNL     1      11.704  28.919  34.910  1.00  0.00    -0.065 SA
ENDBRANCH  12  14
ENDBRANCH  11  12
ENDBRANCH   1  11
TORSDOF 5
ENDMDL