MODEL 2
REMARK VINA RESULT: -6.208572403      0.986      1.588
REMARK  4 active torsions:
REMARK  status: ('A' for Active; 'I' for Inactive)
REMARK    1  A    between atoms: C4_7  and  N2_8
REMARK    2  A    between atoms: N2_8  and  C5_10
REMARK    3  A    between atoms: C5_10  and  C6_11
REMARK    4  A    between atoms: C6_11  and  C7_12
ROOT
HETATM    1  N2  UNL     1      10.453  31.834  36.570  1.00  0.00    -0.226 N
ATOM      2  H2  UNL     1      10.434  32.832  36.361  1.00  0.00     0.177 HD
ENDROOT
BRANCH   1   3
HETATM    3  C4  UNL     1      11.000  31.060  35.711  1.00  0.00     0.680 A
HETATM    4  N1  UNL     1      11.076  29.734  35.920  1.00  0.00    -0.202 N
HETATM    5  C3  UNL     1      11.659  28.930  35.000  1.00  0.00     0.111 A
ATOM      6  H1  UNL     1      10.693  29.332  36.776  1.00  0.00     0.183 HD
HETATM    7  C2  UNL     1      12.171  29.498  33.848  1.00  0.00     0.092 A
HETATM    8  C1  UNL     1      12.093  30.851  33.637  1.00  0.00     0.260 A
HETATM    9  O1  UNL     1      12.543  31.422  32.602  1.00  0.00    -0.268 OA
HETATM   10  N4  UNL     1      11.502  31.610  34.584  1.00  0.00    -0.156 N
ATOM     11  H4  UNL     1      11.435  32.618  34.446  1.00  0.00     0.187 HD
ENDBRANCH   1   3
BRANCH   1  12
HETATM   12  C5  UNL     1       9.866  31.406  37.805  1.00  0.00     0.142 C
BRANCH  12  13
HETATM   13  C6  UNL     1      10.401  32.294  38.907  1.00  0.00     0.058 C
BRANCH  13  14
HETATM   14  C7  UNL     1      10.118  31.760  40.246  1.00  0.00    -0.054 A
HETATM   15  C8  UNL     1      10.672  32.372  41.349  1.00  0.00     0.024 A
HETATM   16  C9  UNL     1      10.405  31.867  42.610  1.00  0.00     0.088 A
HETATM   17  N3  UNL     1       9.610  30.791  42.742  1.00  0.00    -0.375 N
HETATM   18  C10 UNL     1       9.042  30.154  41.700  1.00  0.00     0.088 A
ATOM     19  H3  UNL     1       9.427  30.439  43.681  1.00  0.00     0.164 HD
HETATM   20  C11 UNL     1       9.312  30.662  40.443  1.00  0.00     0.024 A
ENDBRANCH  13  14
ENDBRANCH  12  13
ENDBRANCH   1  12
TORSDOF 4
ENDMDL