MODEL 5
REMARK VINA RESULT: -5.934582205      1.547      2.111
REMARK  4 active torsions:
REMARK  status: ('A' for Active; 'I' for Inactive)
REMARK    1  A    between atoms: C6_7  and  N2_8
REMARK    2  A    between atoms: N2_8  and  C7_10
REMARK    3  A    between atoms: C7_10  and  C8_11
REMARK    4  A    between atoms: C8_11  and  C9_12
ROOT
HETATM    1  N1  UNL     1      12.005  32.650  33.298  1.00  0.00    -0.190 NA
HETATM    2  C1  UNL     1      11.926  31.558  33.689  1.00  0.00     0.117 C
HETATM    3  C2  UNL     1      11.829  30.211  34.187  1.00  0.00     0.115 A
HETATM    4  C3  UNL     1      12.325  29.159  33.446  1.00  0.00     0.041 A
HETATM    5  C4  UNL     1      12.241  27.874  33.903  1.00  0.00     0.007 A
HETATM    6  C5  UNL     1      11.652  27.590  35.132  1.00  0.00     0.048 A
HETATM    7  C6  UNL     1      11.172  28.675  35.835  1.00  0.00     0.101 A
HETATM    8  N5  UNL     1      11.254  29.938  35.386  1.00  0.00    -0.334 N
ATOM      9  H5  UNL     1      10.880  30.701  35.951  1.00  0.00     0.168 HD
ENDROOT
BRANCH   7  10
HETATM   10  N2  UNL     1      10.618  28.473  36.976  1.00  0.00    -0.376 N
ATOM     11  H2  UNL     1      10.894  27.659  37.526  1.00  0.00     0.161 HD
BRANCH  10  12
HETATM   12  C7  UNL     1       9.618  29.367  37.498  1.00  0.00     0.127 C
BRANCH  12  13
HETATM   13  C8  UNL     1       9.703  29.331  39.028  1.00  0.00     0.078 C
BRANCH  13  14
HETATM   14  C9  UNL     1       9.945  30.722  39.487  1.00  0.00     0.027 A
HETATM   15  C10 UNL     1       9.934  31.914  38.779  1.00  0.00     0.114 A
HETATM   16  N3  UNL     1      10.210  32.936  39.604  1.00  0.00    -0.360 N
HETATM   17  C11 UNL     1      10.398  32.415  40.828  1.00  0.00     0.180 A
ATOM     18  H3  UNL     1      10.268  33.923  39.350  1.00  0.00     0.166 HD
HETATM   19  N4  UNL     1      10.234  31.072  40.746  1.00  0.00    -0.355 N
ATOM     20  H4  UNL     1      10.319  30.424  41.529  1.00  0.00     0.166 HD
ENDBRANCH  13  14
ENDBRANCH  12  13
ENDBRANCH  10  12
ENDBRANCH   7  10
TORSDOF 4
ENDMDL