MODEL 4
REMARK VINA RESULT: -6.909153305      1.529      2.351
REMARK  8 active torsions:
REMARK  status: ('A' for Active; 'I' for Inactive)
REMARK    1  A    between atoms: C3_3  and  C4_4
REMARK    2  A    between atoms: C4_4  and  C5_5
REMARK    3  A    between atoms: C5_5  and  C7_7
REMARK    4  A    between atoms: C14_14  and  O1_15
REMARK    5  A    between atoms: C14_14  and  C15_17
REMARK    6  A    between atoms: C15_17  and  N1_18
REMARK    7  A    between atoms: N2_21  and  C18_22
REMARK    8  A    between atoms: C21_25  and  O2_26
ROOT
HETATM    1  C7  UNL     1       4.700   9.150  19.683  1.00  0.00     0.023 C
HETATM    2  C8  UNL     1       5.487   9.914  20.664  1.00  0.00    -0.007 C
HETATM    3  C9  UNL     1       6.903  10.034  20.075  1.00  0.00     0.010 C
HETATM    4  C10 UNL     1       7.430   8.634  20.034  1.00  0.00    -0.003 C
HETATM    5  C11 UNL     1       7.820   8.331  21.458  1.00  0.00     0.013 C
HETATM    6  C12 UNL     1       6.643   8.426  22.400  1.00  0.00     0.028 C
HETATM    7  C13 UNL     1       5.596   9.391  22.049  1.00  0.00     0.013 C
HETATM    8  C14 UNL     1       6.176   7.025  22.723  1.00  0.00     0.134 C
HETATM    9  C21 UNL     1       5.503   6.331  21.566  1.00  0.00     0.195 C
HETATM   10  C22 UNL     1       6.450   5.501  20.728  1.00  0.00     0.073 C
HETATM   11  C23 UNL     1       7.137   6.250  19.646  1.00  0.00     0.017 C
HETATM   12  C24 UNL     1       6.568   7.627  19.391  1.00  0.00    -0.013 C
HETATM   13  C25 UNL     1       6.689   7.853  17.877  1.00  0.00     0.018 C
HETATM   14  C26 UNL     1       5.113   7.688  19.704  1.00  0.00     0.138 C
HETATM   15  O3  UNL     1       4.685   7.127  20.833  1.00  0.00    -0.346 OA
ENDROOT
BRANCH   8  16
HETATM   16  O1  UNL     1       7.368   6.294  22.967  1.00  0.00    -0.382 OA
ATOM     17  H1  UNL     1       7.085   5.524  23.447  1.00  0.00     0.210 HD
ENDBRANCH   8  16
BRANCH   8  18
HETATM   18  C15 UNL     1       5.382   6.909  23.983  1.00  0.00     0.173 C
BRANCH  18  19
HETATM   19  N1  UNL     1       5.904   7.589  25.122  1.00  0.00    -0.348 N
HETATM   20  C16 UNL     1       5.394   8.708  25.681  1.00  0.00     0.109 A
HETATM   21  C17 UNL     1       6.180   9.065  26.750  1.00  0.00     0.109 A
HETATM   22  N2  UNL     1       7.165   8.159  26.838  1.00  0.00    -0.352 N
HETATM   23  C20 UNL     1       6.992   7.280  25.860  1.00  0.00     0.185 A
BRANCH  22  24
HETATM   24  C18 UNL     1       8.220   8.195  27.863  1.00  0.00     0.124 C
HETATM   25  C19 UNL     1       7.666   8.332  29.241  1.00  0.00     0.027 C
ENDBRANCH  22  24
ENDBRANCH  18  19
ENDBRANCH   8  18
BRANCH   9  26
HETATM   26  O2  UNL     1       4.641   5.378  22.180  1.00  0.00    -0.363 OA
ATOM     27  H2  UNL     1       4.197   4.960  21.452  1.00  0.00     0.213 HD
ENDBRANCH   9  26
BRANCH   1  28
HETATM   28  C5  UNL     1       3.247   9.373  19.589  1.00  0.00    -0.008 C
HETATM   29  C6  UNL     1       2.742  10.753  19.434  1.00  0.00     0.011 C
BRANCH  28  30
HETATM   30  C4  UNL     1       2.631   8.554  18.446  1.00  0.00     0.031 C
BRANCH  30  31
HETATM   31  C3  UNL     1       1.170   8.592  18.475  1.00  0.00    -0.031 C
HETATM   32  C2  UNL     1       0.472   7.505  18.222  1.00  0.00    -0.035 C
HETATM   33  C1  UNL     1       1.176   6.222  17.902  1.00  0.00     0.036 C
ENDBRANCH  30  31
ENDBRANCH  28  30
ENDBRANCH   1  28
TORSDOF 8
ENDMDL