MODEL 2
REMARK VINA RESULT: -8.104048933      0.970      1.447
REMARK  8 active torsions:
REMARK  status: ('A' for Active; 'I' for Inactive)
REMARK    1  A    between atoms: C2_2  and  N1_3
REMARK    2  A    between atoms: N1_3  and  C3_5
REMARK    3  A    between atoms: C6_10  and  N3_11
REMARK    4  A    between atoms: N3_11  and  C7_12
REMARK    5  A    between atoms: C7_12  and  C8_13
REMARK    6  A    between atoms: C7_12  and  C13_20
REMARK    7  A    between atoms: N6_30  and  C21_31
REMARK    8  A    between atoms: C21_31  and  C22_32
ROOT
HETATM    1  C22 UNL     1       9.199   7.086  30.305  1.00  0.00     0.168 C
HETATM    2  C23 UNL     1      10.411   7.309  31.063  1.00  0.00     0.064 C
HETATM    3  N7  UNL     1      11.367   7.466  31.671  1.00  0.00    -0.197 NA
ENDROOT
BRANCH   1   4
HETATM    4  C21 UNL     1       8.750   8.235  29.470  1.00  0.00     0.077 C
BRANCH   4   5
HETATM    5  N6  UNL     1       7.821   7.964  28.445  1.00  0.00    -0.372 N
HETATM    6  C20 UNL     1       8.129   6.874  27.612  1.00  0.00     0.068 C
HETATM    7  C19 UNL     1       7.081   6.396  26.675  1.00  0.00     0.090 C
HETATM    8  C5  UNL     1       6.452   7.427  25.860  1.00  0.00     0.029 A
HETATM    9  C4  UNL     1       6.041   8.662  26.263  1.00  0.00     0.039 A
HETATM   10  C6  UNL     1       6.316   6.971  24.534  1.00  0.00     0.202 A
HETATM   11  N2  UNL     1       5.484   9.476  25.363  1.00  0.00    -0.195 N
HETATM   12  C25 UNL     1       6.087   9.339  27.607  1.00  0.00     0.078 C
HETATM   13  C3  UNL     1       5.322   9.101  24.073  1.00  0.00     0.680 A
ATOM     14  H2  UNL     1       5.173  10.403  25.654  1.00  0.00     0.184 HD
HETATM   15  N5  UNL     1       5.742   7.873  23.716  1.00  0.00    -0.164 N
ATOM     16  H5  UNL     1       5.615   7.603  22.741  1.00  0.00     0.187 HD
HETATM   17  C24 UNL     1       6.467   8.305  28.659  1.00  0.00     0.133 C
BRANCH  13  18
HETATM   18  N1  UNL     1       4.783   9.895  23.206  1.00  0.00    -0.226 N
ATOM     19  H1  UNL     1       4.015  10.516  23.460  1.00  0.00     0.177 HD
BRANCH  18  20
HETATM   20  C2  UNL     1       5.313   9.866  21.859  1.00  0.00     0.133 C
HETATM   21  C1  UNL     1       4.238   9.586  20.835  1.00  0.00     0.027 C
ENDBRANCH  18  20
ENDBRANCH  13  18
BRANCH  10  22
HETATM   22  N3  UNL     1       6.695   5.880  24.242  1.00  0.00    -0.389 NA
BRANCH  22  23
HETATM   23  C7  UNL     1       7.266   4.837  23.586  1.00  0.00     0.102 C
BRANCH  23  24
HETATM   24  C8  UNL     1       7.152   3.503  24.255  1.00  0.00     0.016 A
HETATM   25  C9  UNL     1       8.008   2.437  23.974  1.00  0.00     0.017 A
HETATM   26  C10 UNL     1       7.936   1.214  24.562  1.00  0.00     0.018 A
HETATM   27  C11 UNL     1       6.954   0.988  25.508  1.00  0.00     0.087 A
HETATM   28  N4  UNL     1       6.104   1.997  25.809  1.00  0.00    -0.374 N
HETATM   29  C12 UNL     1       6.202   3.197  25.207  1.00  0.00     0.102 A
ATOM     30  H4  UNL     1       5.375   1.846  26.505  1.00  0.00     0.164 HD
ENDBRANCH  23  24
BRANCH  23  31
HETATM   31  C13 UNL     1       7.020   4.768  22.082  1.00  0.00     0.051 C
HETATM   32  C14 UNL     1       5.588   4.630  21.730  1.00  0.00     0.012 C
HETATM   33  C15 UNL     1       5.004   5.859  21.026  1.00  0.00     0.001 C
HETATM   34  C16 UNL     1       5.718   6.094  19.710  1.00  0.00     0.000 C
HETATM   35  C17 UNL     1       7.183   5.717  19.845  1.00  0.00     0.001 C
HETATM   36  C18 UNL     1       7.611   5.907  21.311  1.00  0.00     0.012 C
ENDBRANCH  23  31
ENDBRANCH  22  23
ENDBRANCH  10  22
ENDBRANCH   4   5
ENDBRANCH   1   4
TORSDOF 8
ENDMDL