MODEL 4
REMARK VINA RESULT: -7.632284029      3.817      9.640
REMARK  11 active torsions:
REMARK  status: ('A' for Active; 'I' for Inactive)
REMARK    1  A    between atoms: C2_3  and  C4_6
REMARK    2  A    between atoms: C4_6  and  C5_7
REMARK    3  A    between atoms: C7_9  and  C12_16
REMARK    4  A    between atoms: C9_11  and  C10_12
REMARK    5  A    between atoms: C10_12  and  C11_13
REMARK       I    between atoms: N3_18  and  C14_19
REMARK       I    between atoms: C14_19  and  N4_21
REMARK    6  A    between atoms: N4_21  and  C15_23
REMARK    7  A    between atoms: C15_23  and  C16_24
REMARK    8  A    between atoms: C19_27  and  C20_28
REMARK    9  A    between atoms: C20_28  and  N5_29
REMARK   10  A    between atoms: N5_29  and  N6_31
REMARK   11  A    between atoms: N6_31  and  N7_32
ROOT
HETATM    1  N1  UNL     1      10.240   7.919  31.066  1.00  0.00    -0.191 NA
HETATM    2  C1  UNL     1       9.261   7.374  30.787  1.00  0.00     0.110 C
HETATM    3  C2  UNL     1       7.987   6.681  30.401  1.00  0.00     0.124 C
HETATM    4  C3  UNL     1       7.596   5.726  31.396  1.00  0.00     0.110 C
HETATM    5  N2  UNL     1       7.299   4.956  32.236  1.00  0.00    -0.191 NA
ENDROOT
BRANCH   3   6
HETATM    6  C4  UNL     1       7.412   7.005  29.305  1.00  0.00     0.037 C
BRANCH   6   7
HETATM    7  C5  UNL     1       7.847   7.152  27.972  1.00  0.00    -0.070 C
HETATM    8  C6  UNL     1       8.225   8.489  27.404  1.00  0.00     0.040 C
HETATM    9  C7  UNL     1       8.103   8.250  25.898  1.00  0.00    -0.001 C
HETATM   10  C8  UNL     1       8.222   6.749  25.792  1.00  0.00     0.017 C
HETATM   11  C9  UNL     1       7.095   6.457  26.861  1.00  0.00     0.055 C
BRANCH   9  12
HETATM   12  C12 UNL     1       6.610   8.408  25.633  1.00  0.00     0.048 C
HETATM   13  C10 UNL     1       6.521   8.680  24.151  1.00  0.00     0.138 C
HETATM   14  N3  UNL     1       6.284  10.129  24.459  1.00  0.00    -0.313 N
HETATM   15  C13 UNL     1       6.064   9.767  25.836  1.00  0.00     0.137 C
HETATM   16  C14 UNL     1       6.259  11.345  23.752  1.00  0.00     0.319 C
HETATM   17  O3  UNL     1       6.024  12.428  24.362  1.00  0.00    -0.247 OA
HETATM   18  N4  UNL     1       6.485  11.459  22.361  1.00  0.00    -0.343 N
ATOM     19  H4  UNL     1       6.678  10.599  21.846  1.00  0.00     0.164 HD
BRANCH  13  20
HETATM   20  C11 UNL     1       5.344   8.132  23.446  1.00  0.00     0.204 C
HETATM   21  O1  UNL     1       4.647   7.266  23.945  1.00  0.00    -0.646 OA
HETATM   22  O2  UNL     1       4.978   8.585  22.171  1.00  0.00    -0.646 OA
ENDBRANCH  13  20
BRANCH  18  23
HETATM   23  C15 UNL     1       6.467  12.669  21.618  1.00  0.00     0.129 C
BRANCH  23  24
HETATM   24  C16 UNL     1       7.715  12.943  20.816  1.00  0.00     0.003 C
HETATM   25  C17 UNL     1       7.470  12.698  19.332  1.00  0.00     0.007 C
HETATM   26  C18 UNL     1       8.729  13.000  18.571  1.00  0.00     0.007 C
HETATM   27  C19 UNL     1       9.282  14.363  18.838  1.00  0.00     0.006 C
HETATM   28  C21 UNL     1       8.278  15.119  19.695  1.00  0.00     0.007 C
HETATM   29  C22 UNL     1       8.068  14.399  20.992  1.00  0.00     0.007 C
BRANCH  27  30
HETATM   30  C20 UNL     1      10.626  14.275  19.546  1.00  0.00     0.160 C
BRANCH  30  31
HETATM   31  N5  UNL     1      11.476  13.406  18.755  1.00  0.00    -0.252 N
ATOM     32  H5  UNL     1      11.045  12.867  18.003  1.00  0.00     0.196 HD
BRANCH  31  33
HETATM   33  N6  UNL     1      12.679  13.281  18.936  1.00  0.00    -0.249 NA
BRANCH  33  34
HETATM   34  N7  UNL     1      13.854  12.956  18.995  1.00  0.00    -0.261 N
ATOM     35  H72 UNL     1      14.094  13.900  19.299  1.00  0.00     0.193 HD
ATOM     36  H71 UNL     1      14.770  12.509  18.985  1.00  0.00     0.193 HD
ENDBRANCH  33  34
ENDBRANCH  31  33
ENDBRANCH  30  31
ENDBRANCH  27  30
ENDBRANCH  23  24
ENDBRANCH  18  23
ENDBRANCH   9  12
ENDBRANCH   6   7
ENDBRANCH   3   6
TORSDOF 11
ENDMDL