MODEL 1
REMARK VINA RESULT: -8.762242403      0.000      0.000
REMARK  6 active torsions:
REMARK  status: ('A' for Active; 'I' for Inactive)
REMARK    1  A    between atoms: O1_2  and  C2_3
REMARK    2  A    between atoms: C2_3  and  C3_4
REMARK    3  A    between atoms: C3_4  and  C4_5
REMARK    4  A    between atoms: C4_5  and  C5_6
REMARK       I    between atoms: C5_6  and  N1_8
REMARK    5  A    between atoms: N1_8  and  C6_10
REMARK    6  A    between atoms: C6_10  and  C7_11
ROOT
HETATM    1  C2  UNL     1       6.725   7.367  24.628  1.00  0.00     0.068 C
HETATM    2  C10 UNL     1       5.403   7.622  25.322  1.00  0.00     0.039 C
HETATM    3  C11 UNL     1       4.680   8.711  24.535  1.00  0.00     0.009 C
HETATM    4  C12 UNL     1       5.714   9.162  23.548  1.00  0.00     0.002 C
HETATM    5  C13 UNL     1       5.131   9.713  22.283  1.00  0.00     0.000 C
HETATM    6  C14 UNL     1       5.904   9.434  21.041  1.00  0.00    -0.001 C
HETATM    7  C15 UNL     1       7.306   9.032  21.232  1.00  0.00     0.007 C
HETATM    8  C16 UNL     1       7.513   7.953  22.285  1.00  0.00     0.013 C
HETATM    9  C17 UNL     1       6.386   7.827  23.234  1.00  0.00    -0.009 C
HETATM   10  C18 UNL     1       5.347   6.883  22.660  1.00  0.00     0.019 C
HETATM   11  C19 UNL     1       5.620  10.839  20.593  1.00  0.00    -0.035 C
HETATM   12  C20 UNL     1       4.330  10.933  19.760  1.00  0.00     0.016 C
HETATM   13  C21 UNL     1       6.692  11.614  19.959  1.00  0.00     0.017 C
HETATM   14  C22 UNL     1       6.685  13.062  20.463  1.00  0.00     0.079 C
HETATM   15  C23 UNL     1       6.886  13.078  21.927  1.00  0.00     0.127 C
HETATM   16  O4  UNL     1       7.470  14.000  22.445  1.00  0.00    -0.298 OA
HETATM   17  C24 UNL     1       6.353  11.939  22.722  1.00  0.00     0.084 C
HETATM   18  C25 UNL     1       5.301  11.178  22.025  1.00  0.00     0.006 C
ENDROOT
BRANCH   1  19
HETATM   19  O1  UNL     1       7.239   6.155  24.676  1.00  0.00    -0.384 OA
HETATM   20  C1  UNL     1       6.912   5.042  25.258  1.00  0.00     0.202 C
ENDBRANCH   1  19
BRANCH   1  21
HETATM   21  C3  UNL     1       7.817   8.268  25.255  1.00  0.00     0.048 C
BRANCH  21  22
HETATM   22  C4  UNL     1       7.513   8.498  26.734  1.00  0.00     0.106 C
BRANCH  22  23
HETATM   23  C5  UNL     1       8.613   7.910  27.526  1.00  0.00     0.217 C
HETATM   24  O2  UNL     1       9.370   7.049  27.034  1.00  0.00    -0.274 OA
HETATM   25  N1  UNL     1       8.809   8.328  28.858  1.00  0.00    -0.357 N
ATOM     26  H1  UNL     1       8.183   9.033  29.248  1.00  0.00     0.162 HD
BRANCH  25  27
HETATM   27  C6  UNL     1       9.867   7.795  29.700  1.00  0.00     0.183 C
BRANCH  27  28
HETATM   28  C7  UNL     1       9.339   7.056  30.909  1.00  0.00     0.338 C
HETATM   29  N2  UNL     1       7.891   6.978  30.739  1.00  0.00    -0.045 N
HETATM   30  C8  UNL     1       7.549   5.804  31.481  1.00  0.00     0.261 C
ATOM     31  H22 UNL     1       7.382   7.819  31.012  1.00  0.00     0.280 HD
ATOM     32  H21 UNL     1       7.573   6.979  29.770  1.00  0.00     0.280 HD
HETATM   33  C9  UNL     1       8.825   5.024  31.561  1.00  0.00     0.198 C
HETATM   34  O3  UNL     1       9.774   5.732  30.824  1.00  0.00    -0.356 OA
ENDBRANCH  27  28
ENDBRANCH  25  27
ENDBRANCH  22  23
ENDBRANCH  21  22
ENDBRANCH   1  21
TORSDOF 6
ENDMDL