MODEL 1
REMARK VINA RESULT: -7.494602195      0.000      0.000
REMARK  6 active torsions:
REMARK  status: ('A' for Active; 'I' for Inactive)
REMARK    1  A    between atoms: C4_4  and  N1_5
REMARK    2  A    between atoms: N1_5  and  C5_6
REMARK    3  A    between atoms: N1_5  and  S1_32
REMARK    4  A    between atoms: C6_7  and  C7_8
REMARK    5  A    between atoms: N2_9  and  O1_11
REMARK    6  A    between atoms: C10_19  and  C11_20
ROOT
HETATM    1  C1  UNL     1       4.983   4.771  19.951  1.00  0.00     0.017 C
HETATM    2  C2  UNL     1       4.992   5.974  19.952  1.00  0.00    -0.088 C
HETATM    3  C3  UNL     1       4.995   7.421  19.923  1.00  0.00     0.082 C
HETATM    4  C4  UNL     1       5.076   8.112  21.182  1.00  0.00     0.118 C
ENDROOT
BRANCH   4   5
HETATM    5  N1  UNL     1       6.122   8.177  22.125  1.00  0.00    -0.249 N
BRANCH   5   6
HETATM    6  C5  UNL     1       6.004   8.174  23.530  1.00  0.00     0.076 A
HETATM    7  C6  UNL     1       5.791   9.237  24.333  1.00  0.00     0.025 A
HETATM    8  C8  UNL     1       5.599   8.930  25.705  1.00  0.00     0.105 A
HETATM    9  N3  UNL     1       5.629   7.685  26.176  1.00  0.00    -0.351 N
HETATM   10  C9  UNL     1       5.842   6.616  25.394  1.00  0.00     0.118 A
ATOM     11  H3  UNL     1       5.484   7.538  27.174  1.00  0.00     0.166 HD
HETATM   12  N4  UNL     1       5.977   5.268  25.619  1.00  0.00    -0.344 N
HETATM   13  C22 UNL     1       6.032   6.856  24.059  1.00  0.00     0.039 A
HETATM   14  C10 UNL     1       6.250   4.635  24.462  1.00  0.00     0.020 A
ATOM     15  H4  UNL     1       5.885   4.813  26.529  1.00  0.00     0.167 HD
HETATM   16  C21 UNL     1       6.280   5.641  23.499  1.00  0.00     0.043 A
BRANCH   7  17
HETATM   17  C7  UNL     1       5.779  10.612  23.915  1.00  0.00     0.129 C
HETATM   18  N2  UNL     1       5.911  11.597  24.627  1.00  0.00    -0.280 N
ATOM     19  H2  UNL     1       6.038  11.343  25.606  1.00  0.00     0.193 HD
BRANCH  18  20
HETATM   20  O1  UNL     1       5.932  12.928  24.451  1.00  0.00    -0.290 OA
ATOM     21  H1  UNL     1       5.915  13.697  25.009  1.00  0.00     0.244 HD
ENDBRANCH  18  20
ENDBRANCH   7  17
BRANCH  14  22
HETATM   22  C11 UNL     1       6.541   3.185  24.209  1.00  0.00     0.003 C
HETATM   23  C12 UNL     1       5.655   2.674  23.111  1.00  0.00     0.020 C
HETATM   24  C13 UNL     1       5.786   1.198  22.922  1.00  0.00    -0.013 C
HETATM   25  C14 UNL     1       5.398   0.481  24.212  1.00  0.00     0.009 C
HETATM   26  C18 UNL     1       7.231   0.878  22.614  1.00  0.00     0.009 C
HETATM   27  C15 UNL     1       6.319   0.964  25.289  1.00  0.00    -0.013 C
HETATM   28  C16 UNL     1       7.786   0.717  24.974  1.00  0.00     0.009 C
HETATM   29  C20 UNL     1       6.164   2.428  25.494  1.00  0.00     0.020 C
HETATM   30  C17 UNL     1       8.120   1.410  23.693  1.00  0.00    -0.013 C
HETATM   31  C19 UNL     1       7.970   2.924  23.846  1.00  0.00     0.020 C
ENDBRANCH  14  22
ENDBRANCH   5   6
BRANCH   5  32
HETATM   32  S1  UNL     1       7.713   8.590  21.481  1.00  0.00     0.233 S
HETATM   33  C23 UNL     1       7.552   9.940  20.284  1.00  0.00     0.186 C
HETATM   34  O2  UNL     1       8.284   7.425  20.708  1.00  0.00    -0.206 OA
HETATM   35  O3  UNL     1       8.662   9.119  22.491  1.00  0.00    -0.206 OA
ENDBRANCH   5  32
ENDBRANCH   4   5
TORSDOF 6
ENDMDL