MODEL 5
REMARK VINA RESULT: -6.150146423      1.513      2.034
REMARK  6 active torsions:
REMARK  status: ('A' for Active; 'I' for Inactive)
REMARK    1  A    between atoms: N1_2  and  C3_4
REMARK    2  A    between atoms: C3_4  and  C4_5
REMARK    3  A    between atoms: C4_5  and  C5_6
REMARK    4  A    between atoms: C13_14  and  C14_15
REMARK    5  A    between atoms: C14_15  and  O1_16
REMARK    6  A    between atoms: C22_27  and  C23_28
ROOT
HETATM    1  C5  UNL     1       7.008   8.428  23.336  1.00  0.00    -0.034 C
HETATM    2  C6  UNL     1       5.952   9.662  22.873  1.00  0.00     0.037 C
HETATM    3  C7  UNL     1       4.936   8.589  22.507  1.00  0.00    -0.022 C
HETATM    4  C8  UNL     1       5.595   7.690  21.815  1.00  0.00    -0.063 C
HETATM    5  C9  UNL     1       5.238   6.377  21.316  1.00  0.00     0.044 C
HETATM    6  C10 UNL     1       6.135   5.908  22.731  1.00  0.00     0.019 C
HETATM    7  C11 UNL     1       6.347   7.171  23.528  1.00  0.00     0.019 C
HETATM    8  C12 UNL     1       7.318   5.277  22.296  1.00  0.00    -0.072 C
HETATM    9  C13 UNL     1       7.680   4.324  23.179  1.00  0.00     0.002 C
HETATM   10  C15 UNL     1       8.341   5.241  21.199  1.00  0.00     0.032 C
HETATM   11  C16 UNL     1       8.345   3.816  20.687  1.00  0.00     0.018 C
HETATM   12  C17 UNL     1       7.905   3.934  19.280  1.00  0.00     0.080 C
HETATM   13  C18 UNL     1       8.258   5.311  18.903  1.00  0.00     0.137 C
HETATM   14  O2  UNL     1       8.465   5.633  17.748  1.00  0.00    -0.297 OA
HETATM   15  C19 UNL     1       8.312   6.199  20.147  1.00  0.00     0.039 C
HETATM   16  C20 UNL     1       9.715   6.818  19.981  1.00  0.00     0.025 C
HETATM   17  C21 UNL     1       7.317   7.227  19.945  1.00  0.00     0.098 C
HETATM   18  S1  UNL     1       8.031   8.175  18.483  1.00  0.00    -0.089 SA
HETATM   19  C22 UNL     1       6.871   8.191  20.992  1.00  0.00     0.086 C
HETATM   20  C24 UNL     1       7.851   8.541  22.028  1.00  0.00     0.036 C
ENDROOT
BRANCH   1  21
HETATM   21  C4  UNL     1       7.649   8.975  24.509  1.00  0.00     0.040 C
BRANCH  21  22
HETATM   22  C3  UNL     1       7.828   8.038  25.666  1.00  0.00     0.272 C
BRANCH  22  23
HETATM   23  N1  UNL     1       7.576   8.819  26.882  1.00  0.00     0.080 N
HETATM   24  C1  UNL     1       8.358   8.148  27.931  1.00  0.00     0.309 C
HETATM   25  C2  UNL     1       6.166   8.751  27.215  1.00  0.00     0.309 C
ENDBRANCH  22  23
ENDBRANCH  21  22
ENDBRANCH   1  21
BRANCH  19  26
HETATM   26  C23 UNL     1       6.469   9.337  20.150  1.00  0.00     0.187 C
HETATM   27  O3  UNL     1       5.432   9.199  19.419  1.00  0.00    -0.647 OA
HETATM   28  O4  UNL     1       7.180  10.532  20.131  1.00  0.00    -0.647 OA
ENDBRANCH  19  26
BRANCH   9  29
HETATM   29  C14 UNL     1       7.012   3.937  24.409  1.00  0.00     0.191 C
BRANCH  29  30
HETATM   30  O1  UNL     1       7.746   2.826  24.917  1.00  0.00    -0.397 OA
ATOM     31  H1  UNL     1       7.367   2.058  24.507  1.00  0.00     0.209 HD
ENDBRANCH  29  30
ENDBRANCH   9  29
TORSDOF 6
ENDMDL