MODEL 3
REMARK VINA RESULT: -8.784705702      0.861      1.488
REMARK  8 active torsions:
REMARK  status: ('A' for Active; 'I' for Inactive)
REMARK    1  A    between atoms: N1_2  and  C2_4
REMARK    2  A    between atoms: C2_4  and  C6_10
REMARK    3  A    between atoms: N2_5  and  C3_7
REMARK    4  A    between atoms: N3_13  and  C9_14
REMARK    5  A    between atoms: C10_17  and  N5_18
REMARK    6  A    between atoms: N5_18  and  C11_20
REMARK    7  A    between atoms: C17_26  and  C18_27
REMARK    8  A    between atoms: C18_27  and  C19_29
ROOT
HETATM    1  C9  UNL     1       8.051   7.471  27.936  1.00  0.00     0.681 A
HETATM    2  N4  UNL     1       7.840   6.759  29.089  1.00  0.00    -0.176 N
ATOM      3  H4  UNL     1       6.910   6.377  29.258  1.00  0.00     0.186 HD
HETATM    4  C10 UNL     1       8.789   6.539  30.002  1.00  0.00     0.132 A
HETATM    5  C17 UNL     1      10.056   7.078  29.738  1.00  0.00     0.070 A
HETATM    6  C22 UNL     1      10.288   7.795  28.587  1.00  0.00     0.125 A
HETATM    7  N6  UNL     1       9.264   7.979  27.698  1.00  0.00    -0.201 N
ATOM      8  H6  UNL     1       9.429   8.509  26.843  1.00  0.00     0.183 HD
ENDROOT
BRANCH   1   9
HETATM    9  N3  UNL     1       6.999   7.663  27.017  1.00  0.00    -0.217 N
HETATM   10  C8  UNL     1       6.858   6.674  25.931  1.00  0.00     0.142 C
HETATM   11  C7  UNL     1       5.963   7.256  24.859  1.00  0.00     0.033 C
HETATM   12  C6  UNL     1       6.473   8.642  24.539  1.00  0.00     0.056 C
HETATM   13  C24 UNL     1       6.115   9.527  25.698  1.00  0.00     0.033 C
HETATM   14  C23 UNL     1       6.029   8.716  27.002  1.00  0.00     0.142 C
BRANCH  12  15
HETATM   15  C2  UNL     1       5.967   9.147  23.236  1.00  0.00     0.077 C
HETATM   16  N2  UNL     1       5.993   8.478  22.160  1.00  0.00    -0.376 N
ATOM     17  H2  UNL     1       6.391   7.541  22.233  1.00  0.00     0.161 HD
BRANCH  15  18
HETATM   18  N1  UNL     1       5.432  10.459  23.232  1.00  0.00    -0.384 N
HETATM   19  C1  UNL     1       6.204  11.653  22.955  1.00  0.00     0.147 C
ATOM     20  H1  UNL     1       4.439  10.570  23.437  1.00  0.00     0.160 HD
ENDBRANCH  15  18
BRANCH  16  21
HETATM   21  C3  UNL     1       5.542   8.857  20.866  1.00  0.00     0.074 C
HETATM   22  C4  UNL     1       6.599   9.423  19.971  1.00  0.00     0.031 C
HETATM   23  C5  UNL     1       4.881   7.704  20.098  1.00  0.00     0.031 C
ENDBRANCH  16  21
ENDBRANCH  12  15
ENDBRANCH   1   9
BRANCH   4  24
HETATM   24  N5  UNL     1       8.641   5.891  31.073  1.00  0.00    -0.370 N
ATOM     25  H5  UNL     1       9.167   6.258  31.867  1.00  0.00     0.161 HD
BRANCH  24  26
HETATM   26  C11 UNL     1       7.868   4.740  31.360  1.00  0.00     0.083 C
HETATM   27  C12 UNL     1       6.498   4.981  31.901  1.00  0.00     0.025 C
HETATM   28  C13 UNL     1       5.746   3.668  31.897  1.00  0.00     0.002 C
HETATM   29  C14 UNL     1       6.571   2.516  31.398  1.00  0.00     0.000 C
HETATM   30  C15 UNL     1       7.911   2.399  32.042  1.00  0.00     0.002 C
HETATM   31  C16 UNL     1       8.560   3.755  32.277  1.00  0.00     0.025 C
ENDBRANCH  24  26
ENDBRANCH   4  24
BRANCH   5  32
HETATM   32  C18 UNL     1      11.088   6.840  30.729  1.00  0.00     0.168 C
HETATM   33  O1  UNL     1      11.125   7.465  31.828  1.00  0.00    -0.292 OA
BRANCH  32  34
HETATM   34  C19 UNL     1      12.144   5.851  30.493  1.00  0.00     0.061 A
HETATM   35  C20 UNL     1      13.228   5.633  31.486  1.00  0.00     0.013 A
HETATM   36  C21 UNL     1      12.079   4.690  31.499  1.00  0.00     0.013 A
ENDBRANCH  32  34
ENDBRANCH   5  32
TORSDOF 8
ENDMDL