MODEL 3
REMARK VINA RESULT: -9.631036533      3.113      9.096
REMARK  6 active torsions:
REMARK  status: ('A' for Active; 'I' for Inactive)
REMARK    1  A    between atoms: C1_2  and  C2_3
REMARK       I    between atoms: C1_2  and  N2_16
REMARK    2  A    between atoms: C2_3  and  S1_4
REMARK    3  A    between atoms: S1_4  and  C3_5
REMARK    4  A    between atoms: C3_5  and  C4_6
REMARK       I    between atoms: C4_6  and  N1_8
REMARK    5  A    between atoms: N1_8  and  C5_10
REMARK    6  A    between atoms: C12_23  and  C13_24
ROOT
HETATM    1  O1  UNL     1       4.696   9.013  25.665  1.00  0.00    -0.272 OA
HETATM    2  C1  UNL     1       5.541   8.579  24.821  1.00  0.00     0.232 C
HETATM    3  N2  UNL     1       5.053   8.084  23.587  1.00  0.00    -0.305 N
ATOM      4  H2  UNL     1       4.582   8.681  22.909  1.00  0.00     0.171 HD
HETATM    5  C11 UNL     1       5.251   6.803  23.376  1.00  0.00     0.167 A
HETATM    6  N3  UNL     1       4.925   6.029  22.334  1.00  0.00    -0.279 N
ATOM      7  H3  UNL     1       4.428   6.422  21.535  1.00  0.00     0.189 HD
HETATM    8  N4  UNL     1       5.245   4.797  22.352  1.00  0.00    -0.295 N
ATOM      9  H4  UNL     1       5.000   4.200  21.562  1.00  0.00     0.187 HD
HETATM   10  C12 UNL     1       5.890   4.283  23.384  1.00  0.00     0.078 A
HETATM   11  S2  UNL     1       6.043   5.652  24.389  1.00  0.00    -0.037 SA
ENDROOT
BRANCH   2  12
HETATM   12  C2  UNL     1       6.950   8.599  25.137  1.00  0.00     0.177 C
BRANCH  12  13
HETATM   13  S1  UNL     1       7.328   8.342  26.860  1.00  0.00    -0.150 SA
BRANCH  13  14
HETATM   14  C3  UNL     1       9.026   8.030  27.183  1.00  0.00     0.177 C
BRANCH  14  15
HETATM   15  C4  UNL     1       9.388   7.260  28.387  1.00  0.00     0.227 C
HETATM   16  O2  UNL     1       8.535   6.695  29.066  1.00  0.00    -0.273 OA
HETATM   17  N1  UNL     1      10.754   7.210  28.725  1.00  0.00    -0.356 N
ATOM     18  H1  UNL     1      11.433   7.672  28.120  1.00  0.00     0.162 HD
BRANCH  17  19
HETATM   19  C5  UNL     1      11.225   6.516  29.915  1.00  0.00     0.084 C
HETATM   20  C6  UNL     1      10.896   7.353  31.159  1.00  0.00     0.025 C
HETATM   21  C7  UNL     1      11.959   7.185  32.218  1.00  0.00     0.002 C
HETATM   22  C8  UNL     1      12.416   5.735  32.292  1.00  0.00     0.000 C
HETATM   23  C9  UNL     1      13.060   5.300  30.989  1.00  0.00     0.002 C
HETATM   24  C10 UNL     1      12.735   6.282  29.883  1.00  0.00     0.025 C
ENDBRANCH  17  19
ENDBRANCH  14  15
ENDBRANCH  13  14
ENDBRANCH  12  13
ENDBRANCH   2  12
BRANCH  10  25
HETATM   25  C13 UNL     1       6.411   2.918  23.688  1.00  0.00     0.011 C
HETATM   26  C14 UNL     1       6.180   2.741  25.185  1.00  0.00     0.021 C
HETATM   27  C15 UNL     1       6.548   1.357  25.596  1.00  0.00    -0.013 C
HETATM   28  C16 UNL     1       7.974   1.005  25.284  1.00  0.00     0.009 C
HETATM   29  C20 UNL     1       5.661   0.397  24.799  1.00  0.00     0.009 C
HETATM   30  C17 UNL     1       8.239   1.350  23.836  1.00  0.00    -0.013 C
HETATM   31  C18 UNL     1       7.443   0.336  23.030  1.00  0.00     0.009 C
HETATM   32  C22 UNL     1       7.881   2.762  23.470  1.00  0.00     0.021 C
HETATM   33  C19 UNL     1       5.985   0.519  23.343  1.00  0.00    -0.013 C
HETATM   34  C21 UNL     1       5.608   1.915  22.901  1.00  0.00     0.021 C
ENDBRANCH  10  25
TORSDOF 6
ENDMDL