MODEL 5
REMARK VINA RESULT: -8.572996724      2.549      5.017
REMARK  7 active torsions:
REMARK  status: ('A' for Active; 'I' for Inactive)
REMARK    1  A    between atoms: C18_19  and  O2_20
REMARK    2  A    between atoms: C18_19  and  C19_22
REMARK    3  A    between atoms: C19_22  and  N1_23
REMARK    4  A    between atoms: N1_23  and  C20_24
REMARK    5  A    between atoms: N1_23  and  C22_27
REMARK    6  A    between atoms: C22_27  and  C23_28
REMARK    7  A    between atoms: C23_28  and  C24_29
ROOT
HETATM    1  C20 UNL     1       7.614   7.755  29.762  1.00  0.00     0.184 C
HETATM    2  C21 UNL     1       7.576   6.600  30.691  1.00  0.00     0.105 C
HETATM    3  N2  UNL     1       7.564   5.704  31.427  1.00  0.00    -0.191 NA
ENDROOT
BRANCH   1   4
HETATM    4  N1  UNL     1       8.105   7.424  28.501  1.00  0.00    -0.358 N
BRANCH   4   5
HETATM    5  C19 UNL     1       7.216   6.758  27.640  1.00  0.00     0.101 C
BRANCH   5   6
HETATM    6  C18 UNL     1       7.424   7.042  26.211  1.00  0.00     0.091 C
HETATM    7  C17 UNL     1       6.020   7.126  25.493  1.00  0.00     0.049 C
HETATM    8  C16 UNL     1       6.541   7.664  24.199  1.00  0.00     0.002 C
HETATM    9  C2  UNL     1       7.194   8.928  24.683  1.00  0.00    -0.037 C
HETATM   10  C6  UNL     1       5.572   7.789  23.097  1.00  0.00    -0.001 C
HETATM   11  C1  UNL     1       6.280   9.904  25.341  1.00  0.00     0.015 C
HETATM   12  C3  UNL     1       8.002   9.487  23.567  1.00  0.00     0.010 C
HETATM   13  C25 UNL     1       8.059   8.331  25.815  1.00  0.00     0.053 C
HETATM   14  C4  UNL     1       7.371   9.279  22.193  1.00  0.00     0.007 C
HETATM   15  C5  UNL     1       5.892   9.003  22.272  1.00  0.00     0.003 C
HETATM   16  C14 UNL     1       5.273   9.001  20.924  1.00  0.00    -0.016 C
HETATM   17  C9  UNL     1       5.064   7.695  20.291  1.00  0.00    -0.068 C
HETATM   18  C13 UNL     1       3.884   9.657  20.982  1.00  0.00     0.021 C
HETATM   19  C15 UNL     1       6.077   9.904  19.995  1.00  0.00     0.020 C
HETATM   20  C8  UNL     1       5.219   6.576  20.924  1.00  0.00    -0.022 C
HETATM   21  C10 UNL     1       4.639   7.685  18.867  1.00  0.00     0.113 C
HETATM   22  C7  UNL     1       5.632   6.509  22.318  1.00  0.00     0.033 C
HETATM   23  C11 UNL     1       3.334   8.437  18.858  1.00  0.00     0.130 C
HETATM   24  O1  UNL     1       2.437   8.000  18.183  1.00  0.00    -0.298 OA
HETATM   25  C12 UNL     1       3.194   9.654  19.653  1.00  0.00     0.079 C
BRANCH   6  26
HETATM   26  O2  UNL     1       8.006   5.937  25.556  1.00  0.00    -0.384 OA
ATOM     27  H2  UNL     1       7.502   5.218  25.917  1.00  0.00     0.211 HD
ENDBRANCH   6  26
ENDBRANCH   5   6
ENDBRANCH   4   5
BRANCH   4  28
HETATM   28  C22 UNL     1       9.485   7.106  28.352  1.00  0.00     0.138 C
BRANCH  28  29
HETATM   29  C23 UNL     1      10.351   7.830  29.365  1.00  0.00     0.133 C
BRANCH  29  30
HETATM   30  C24 UNL     1      11.387   6.853  29.829  1.00  0.00     0.174 C
HETATM   31  O3  UNL     1      12.621   7.026  29.678  1.00  0.00    -0.648 OA
HETATM   32  O4  UNL     1      10.999   5.663  30.476  1.00  0.00    -0.648 OA
ENDBRANCH  29  30
ENDBRANCH  28  29
ENDBRANCH   4  28
ENDBRANCH   1   4
TORSDOF 7
ENDMDL