MODEL 3
REMARK VINA RESULT: -7.653887799      1.158      1.593
REMARK  8 active torsions:
REMARK  status: ('A' for Active; 'I' for Inactive)
REMARK    1  A    between atoms: C3_3  and  C4_4
REMARK    2  A    between atoms: C4_4  and  C5_5
REMARK    3  A    between atoms: C7_8  and  O1_9
REMARK    4  A    between atoms: C9_12  and  O2_13
REMARK    5  A    between atoms: N1_19  and  C12_20
REMARK    6  A    between atoms: C12_20  and  C13_21
REMARK    7  A    between atoms: C13_21  and  C14_22
REMARK    8  A    between atoms: C14_22  and  N2_23
ROOT
HETATM    1  C1  UNL     1      -4.777  27.564  10.840  1.00  0.00     0.055 C
HETATM    2  C2  UNL     1      -3.479  27.003  11.293  1.00  0.00     0.022 C
HETATM    3  C3  UNL     1      -2.330  27.476  10.635  1.00  0.00     0.044 C
HETATM    4  C11 UNL     1      -1.040  27.138  10.956  1.00  0.00     0.262 C
HETATM    5  O3  UNL     1      -0.125  27.665  10.315  1.00  0.00    -0.267 OA
HETATM    6  N1  UNL     1      -0.535  26.286  11.898  1.00  0.00    -0.265 N
HETATM    7  C17 UNL     1      -1.201  25.646  12.863  1.00  0.00     0.334 C
HETATM    8  O4  UNL     1      -0.583  25.050  13.776  1.00  0.00    -0.246 OA
HETATM    9  N3  UNL     1      -2.552  25.515  13.041  1.00  0.00    -0.270 N
HETATM   10  C18 UNL     1      -3.005  24.667  14.131  1.00  0.00     0.164 C
HETATM   11  C19 UNL     1      -3.535  26.079  12.308  1.00  0.00     0.258 C
HETATM   12  O5  UNL     1      -4.715  25.713  12.579  1.00  0.00    -0.267 OA
ENDROOT
BRANCH   3  13
HETATM   13  C4  UNL     1      -2.635  28.375   9.542  1.00  0.00     0.032 C
BRANCH  13  14
HETATM   14  C5  UNL     1      -2.124  29.728   9.526  1.00  0.00     0.014 A
HETATM   15  C6  UNL     1      -1.126  30.092   8.648  1.00  0.00     0.079 A
HETATM   16 CL1  UNL     1      -0.518  28.866   7.524  1.00  0.00    -0.080 Cl
HETATM   17  C7  UNL     1      -0.597  31.350   8.614  1.00  0.00     0.091 A
HETATM   18  C8  UNL     1      -1.067  32.320   9.487  1.00  0.00     0.076 A
HETATM   19  C9  UNL     1      -2.055  31.981  10.363  1.00  0.00     0.091 A
HETATM   20  C10 UNL     1      -2.572  30.707  10.379  1.00  0.00     0.079 A
HETATM   21 CL2  UNL     1      -3.851  30.328  11.535  1.00  0.00    -0.080 Cl
BRANCH  17  22
HETATM   22  O1  UNL     1       0.405  31.723   7.735  1.00  0.00    -0.359 OA
ATOM     23  H1  UNL     1       1.226  32.107   8.019  1.00  0.00     0.217 HD
ENDBRANCH  17  22
BRANCH  19  24
HETATM   24  O2  UNL     1      -2.519  32.954  11.229  1.00  0.00    -0.359 OA
ATOM     25  H2  UNL     1      -3.346  33.376  11.025  1.00  0.00     0.217 HD
ENDBRANCH  19  24
ENDBRANCH  13  14
ENDBRANCH   3  13
BRANCH   6  26
HETATM   26  C12 UNL     1       0.856  26.035  11.790  1.00  0.00     0.139 C
BRANCH  26  27
HETATM   27  C13 UNL     1       1.324  24.760  11.209  1.00  0.00     0.050 C
BRANCH  27  28
HETATM   28  C14 UNL     1       1.533  24.686   9.742  1.00  0.00     0.273 C
BRANCH  28  29
HETATM   29  N2  UNL     1       2.909  24.974   9.358  1.00  0.00     0.080 N
HETATM   30  C15 UNL     1       3.505  23.987   8.521  1.00  0.00     0.309 C
HETATM   31  C16 UNL     1       3.097  26.294   8.822  1.00  0.00     0.309 C
ENDBRANCH  28  29
ENDBRANCH  27  28
ENDBRANCH  26  27
ENDBRANCH   6  26
TORSDOF 8
ENDMDL