MODEL 1
REMARK VINA RESULT: -8.508805578      0.000      0.000
REMARK  8 active torsions:
REMARK  status: ('A' for Active; 'I' for Inactive)
REMARK    1  A    between atoms: C2_2  and  O1_3
REMARK    2  A    between atoms: O1_3  and  C3_4
REMARK    3  A    between atoms: C3_4  and  C4_6
REMARK    4  A    between atoms: C8_13  and  N2_14
REMARK    5  A    between atoms: N2_14  and  N3_16
REMARK    6  A    between atoms: C9_18  and  C10_19
REMARK    7  A    between atoms: C9_18  and  C12_22
REMARK    8  A    between atoms: C12_22  and  C13_23
ROOT
HETATM    1  C10 UNL     1      -6.930  24.523  15.513  1.00  0.00     0.177 C
HETATM    2  C11 UNL     1      -7.820  24.587  14.382  1.00  0.00     0.065 C
HETATM    3  N4  UNL     1      -8.555  24.659  13.490  1.00  0.00    -0.197 NA
ENDROOT
BRANCH   1   4
HETATM    4  C9  UNL     1      -5.498  24.407  15.209  1.00  0.00     0.019 C
HETATM    5  N3  UNL     1      -5.098  24.971  14.098  1.00  0.00    -0.294 N
ATOM      6  H3  UNL     1      -5.795  25.447  13.526  1.00  0.00     0.186 HD
BRANCH   5   7
HETATM    7  N2  UNL     1      -3.799  24.963  13.655  1.00  0.00    -0.132 N
ATOM      8  H2  UNL     1      -3.120  24.305  14.037  1.00  0.00     0.205 HD
BRANCH   7   9
HETATM    9  C8  UNL     1      -3.454  25.822  12.728  1.00  0.00     0.703 A
HETATM   10  N1  UNL     1      -4.346  26.648  12.191  1.00  0.00    -0.154 N
HETATM   11  C7  UNL     1      -3.972  27.507  11.253  1.00  0.00     0.273 A
ATOM     12  H1  UNL     1      -5.317  26.621  12.500  1.00  0.00     0.187 HD
HETATM   13  C6  UNL     1      -2.650  27.517  10.859  1.00  0.00     0.079 A
HETATM   14  O3  UNL     1      -4.776  28.319  10.705  1.00  0.00    -0.267 OA
HETATM   15  C5  UNL     1      -2.267  28.413   9.882  1.00  0.00     0.044 A
HETATM   16  C15 UNL     1      -1.716  26.635  11.436  1.00  0.00     0.143 A
HETATM   17  C4  UNL     1      -0.972  28.440   9.477  1.00  0.00     0.108 A
HETATM   18  C17 UNL     1      -0.094  27.569  10.060  1.00  0.00     0.265 A
HETATM   19  N6  UNL     1      -0.431  26.654  11.041  1.00  0.00    -0.302 N
HETATM   20  O4  UNL     1       1.127  27.564   9.708  1.00  0.00    -0.267 OA
HETATM   21  C16 UNL     1       0.545  25.789  11.585  1.00  0.00     0.161 C
HETATM   22  N5  UNL     1      -2.119  25.770  12.388  1.00  0.00    -0.170 N
HETATM   23  C14 UNL     1      -1.238  24.865  13.008  1.00  0.00     0.177 C
BRANCH  17  24
HETATM   24  C3  UNL     1      -0.497  29.365   8.445  1.00  0.00     0.298 C
HETATM   25  O2  UNL     1      -0.307  28.959   7.270  1.00  0.00    -0.259 OA
BRANCH  24  26
HETATM   26  O1  UNL     1      -0.235  30.692   8.687  1.00  0.00    -0.318 OA
BRANCH  26  27
HETATM   27  C2  UNL     1      -1.158  31.727   8.736  1.00  0.00     0.174 C
HETATM   28  C1  UNL     1      -1.642  32.115  10.078  1.00  0.00     0.034 C
ENDBRANCH  26  27
ENDBRANCH  24  26
ENDBRANCH  17  24
ENDBRANCH   7   9
ENDBRANCH   5   7
BRANCH   4  29
HETATM   29  C12 UNL     1      -4.574  23.700  16.097  1.00  0.00     0.091 C
BRANCH  29  30
HETATM   30  C13 UNL     1      -4.525  22.211  15.970  1.00  0.00     0.183 C
HETATM   31 CL1  UNL     1      -3.192  21.698  14.882  1.00  0.00    -0.108 Cl
HETATM   32 CL2  UNL     1      -4.089  21.496  17.577  1.00  0.00    -0.108 Cl
ENDBRANCH  29  30
ENDBRANCH   4  29
ENDBRANCH   1   4
TORSDOF 8
ENDMDL