MODEL 1
REMARK VINA RESULT: -7.905937806      0.000      0.000
REMARK  7 active torsions:
REMARK  status: ('A' for Active; 'I' for Inactive)
REMARK    1  A    between atoms: C1_2  and  C2_3
REMARK       I    between atoms: C1_2  and  N5_20
REMARK    2  A    between atoms: C2_3  and  N1_4
REMARK    3  A    between atoms: N1_4  and  C3_5
REMARK    4  A    between atoms: N1_4  and  C7_14
REMARK    5  A    between atoms: C4_6  and  N2_7
REMARK    6  A    between atoms: C9_17  and  O3_18
REMARK    7  A    between atoms: N5_20  and  C10_22
ROOT
HETATM    1  C2  UNL     1      -6.380  23.840  15.001  1.00  0.00     0.198 C
ENDROOT
BRANCH   1   2
HETATM    2  C1  UNL     1      -5.784  24.942  14.203  1.00  0.00     0.236 C
HETATM    3  O1  UNL     1      -6.504  25.898  13.859  1.00  0.00    -0.272 OA
HETATM    4  N5  UNL     1      -4.444  24.892  13.854  1.00  0.00    -0.306 N
ATOM      5  H5  UNL     1      -3.876  24.251  14.407  1.00  0.00     0.171 HD
BRANCH   4   6
HETATM    6  C10 UNL     1      -3.812  25.533  12.939  1.00  0.00     0.152 A
HETATM    7  N6  UNL     1      -4.016  26.686  12.315  1.00  0.00    -0.334 N
HETATM    8  C11 UNL     1      -3.153  27.079  11.400  1.00  0.00     0.073 A
ATOM      9  H6  UNL     1      -4.829  27.260  12.540  1.00  0.00     0.168 HD
HETATM   10  C12 UNL     1      -3.207  28.267  10.640  1.00  0.00     0.063 A
HETATM   11  C16 UNL     1      -2.085  26.268  11.143  1.00  0.00     0.038 A
HETATM   12 CL1  UNL     1      -4.505  29.436  10.827  1.00  0.00    -0.082 Cl
HETATM   13  C13 UNL     1      -2.226  28.528   9.726  1.00  0.00     0.050 A
HETATM   14  C14 UNL     1      -1.145  27.722   9.457  1.00  0.00     0.037 A
HETATM   15 CL2  UNL     1       0.073  28.121   8.271  1.00  0.00    -0.084 Cl
HETATM   16  C15 UNL     1      -1.095  26.562  10.199  1.00  0.00     0.045 A
HETATM   17  S1  UNL     1      -2.364  24.968  12.230  1.00  0.00    -0.052 SA
ENDBRANCH   4   6
ENDBRANCH   1   2
BRANCH   1  18
HETATM   18  N1  UNL     1      -5.621  23.689  16.222  1.00  0.00    -0.271 NA
BRANCH  18  19
HETATM   19  C3  UNL     1      -6.393  23.784  17.413  1.00  0.00     0.080 C
HETATM   20  C4  UNL     1      -6.288  24.880  18.354  1.00  0.00     0.129 C
BRANCH  20  21
HETATM   21  N2  UNL     1      -6.533  26.194  17.884  1.00  0.00    -0.261 N
HETATM   22  C5  UNL     1      -5.955  27.366  18.235  1.00  0.00     0.207 A
HETATM   23  N3  UNL     1      -6.524  28.329  17.523  1.00  0.00    -0.346 N
HETATM   24  C6  UNL     1      -7.453  27.782  16.727  1.00  0.00     0.198 A
ATOM     25  H3  UNL     1      -6.293  29.321  17.572  1.00  0.00     0.167 HD
HETATM   26  N4  UNL     1      -7.436  26.482  16.970  1.00  0.00    -0.289 N
ATOM     27  H4  UNL     1      -8.039  25.797  16.512  1.00  0.00     0.188 HD
ENDBRANCH  20  21
ENDBRANCH  18  19
BRANCH  18  28
HETATM   28  C7  UNL     1      -4.950  22.420  16.101  1.00  0.00     0.142 C
HETATM   29  C8  UNL     1      -4.846  21.587  17.358  1.00  0.00     0.196 C
HETATM   30  O2  UNL     1      -3.494  21.997  17.456  1.00  0.00    -0.358 OA
HETATM   31  C9  UNL     1      -3.520  22.227  16.090  1.00  0.00     0.276 C
BRANCH  31  32
HETATM   32  O3  UNL     1      -2.649  23.145  15.561  1.00  0.00    -0.370 OA
ATOM     33  H3  UNL     1      -1.719  23.148  15.758  1.00  0.00     0.212 HD
ENDBRANCH  31  32
ENDBRANCH  18  28
ENDBRANCH   1  18
TORSDOF 7
ENDMDL