MODEL 2
REMARK VINA RESULT: -6.912022403      1.302      1.406
REMARK  7 active torsions:
REMARK  status: ('A' for Active; 'I' for Inactive)
REMARK    1  A    between atoms: C2_2  and  C9_21
REMARK    2  A    between atoms: N1_3  and  O1_5
REMARK    3  A    between atoms: O1_5  and  C3_6
REMARK    4  A    between atoms: C3_6  and  O2_7
REMARK    5  A    between atoms: C3_6  and  C4_9
REMARK    6  A    between atoms: C4_9  and  N2_10
REMARK    7  A    between atoms: C6_12  and  C7_13
ROOT
HETATM    1  C3  UNL     1      -0.890  26.963  11.785  1.00  0.00     0.305 C
ENDROOT
BRANCH   1   2
HETATM    2  O1  UNL     1      -1.139  27.912  10.777  1.00  0.00    -0.246 OA
BRANCH   2   3
HETATM    3  N1  UNL     1      -2.386  28.164  10.354  1.00  0.00    -0.267 N
HETATM    4  C2  UNL     1      -2.899  29.204   9.848  1.00  0.00     0.046 C
HETATM    5  C1  UNL     1      -4.334  29.164   9.477  1.00  0.00     0.071 C
ATOM      6  H1  UNL     1      -3.032  27.381  10.458  1.00  0.00     0.194 HD
BRANCH   4   7
HETATM    7  C9  UNL     1      -2.134  30.398   9.625  1.00  0.00     0.082 A
HETATM    8  C10 UNL     1      -1.192  30.705   8.662  1.00  0.00     0.186 A
HETATM    9  O3  UNL     1      -0.776  31.946   8.885  1.00  0.00    -0.246 OA
HETATM   10  N5  UNL     1      -1.369  32.447   9.896  1.00  0.00    -0.225 N
HETATM   11  C11 UNL     1      -2.215  31.550  10.398  1.00  0.00     0.279 A
ATOM     12  H5  UNL     1      -1.217  33.387  10.263  1.00  0.00     0.198 HD
HETATM   13  O4  UNL     1      -2.983  31.673  11.400  1.00  0.00    -0.265 OA
ENDBRANCH   4   7
ENDBRANCH   2   3
ENDBRANCH   1   2
BRANCH   1  14
HETATM   14  O2  UNL     1      -0.114  27.571  12.768  1.00  0.00    -0.367 OA
ATOM     15  H2  UNL     1      -0.399  27.243  13.613  1.00  0.00     0.212 HD
ENDBRANCH   1  14
BRANCH   1  16
HETATM   16  C4  UNL     1      -0.199  25.774  11.176  1.00  0.00     0.212 C
BRANCH  16  17
HETATM   17  N2  UNL     1       1.068  26.087  10.589  1.00  0.00    -0.282 N
HETATM   18  C5  UNL     1       1.457  25.915   9.334  1.00  0.00     0.142 A
HETATM   19  C6  UNL     1       2.771  26.358   9.183  1.00  0.00     0.068 A
HETATM   20  N3  UNL     1       3.121  26.796  10.421  1.00  0.00    -0.285 N
HETATM   21  N4  UNL     1       2.082  26.622  11.241  1.00  0.00    -0.240 N
ATOM     22  H3  UNL     1       4.024  27.191  10.680  1.00  0.00     0.188 HD
ATOM     23  H4  UNL     1       2.074  26.867  12.230  1.00  0.00     0.208 HD
BRANCH  19  24
HETATM   24  C7  UNL     1       3.578  26.346   7.970  1.00  0.00     0.059 C
HETATM   25  C8  UNL     1       3.507  27.379   7.149  1.00  0.00     0.059 C
HETATM   26 BR1  UNL     1       4.556  27.395   5.547  1.00  0.00    -0.043 Br
HETATM   27 BR2  UNL     1       2.352  28.864   7.555  1.00  0.00    -0.043 Br
ENDBRANCH  19  24
ENDBRANCH  16  17
ENDBRANCH   1  16
TORSDOF 7
ENDMDL