MODEL 1
REMARK VINA RESULT: -8.295150344      0.000      0.000
REMARK  8 active torsions:
REMARK  status: ('A' for Active; 'I' for Inactive)
REMARK    1  A    between atoms: C3_3  and  C4_4
REMARK    2  A    between atoms: C4_4  and  N1_5
REMARK    3  A    between atoms: N3_13  and  C10_14
REMARK    4  A    between atoms: C13_18  and  O2_19
REMARK    5  A    between atoms: C15_22  and  C16_23
REMARK    6  A    between atoms: C16_23  and  O3_25
REMARK    7  A    between atoms: N4_28  and  C19_29
REMARK    8  A    between atoms: C19_29  and  C20_30
ROOT
HETATM    1  C1  UNL     1      -3.526  24.337  11.448  1.00  0.00     0.112 C
HETATM    2  C2  UNL     1      -2.167  24.616  11.917  1.00  0.00    -0.109 C
HETATM    3  C3  UNL     1      -1.063  24.847  12.322  1.00  0.00    -0.087 C
ENDROOT
BRANCH   3   4
HETATM    4  C4  UNL     1       0.273  25.141  12.837  1.00  0.00     0.223 C
BRANCH   4   5
HETATM    5  N1  UNL     1       1.171  25.272  11.708  1.00  0.00    -0.326 N
HETATM    6  C5  UNL     1       2.135  24.433  11.282  1.00  0.00     0.186 A
HETATM    7  N2  UNL     1       2.740  24.937  10.197  1.00  0.00    -0.336 N
HETATM    8  C6  UNL     1       2.184  26.116   9.889  1.00  0.00     0.139 A
ATOM      9  H2  UNL     1       3.503  24.492   9.687  1.00  0.00     0.168 HD
HETATM   10  C7  UNL     1       1.207  26.316  10.838  1.00  0.00     0.118 A
HETATM   11  N3  UNL     1       2.247  27.119   9.019  1.00  0.00    -0.324 N
HETATM   12  C8  UNL     1       0.637  27.531  10.518  1.00  0.00     0.147 A
HETATM   13  C9  UNL     1       1.291  27.999   9.403  1.00  0.00     0.067 A
HETATM   14  O4  UNL     1      -0.350  28.446  10.908  1.00  0.00    -0.257 OA
HETATM   15  C18 UNL     1       0.644  29.316   9.084  1.00  0.00     0.181 C
HETATM   16  N4  UNL     1      -0.537  29.324   9.879  1.00  0.00    -0.179 NA
BRANCH  16  17
HETATM   17  C19 UNL     1      -0.853  30.662  10.298  1.00  0.00     0.200 C
BRANCH  17  18
HETATM   18  C20 UNL     1      -1.978  31.213   9.478  1.00  0.00     0.253 C
HETATM   19  C21 UNL     1      -3.004  30.126   9.226  1.00  0.00     0.091 C
HETATM   20  F1  UNL     1      -2.552  32.232  10.257  1.00  0.00    -0.205 F
HETATM   21  F2  UNL     1      -1.623  31.786   8.301  1.00  0.00    -0.205 F
ENDBRANCH  17  18
ENDBRANCH  16  17
BRANCH  11  22
HETATM   22  C10 UNL     1       3.081  27.361   7.888  1.00  0.00     0.122 C
HETATM   23  C11 UNL     1       4.153  28.390   8.081  1.00  0.00     0.194 C
HETATM   24  O1  UNL     1       5.134  28.300   7.094  1.00  0.00    -0.381 OA
HETATM   25  C12 UNL     1       5.502  27.002   6.834  1.00  0.00     0.157 C
HETATM   26  C13 UNL     1       4.335  26.347   6.089  1.00  0.00     0.154 C
HETATM   27  C15 UNL     1       5.140  26.058   7.988  1.00  0.00     0.054 C
HETATM   28  C14 UNL     1       3.740  26.082   7.470  1.00  0.00     0.051 C
BRANCH  26  29
HETATM   29  O2  UNL     1       3.600  27.245   5.311  1.00  0.00    -0.393 OA
ATOM     30  H2  UNL     1       4.034  27.485   4.501  1.00  0.00     0.210 HD
ENDBRANCH  26  29
BRANCH  27  31
HETATM   31  C16 UNL     1       5.902  24.761   7.820  1.00  0.00     0.121 C
HETATM   32  C17 UNL     1       7.349  25.049   8.241  1.00  0.00     0.040 C
BRANCH  31  33
HETATM   33  O3  UNL     1       5.377  23.807   8.688  1.00  0.00    -0.395 OA
ATOM     34  H3  UNL     1       5.015  23.089   8.181  1.00  0.00     0.210 HD
ENDBRANCH  31  33
ENDBRANCH  27  31
ENDBRANCH  11  22
ENDBRANCH   4   5
ENDBRANCH   3   4
TORSDOF 8
ENDMDL