MODEL 4
REMARK VINA RESULT: -7.409768822      1.028      1.063
REMARK  10 active torsions:
REMARK  status: ('A' for Active; 'I' for Inactive)
REMARK    1  A    between atoms: N1_2  and  C3_4
REMARK    2  A    between atoms: C3_4  and  C4_5
REMARK    3  A    between atoms: N2_7  and  C6_8
REMARK    4  A    between atoms: C6_8  and  C7_9
REMARK    5  A    between atoms: C7_9  and  C8_10
REMARK    6  A    between atoms: C8_10  and  O1_11
REMARK    7  A    between atoms: C10_14  and  N3_15
REMARK    8  A    between atoms: C14_20  and  C15_21
REMARK    9  A    between atoms: C16_22  and  C17_23
REMARK   10  A    between atoms: C18_25  and  O2_26
ROOT
HETATM    1  C7  UNL     1      -0.754  25.017  10.904  1.00  0.00     0.103 C
HETATM    2  C9  UNL     1       0.529  25.073  10.172  1.00  0.00     0.070 C
HETATM    3  C10 UNL     1       0.764  26.371   9.425  1.00  0.00     0.125 C
HETATM    4  C18 UNL     1       0.541  27.454  10.440  1.00  0.00     0.175 C
HETATM    5  C19 UNL     1      -0.905  27.373  10.870  1.00  0.00     0.082 C
HETATM    6  C20 UNL     1      -1.822  28.010   9.846  1.00  0.00     0.048 C
HETATM    7  C21 UNL     1      -0.976  28.329  12.084  1.00  0.00     0.048 C
HETATM    8  O3  UNL     1      -1.300  26.175  11.319  1.00  0.00    -0.363 OA
ENDROOT
BRANCH   1   9
HETATM    9  C6  UNL     1      -0.622  24.128  12.122  1.00  0.00     0.190 C
BRANCH   9  10
HETATM   10  N2  UNL     1      -1.465  24.465  13.216  1.00  0.00    -0.284 N
HETATM   11  C5  UNL     1      -2.591  23.802  13.524  1.00  0.00     0.140 A
HETATM   12  C4  UNL     1      -3.180  24.383  14.638  1.00  0.00     0.072 A
HETATM   13  N5  UNL     1      -2.366  25.395  14.965  1.00  0.00    -0.287 N
HETATM   14  N4  UNL     1      -1.372  25.425  14.124  1.00  0.00    -0.241 N
ATOM     15  H5  UNL     1      -2.501  26.037  15.746  1.00  0.00     0.188 HD
ATOM     16  H4  UNL     1      -0.614  26.106  14.160  1.00  0.00     0.208 HD
BRANCH  12  17
HETATM   17  C3  UNL     1      -4.435  23.977  15.323  1.00  0.00     0.331 C
BRANCH  17  18
HETATM   18  N1  UNL     1      -4.185  23.158  16.468  1.00  0.00     0.085 N
HETATM   19  C1  UNL     1      -4.489  21.786  16.202  1.00  0.00     0.309 C
HETATM   20  C2  UNL     1      -4.833  23.632  17.662  1.00  0.00     0.309 C
ENDBRANCH  17  18
ENDBRANCH  12  17
ENDBRANCH   9  10
ENDBRANCH   1   9
BRANCH   1  21
HETATM   21  C8  UNL     1      -1.799  24.314  10.021  1.00  0.00     0.204 C
BRANCH  21  22
HETATM   22  O1  UNL     1      -1.816  22.949  10.206  1.00  0.00    -0.398 OA
ATOM     23  H1  UNL     1      -0.995  22.538   9.961  1.00  0.00     0.209 HD
ENDBRANCH  21  22
ENDBRANCH   1  21
BRANCH   3  24
HETATM   24  N3  UNL     1       2.117  26.324   8.904  1.00  0.00    -0.339 N
HETATM   25  C11 UNL     1       3.016  25.317   9.020  1.00  0.00     0.134 A
HETATM   26  C12 UNL     1       4.201  25.632   8.396  1.00  0.00     0.134 A
HETATM   27  F1  UNL     1       5.330  24.888   8.295  1.00  0.00    -0.205 F
HETATM   28  C13 UNL     1       4.022  26.893   7.871  1.00  0.00     0.082 A
HETATM   29  C14 UNL     1       2.744  27.296   8.193  1.00  0.00     0.092 A
BRANCH  29  30
HETATM   30  C15 UNL     1       2.166  28.561   7.825  1.00  0.00    -0.046 C
HETATM   31  C16 UNL     1       1.671  29.626   7.493  1.00  0.00    -0.068 C
BRANCH  31  32
HETATM   32  C17 UNL     1       1.100  30.902   7.088  1.00  0.00     0.316 C
HETATM   33  F2  UNL     1       1.516  31.183   5.815  1.00  0.00    -0.242 F
ENDBRANCH  31  32
ENDBRANCH  29  30
ENDBRANCH   3  24
BRANCH   4  34
HETATM   34  O2  UNL     1       1.363  27.192  11.526  1.00  0.00    -0.390 OA
ATOM     35  H2  UNL     1       1.889  27.967  11.685  1.00  0.00     0.210 HD
ENDBRANCH   4  34
TORSDOF 10
ENDMDL