MODEL 1
REMARK VINA RESULT: -6.473761587      0.000      0.000
REMARK  9 active torsions:
REMARK  status: ('A' for Active; 'I' for Inactive)
REMARK    1  A    between atoms: C1_2  and  C2_3
REMARK    2  A    between atoms: C1_2  and  O3_6
REMARK    3  A    between atoms: C2_3  and  O2_4
REMARK    4  A    between atoms: O3_6  and  C3_7
REMARK    5  A    between atoms: C3_7  and  C4_8
REMARK    6  A    between atoms: C3_7  and  C5_10
REMARK    7  A    between atoms: C5_10  and  O5_12
REMARK    8  A    between atoms: O5_12  and  C6_13
REMARK    9  A    between atoms: C6_13  and  N1_14
ROOT
HETATM    1  C5  UNL     1      -1.206  24.745  12.424  1.00  0.00     0.295 C
HETATM    2  O4  UNL     1      -0.226  24.888  13.175  1.00  0.00    -0.262 OA
ENDROOT
BRANCH   1   3
HETATM    3  C3  UNL     1      -2.482  24.196  12.965  1.00  0.00     0.241 C
BRANCH   3   4
HETATM    4  O3  UNL     1      -2.807  24.876  14.161  1.00  0.00    -0.303 OA
BRANCH   4   5
HETATM    5  C1  UNL     1      -2.920  24.226  15.379  1.00  0.00     0.283 C
HETATM    6  O1  UNL     1      -2.227  23.206  15.584  1.00  0.00    -0.263 OA
BRANCH   5   7
HETATM    7  C2  UNL     1      -3.826  24.680  16.458  1.00  0.00     0.275 C
BRANCH   7   8
HETATM    8  O2  UNL     1      -3.332  25.818  17.099  1.00  0.00    -0.391 OA
ATOM      9  H2  UNL     1      -3.943  26.544  17.042  1.00  0.00     0.210 HD
ENDBRANCH   7   8
ENDBRANCH   5   7
ENDBRANCH   4   5
ENDBRANCH   3   4
BRANCH   3  10
HETATM   10  C4  UNL     1      -3.589  24.299  11.932  1.00  0.00     0.129 C
HETATM   11  S1  UNL     1      -4.675  25.701  12.269  1.00  0.00    -0.095 SA
ENDBRANCH   3  10
ENDBRANCH   1   3
BRANCH   1  12
HETATM   12  O5  UNL     1      -1.084  25.092  11.130  1.00  0.00    -0.271 OA
BRANCH  12  13
HETATM   13  C6  UNL     1      -0.395  26.020  10.418  1.00  0.00     0.247 C
BRANCH  13  14
HETATM   14  N1  UNL     1      -0.783  27.386  10.445  1.00  0.00    -0.278 N
HETATM   15  C7  UNL     1      -2.091  27.663  10.276  1.00  0.00     0.122 A
HETATM   16  C8  UNL     1      -2.554  28.972  10.333  1.00  0.00     0.044 A
HETATM   17 BR1  UNL     1      -4.397  29.398  10.099  1.00  0.00    -0.048 Br
HETATM   18  C9  UNL     1      -1.655  29.998  10.568  1.00  0.00     0.035 A
HETATM   19 BR2  UNL     1      -2.250  31.813  10.656  1.00  0.00    -0.049 Br
HETATM   20  C10 UNL     1      -0.331  29.709  10.737  1.00  0.00     0.095 A
HETATM   21  C11 UNL     1       0.070  28.375  10.667  1.00  0.00     0.254 A
HETATM   22  O6  UNL     1       1.320  28.200  10.830  1.00  0.00    -0.268 OA
ENDBRANCH  13  14
ENDBRANCH  12  13
ENDBRANCH   1  12
TORSDOF 9
ENDMDL