MODEL 2
REMARK VINA RESULT: -8.241144661      3.070      4.961
REMARK  9 active torsions:
REMARK  status: ('A' for Active; 'I' for Inactive)
REMARK    1  A    between atoms: N2_5  and  C3_6
REMARK    2  A    between atoms: C3_6  and  C4_7
REMARK    3  A    between atoms: C4_7  and  O2_8
REMARK    4  A    between atoms: C4_7  and  O3_10
REMARK    5  A    between atoms: C4_7  and  C5_12
REMARK    6  A    between atoms: C5_12  and  N3_13
REMARK    7  A    between atoms: N3_13  and  C6_15
REMARK    8  A    between atoms: N5_23  and  C11_24
REMARK    9  A    between atoms: C11_24  and  C12_25
ROOT
HETATM    1  C5  UNL     1      -0.747  25.557  11.954  1.00  0.00     0.191 C
ENDROOT
BRANCH   1   2
HETATM    2  C4  UNL     1      -1.708  25.389  13.138  1.00  0.00     0.192 C
BRANCH   2   3
HETATM    3  C3  UNL     1      -2.676  24.287  12.762  1.00  0.00     0.204 C
BRANCH   3   4
HETATM    4  N2  UNL     1      -3.846  24.282  13.596  1.00  0.00    -0.292 N
HETATM    5  C2  UNL     1      -4.929  25.035  13.407  1.00  0.00     0.329 A
HETATM    6  N1  UNL     1      -5.782  24.730  14.399  1.00  0.00    -0.302 N
HETATM    7  O1  UNL     1      -5.171  25.887  12.499  1.00  0.00    -0.246 OA
HETATM    8  C1  UNL     1      -7.093  25.296  14.609  1.00  0.00     0.161 C
HETATM    9  C19 UNL     1      -5.241  23.788  15.213  1.00  0.00     0.065 A
HETATM   10  C14 UNL     1      -3.991  23.505  14.686  1.00  0.00     0.066 A
HETATM   11  C18 UNL     1      -5.667  23.130  16.349  1.00  0.00     0.032 A
HETATM   12  C15 UNL     1      -3.212  22.564  15.328  1.00  0.00     0.032 A
HETATM   13  C16 UNL     1      -3.644  21.907  16.468  1.00  0.00     0.002 A
HETATM   14  C17 UNL     1      -4.894  22.190  16.994  1.00  0.00     0.002 A
ENDBRANCH   3   4
ENDBRANCH   2   3
BRANCH   2  15
HETATM   15  O2  UNL     1      -0.919  24.995  14.215  1.00  0.00    -0.363 OA
ATOM     16  H2  UNL     1      -0.134  25.528  14.264  1.00  0.00     0.213 HD
ENDBRANCH   2  15
BRANCH   2  17
HETATM   17  O3  UNL     1      -2.338  26.570  13.472  1.00  0.00    -0.363 OA
ATOM     18  H3  UNL     1      -2.829  26.511  14.284  1.00  0.00     0.213 HD
ENDBRANCH   2  17
ENDBRANCH   1   2
BRANCH   1  19
HETATM   19  N3  UNL     1      -1.410  26.050  10.794  1.00  0.00    -0.366 N
ATOM     20  H3  UNL     1      -2.186  25.488  10.444  1.00  0.00     0.161 HD
BRANCH  19  21
HETATM   21  C6  UNL     1      -1.144  27.125  10.135  1.00  0.00     0.171 A
HETATM   22  N4  UNL     1      -0.051  27.205   9.399  1.00  0.00    -0.336 N
HETATM   23  C7  UNL     1       0.239  28.348   8.695  1.00  0.00     0.068 A
ATOM     24  H4  UNL     1       0.585  26.409   9.353  1.00  0.00     0.168 HD
HETATM   25  C8  UNL     1       1.324  28.551   7.909  1.00  0.00     0.039 A
HETATM   26  C10 UNL     1      -0.651  29.363   8.805  1.00  0.00     0.106 A
HETATM   27  C9  UNL     1       1.423  29.771   7.292  1.00  0.00     0.054 A
HETATM   28  S1  UNL     1       0.017  30.581   7.823  1.00  0.00    -0.082 SA
HETATM   29  N5  UNL     1      -1.781  29.291   9.561  1.00  0.00    -0.298 N
HETATM   30  C13 UNL     1      -2.072  28.183  10.249  1.00  0.00     0.292 A
HETATM   31  O4  UNL     1      -3.098  28.089  10.949  1.00  0.00    -0.264 OA
BRANCH  29  32
HETATM   32  C11 UNL     1      -2.628  30.431   9.585  1.00  0.00     0.204 C
BRANCH  32  33
HETATM   33  C12 UNL     1      -2.263  31.463  10.607  1.00  0.00     0.371 C
HETATM   34  F1  UNL     1      -3.429  31.774  11.311  1.00  0.00    -0.213 F
HETATM   35  F2  UNL     1      -1.786  32.623  10.079  1.00  0.00    -0.213 F
ENDBRANCH  32  33
ENDBRANCH  29  32
ENDBRANCH  19  21
ENDBRANCH   1  19
TORSDOF 9
ENDMDL