MODEL 5
REMARK VINA RESULT: -7.599134609      1.476      2.270
REMARK  9 active torsions:
REMARK  status: ('A' for Active; 'I' for Inactive)
REMARK    1  A    between atoms: C1_2  and  O2_3
REMARK    2  A    between atoms: C1_2  and  C4_8
REMARK    3  A    between atoms: O2_3  and  C2_4
REMARK    4  A    between atoms: C2_4  and  C3_5
REMARK    5  A    between atoms: C3_5  and  O3_6
REMARK    6  A    between atoms: C10_15  and  O4_16
REMARK    7  A    between atoms: O4_16  and  C11_17
REMARK    8  A    between atoms: C11_17  and  C12_18
REMARK    9  A    between atoms: C16_25  and  O7_26
ROOT
HETATM    1  C4  UNL     1       0.598  25.120  11.755  1.00  0.00     0.149 C
HETATM    2  C5  UNL     1      -0.178  25.832  10.666  1.00  0.00     0.066 C
HETATM    3  C6  UNL     1       0.445  27.152  10.260  1.00  0.00     0.101 C
HETATM    4  C7  UNL     1       1.944  27.015  10.322  1.00  0.00     0.051 C
HETATM    5  C8  UNL     1       2.451  25.749   9.665  1.00  0.00     0.077 C
HETATM    6  S1  UNL     1       2.055  24.418  10.877  1.00  0.00    -0.154 SA
HETATM    7  C9  UNL     1      -0.074  27.482   8.905  1.00  0.00     0.076 C
HETATM    8  C10 UNL     1      -0.120  29.016   8.641  1.00  0.00     0.164 C
HETATM    9  C13 UNL     1      -0.647  29.587   9.891  1.00  0.00     0.145 C
HETATM   10  O5  UNL     1       0.310  29.306  10.889  1.00  0.00    -0.224 OA
HETATM   11  O6  UNL     1       0.068  28.065  11.240  1.00  0.00    -0.229 OA
HETATM   12  C14 UNL     1      -2.010  29.108  10.316  1.00  0.00     0.033 C
HETATM   13  C15 UNL     1      -3.012  30.149   9.831  1.00  0.00     0.047 C
HETATM   14  C16 UNL     1      -2.177  31.075  10.739  1.00  0.00     0.078 C
HETATM   15  C17 UNL     1      -2.125  29.869  11.651  1.00  0.00     0.047 C
HETATM   16  C18 UNL     1      -0.890  31.076   9.927  1.00  0.00     0.157 C
HETATM   17 CL1  UNL     1      -1.273  31.705   8.297  1.00  0.00    -0.118 Cl
ENDROOT
BRANCH   1  18
HETATM   18  C1  UNL     1      -0.207  24.063  12.365  1.00  0.00     0.273 C
HETATM   19  O1  UNL     1      -1.086  24.363  13.189  1.00  0.00    -0.264 OA
BRANCH  18  20
HETATM   20  O2  UNL     1      -0.017  22.729  12.047  1.00  0.00    -0.318 OA
BRANCH  20  21
HETATM   21  C2  UNL     1      -0.988  22.097  11.237  1.00  0.00     0.204 C
BRANCH  21  22
HETATM   22  C3  UNL     1      -0.355  20.948  10.480  1.00  0.00     0.191 C
BRANCH  22  23
HETATM   23  O3  UNL     1      -1.176  19.834  10.491  1.00  0.00    -0.399 OA
ATOM     24  H3  UNL     1      -2.006  20.020  10.069  1.00  0.00     0.209 HD
ENDBRANCH  22  23
ENDBRANCH  21  22
ENDBRANCH  20  21
ENDBRANCH  18  20
ENDBRANCH   1  18
BRANCH   8  25
HETATM   25  O4  UNL     1       1.206  29.352   8.455  1.00  0.00    -0.380 OA
BRANCH  25  26
HETATM   26  C11 UNL     1       1.749  29.017   7.244  1.00  0.00     0.199 C
BRANCH  26  27
HETATM   27  C12 UNL     1       1.550  30.187   6.290  1.00  0.00     0.248 C
HETATM   28  F1  UNL     1       1.678  31.347   7.018  1.00  0.00    -0.253 F
ENDBRANCH  26  27
ENDBRANCH  25  26
ENDBRANCH   8  25
BRANCH  14  29
HETATM   29  O7  UNL     1      -2.717  32.212  11.145  1.00  0.00    -0.388 OA
ATOM     30  H7  UNL     1      -2.139  32.913  11.422  1.00  0.00     0.210 HD
ENDBRANCH  14  29
TORSDOF 9
ENDMDL