MODEL 4
REMARK VINA RESULT: -7.404130090      3.422      4.335
REMARK  8 active torsions:
REMARK  status: ('A' for Active; 'I' for Inactive)
REMARK    1  A    between atoms: C2_2  and  O1_3
REMARK    2  A    between atoms: O1_3  and  C3_4
REMARK    3  A    between atoms: C3_4  and  C4_6
REMARK    4  A    between atoms: C5_8  and  O3_9
REMARK    5  A    between atoms: O3_9  and  C6_10
REMARK    6  A    between atoms: C8_13  and  N1_14
REMARK       I    between atoms: N1_14  and  C9_16
REMARK    7  A    between atoms: C9_16  and  C10_18
REMARK    8  A    between atoms: C10_18  and  N2_21
ROOT
HETATM    1  C6  UNL     1      -0.887  26.336  10.998  1.00  0.00     0.232 C
HETATM    2  C7  UNL     1      -1.952  26.531  12.009  1.00  0.00     0.183 C
HETATM    3  O4  UNL     1      -2.820  27.354  11.956  1.00  0.00    -0.293 OA
HETATM    4  C8  UNL     1      -1.724  25.518  13.080  1.00  0.00     0.188 C
HETATM    5  C13 UNL     1      -1.044  24.395  12.332  1.00  0.00     0.184 A
HETATM    6  O6  UNL     1       0.368  24.562  12.260  1.00  0.00    -0.370 OA
HETATM    7  C14 UNL     1      -0.381  24.927  11.170  1.00  0.00     0.190 A
ENDROOT
BRANCH   1   8
HETATM    8  O3  UNL     1       0.147  27.304  11.187  1.00  0.00    -0.327 OA
BRANCH   8   9
HETATM    9  C5  UNL     1       0.968  27.610  10.083  1.00  0.00     0.135 A
HETATM   10  S1  UNL     1       2.527  27.010   9.747  1.00  0.00    -0.056 SA
HETATM   11  C4  UNL     1       2.829  27.835   8.279  1.00  0.00     0.106 A
HETATM   12  C16 UNL     1       1.688  28.558   8.101  1.00  0.00     0.082 A
HETATM   13  C15 UNL     1       0.725  28.449   9.024  1.00  0.00     0.097 A
HETATM   14 CL2  UNL     1       1.535  29.606   6.662  1.00  0.00    -0.081 Cl
HETATM   15 CL1  UNL     1      -0.838  29.315   8.966  1.00  0.00    -0.079 Cl
BRANCH  11  16
HETATM   16  C3  UNL     1       4.032  27.772   7.426  1.00  0.00     0.302 C
HETATM   17  O2  UNL     1       5.018  28.470   7.743  1.00  0.00    -0.259 OA
BRANCH  16  18
HETATM   18  O1  UNL     1       4.069  26.979   6.327  1.00  0.00    -0.317 OA
BRANCH  18  19
HETATM   19  C2  UNL     1       4.641  27.371   5.077  1.00  0.00     0.174 C
HETATM   20  C1  UNL     1       3.919  26.580   4.008  1.00  0.00     0.034 C
ENDBRANCH  18  19
ENDBRANCH  16  18
ENDBRANCH  11  16
ENDBRANCH   8   9
ENDBRANCH   1   8
BRANCH   4  21
HETATM   21  N1  UNL     1      -2.910  25.133  13.776  1.00  0.00    -0.345 N
HETATM   22  C9  UNL     1      -2.891  24.620  15.103  1.00  0.00     0.253 C
HETATM   23  O5  UNL     1      -1.770  24.511  15.662  1.00  0.00    -0.271 OA
ATOM     24  H1  UNL     1      -3.808  25.230  13.302  1.00  0.00     0.163 HD
BRANCH  22  25
HETATM   25  C10 UNL     1      -4.094  24.220  15.833  1.00  0.00     0.196 C
HETATM   26  C11 UNL     1      -5.294  24.428  14.919  1.00  0.00     0.056 C
HETATM   27  C12 UNL     1      -4.072  22.764  16.239  1.00  0.00     0.056 C
BRANCH  25  28
HETATM   28  N2  UNL     1      -4.251  25.005  17.018  1.00  0.00    -0.062 N
ATOM     29  H23 UNL     1      -3.722  25.876  16.967  1.00  0.00     0.275 HD
ATOM     30  H22 UNL     1      -5.190  25.400  17.088  1.00  0.00     0.275 HD
ATOM     31  H21 UNL     1      -4.007  24.462  17.846  1.00  0.00     0.275 HD
ENDBRANCH  25  28
ENDBRANCH  22  25
ENDBRANCH   4  21
TORSDOF 8
ENDMDL