MODEL 5
REMARK VINA RESULT: -5.077062566      1.501      1.786
REMARK  5 active torsions:
REMARK  status: ('A' for Active; 'I' for Inactive)
REMARK    1  A    between atoms: N1_2  and  C2_5
REMARK    2  A    between atoms: C2_5  and  C3_6
REMARK    3  A    between atoms: C3_6  and  C4_7
REMARK    4  A    between atoms: C4_7  and  O1_8
REMARK    5  A    between atoms: O1_8  and  C5_9
ROOT
HETATM    1  C5  UNL     1      37.515  65.060-152.104  1.00  0.00     0.338 C
HETATM    2  C6  UNL     1      36.231  64.344-151.749  1.00  0.00     0.175 C
HETATM    3  N2  UNL     1      36.168  64.041-150.367  1.00  0.00    -0.417 N
ATOM      4  H2  UNL     1      36.358  63.101-150.020  1.00  0.00     0.153 HD
HETATM    5  C7  UNL     1      35.831  65.095-149.491  1.00  0.00     0.115 C
HETATM    6  C8  UNL     1      35.686  66.444-150.119  1.00  0.00     0.047 C
HETATM    7  C9  UNL     1      36.893  66.978-150.779  1.00  0.00     0.237 C
HETATM    8  N3  UNL     1      37.907  66.000-151.081  1.00  0.00    -0.047 N
ATOM      9  H31 UNL     1      38.786  66.455-151.326  1.00  0.00     0.280 HD
ATOM     10  H32 UNL     1      38.200  65.511-150.234  1.00  0.00     0.280 HD
ENDROOT
BRANCH   1  11
HETATM   11  O1  UNL     1      37.456  65.637-153.361  1.00  0.00    -0.358 OA
BRANCH  11  12
HETATM   12  C4  UNL     1      38.654  65.936-153.944  1.00  0.00     0.172 C
BRANCH  12  13
HETATM   13  C3  UNL     1      39.332  64.725-154.493  1.00  0.00     0.054 C
BRANCH  13  14
HETATM   14  C2  UNL     1      38.522  64.066-155.602  1.00  0.00     0.234 C
BRANCH  14  15
HETATM   15  N1  UNL     1      37.664  63.025-155.074  1.00  0.00    -0.079 N
HETATM   16  C1  UNL     1      38.340  62.153-154.167  1.00  0.00     0.266 C
ATOM     17  H12 UNL     1      37.225  62.497-155.829  1.00  0.00     0.276 HD
ATOM     18  H11 UNL     1      36.830  63.424-154.643  1.00  0.00     0.276 HD
ENDBRANCH  14  15
ENDBRANCH  13  14
ENDBRANCH  12  13
ENDBRANCH  11  12
ENDBRANCH   1  11
TORSDOF 5
ENDMDL