MODEL 5
REMARK VINA RESULT: -5.015541873      1.990      2.749
REMARK  7 active torsions:
REMARK  status: ('A' for Active; 'I' for Inactive)
REMARK    1  A    between atoms: C2_7  and  C3_8
REMARK    2  A    between atoms: C3_8  and  O1_9
REMARK    3  A    between atoms: O1_9  and  C4_10
REMARK    4  A    between atoms: C4_10  and  C5_11
REMARK    5  A    between atoms: C5_11  and  C6_12
REMARK    6  A    between atoms: C6_12  and  N3_13
REMARK    7  A    between atoms: C8_18  and  N4_19
ROOT
HETATM    1  N1  UNL     1      38.361  61.037-154.200  1.00  0.00    -0.387 N
ATOM      2  H11 UNL     1      39.243  60.527-154.237  1.00  0.00     0.157 HD
ATOM      3  H12 UNL     1      37.625  60.351-154.369  1.00  0.00     0.157 HD
HETATM    4  C1  UNL     1      38.168  62.292-153.986  1.00  0.00     0.102 C
HETATM    5  N2  UNL     1      36.937  63.003-153.934  1.00  0.00    -0.372 N
ATOM      6  H2  UNL     1      36.020  62.596-154.116  1.00  0.00     0.161 HD
HETATM    7  C2  UNL     1      37.177  64.390-153.584  1.00  0.00     0.109 C
HETATM    8  C7  UNL     1      38.498  64.291-152.850  1.00  0.00     0.068 C
HETATM    9  C8  UNL     1      39.238  63.291-153.740  1.00  0.00     0.251 C
ENDROOT
BRANCH   7  10
HETATM   10  C3  UNL     1      36.081  64.920-152.667  1.00  0.00     0.192 C
BRANCH  10  11
HETATM   11  O1  UNL     1      36.603  65.977-151.969  1.00  0.00    -0.389 OA
BRANCH  11  12
HETATM   12  C4  UNL     1      35.881  66.363-150.868  1.00  0.00     0.169 C
BRANCH  12  13
HETATM   13  C5  UNL     1      35.072  65.270-150.248  1.00  0.00     0.053 C
BRANCH  13  14
HETATM   14  C6  UNL     1      35.798  64.812-148.993  1.00  0.00     0.231 C
BRANCH  14  15
HETATM   15  N3  UNL     1      37.205  64.657-149.206  1.00  0.00    -0.079 N
ATOM     16  H33 UNL     1      37.518  63.723-148.941  1.00  0.00     0.274 HD
ATOM     17  H32 UNL     1      37.426  64.626-150.202  1.00  0.00     0.274 HD
ATOM     18  H31 UNL     1      37.750  65.376-148.731  1.00  0.00     0.274 HD
ENDBRANCH  14  15
ENDBRANCH  13  14
ENDBRANCH  12  13
ENDBRANCH  11  12
ENDBRANCH  10  11
ENDBRANCH   7  10
BRANCH   9  19
HETATM   19  N4  UNL     1      39.527  63.920-155.016  1.00  0.00    -0.068 N
ATOM     20  H43 UNL     1      39.408  63.292-155.810  1.00  0.00     0.275 HD
ATOM     21  H42 UNL     1      38.827  64.610-155.292  1.00  0.00     0.275 HD
ATOM     22  H41 UNL     1      40.468  64.308-154.948  1.00  0.00     0.275 HD
ENDBRANCH   9  19
TORSDOF 7
ENDMDL