MODEL 5
REMARK VINA RESULT: -5.348287916      2.843      6.238
REMARK  8 active torsions:
REMARK  status: ('A' for Active; 'I' for Inactive)
REMARK    1  A    between atoms: N1_1  and  C1_4
REMARK    2  A    between atoms: N2_7  and  C4_8
REMARK    3  A    between atoms: C4_8  and  C5_9
REMARK    4  A    between atoms: C5_9  and  C6_10
REMARK    5  A    between atoms: C6_10  and  C7_11
REMARK    6  A    between atoms: C7_11  and  N3_12
REMARK    7  A    between atoms: C7_11  and  C8_16
REMARK    8  A    between atoms: C8_16  and  N4_17
ROOT
HETATM    1  C4  UNL     1      37.761  64.510-152.931  1.00  0.00     0.150 C
ENDROOT
BRANCH   1   2
HETATM    2  N2  UNL     1      38.329  63.202-153.340  1.00  0.00    -0.289 N
HETATM    3  C3  UNL     1      39.649  63.000-153.230  1.00  0.00     0.115 A
HETATM    4  C2  UNL     1      40.157  61.774-153.618  1.00  0.00     0.068 A
HETATM    5  C1  UNL     1      39.272  60.816-154.100  1.00  0.00     0.115 A
HETATM    6  N6  UNL     1      37.957  61.091-154.182  1.00  0.00    -0.271 N
HETATM    7  N5  UNL     1      37.506  62.271-153.805  1.00  0.00    -0.239 N
ATOM      8  H6  UNL     1      37.310  60.387-154.537  1.00  0.00     0.190 HD
ATOM      9  H5  UNL     1      36.507  62.470-153.870  1.00  0.00     0.208 HD
BRANCH   5  10
HETATM   10  N1  UNL     1      39.769  59.677-154.456  1.00  0.00    -0.384 N
ATOM     11  H12 UNL     1      40.764  59.545-154.638  1.00  0.00     0.157 HD
ATOM     12  H11 UNL     1      39.121  58.895-154.551  1.00  0.00     0.157 HD
ENDBRANCH   5  10
ENDBRANCH   1   2
BRANCH   1  13
HETATM   13  C5  UNL     1      36.341  64.278-152.549  1.00  0.00     0.024 C
BRANCH  13  14
HETATM   14  C6  UNL     1      35.928  64.624-151.161  1.00  0.00     0.036 C
BRANCH  14  15
HETATM   15  C7  UNL     1      35.273  65.956-150.988  1.00  0.00     0.208 C
BRANCH  15  16
HETATM   16  N3  UNL     1      36.203  66.944-150.570  1.00  0.00    -0.073 N
ATOM     17  H33 UNL     1      36.941  66.542-149.993  1.00  0.00     0.274 HD
ATOM     18  H32 UNL     1      36.774  67.272-151.350  1.00  0.00     0.274 HD
ATOM     19  H31 UNL     1      35.739  67.719-150.096  1.00  0.00     0.274 HD
ENDBRANCH  15  16
BRANCH  15  20
HETATM   20  C8  UNL     1      34.170  65.778-149.955  1.00  0.00     0.262 C
BRANCH  20  21
HETATM   21  N4  UNL     1      34.728  66.020-148.643  1.00  0.00    -0.077 N
ATOM     22  H43 UNL     1      34.330  66.845-148.194  1.00  0.00     0.274 HD
ATOM     23  H42 UNL     1      34.428  65.328-147.955  1.00  0.00     0.274 HD
ATOM     24  H41 UNL     1      35.744  66.072-148.728  1.00  0.00     0.274 HD
ENDBRANCH  20  21
ENDBRANCH  15  20
ENDBRANCH  14  15
ENDBRANCH  13  14
ENDBRANCH   1  13
TORSDOF 8
ENDMDL