MODEL 5
REMARK VINA RESULT: -5.284441058      1.113      1.614
REMARK  5 active torsions:
REMARK  status: ('A' for Active; 'I' for Inactive)
REMARK    1  A    between atoms: C3_3  and  N1_4
REMARK    2  A    between atoms: N1_4  and  C4_6
REMARK    3  A    between atoms: C4_6  and  C5_7
REMARK    4  A    between atoms: C5_7  and  N2_8
REMARK    5  A    between atoms: N2_8  and  C6_11
ROOT
HETATM    1  C4  UNL     1      36.125  64.534-152.593  1.00  0.00     0.142 C
ENDROOT
BRANCH   1   2
HETATM    2  N1  UNL     1      35.914  64.214-151.192  1.00  0.00    -0.414 N
ATOM      3  H1  UNL     1      35.328  63.433-150.898  1.00  0.00     0.153 HD
BRANCH   2   4
HETATM    4  C3  UNL     1      36.571  65.052-150.260  1.00  0.00     0.103 C
HETATM    5  C2  UNL     1      35.930  64.842-148.906  1.00  0.00     0.054 C
HETATM    6  C1  UNL     1      34.758  65.815-148.876  1.00  0.00     0.234 C
HETATM    7  N4  UNL     1      34.834  66.588-150.069  1.00  0.00    -0.073 N
HETATM    8  C9  UNL     1      36.204  66.516-150.505  1.00  0.00     0.256 C
ATOM      9  H42 UNL     1      34.165  66.300-150.783  1.00  0.00     0.277 HD
ATOM     10  H41 UNL     1      34.493  67.543-149.956  1.00  0.00     0.277 HD
ENDBRANCH   2   4
ENDBRANCH   1   2
BRANCH   1  11
HETATM   11  C5  UNL     1      36.904  63.354-153.179  1.00  0.00     0.252 C
BRANCH  11  12
HETATM   12  N2  UNL     1      37.074  63.382-154.575  1.00  0.00    -0.066 N
ATOM     13  H22 UNL     1      36.829  62.497-155.020  1.00  0.00     0.277 HD
ATOM     14  H21 UNL     1      36.384  63.968-155.045  1.00  0.00     0.277 HD
BRANCH  12  15
HETATM   15  C6  UNL     1      38.423  63.786-154.851  1.00  0.00     0.236 C
HETATM   16  C7  UNL     1      38.831  63.345-156.256  1.00  0.00     0.267 C
HETATM   17  N3  UNL     1      38.226  64.623-156.723  1.00  0.00    -0.071 N
HETATM   18  C8  UNL     1      38.635  65.171-155.441  1.00  0.00     0.267 C
ATOM     19  H32 UNL     1      38.503  65.057-157.604  1.00  0.00     0.277 HD
ATOM     20  H31 UNL     1      37.259  64.673-157.044  1.00  0.00     0.277 HD
ENDBRANCH  12  15
ENDBRANCH  11  12
ENDBRANCH   1  11
TORSDOF 5
ENDMDL