MODEL 1
REMARK VINA RESULT: -4.904890040      0.000      0.000
REMARK  7 active torsions:
REMARK  status: ('A' for Active; 'I' for Inactive)
REMARK    1  A    between atoms: N1_1  and  C1_5
REMARK    2  A    between atoms: C1_5  and  C2_6
REMARK    3  A    between atoms: C2_6  and  C3_7
REMARK    4  A    between atoms: C3_7  and  C4_8
REMARK    5  A    between atoms: C4_8  and  N2_9
REMARK    6  A    between atoms: C4_8  and  C5_13
REMARK    7  A    between atoms: C5_13  and  N3_14
ROOT
HETATM    1  C4  UNL     1      38.698  64.897-151.876  1.00  0.00     0.211 C
ENDROOT
BRANCH   1   2
HETATM    2  C3  UNL     1      39.290  64.943-153.266  1.00  0.00     0.036 C
BRANCH   2   3
HETATM    3  C2  UNL     1      39.051  63.689-154.029  1.00  0.00     0.029 C
BRANCH   3   4
HETATM    4  C1  UNL     1      37.798  62.989-153.566  1.00  0.00     0.229 C
BRANCH   4   5
HETATM    5  N1  UNL     1      36.710  63.541-154.382  1.00  0.00    -0.079 N
ATOM      6  H13 UNL     1      37.022  64.226-155.071  1.00  0.00     0.274 HD
ATOM      7  H12 UNL     1      36.315  62.872-155.044  1.00  0.00     0.274 HD
ATOM      8  H11 UNL     1      36.028  63.911-153.719  1.00  0.00     0.274 HD
ENDBRANCH   4   5
ENDBRANCH   3   4
ENDBRANCH   2   3
ENDBRANCH   1   2
BRANCH   1   9
HETATM    9  N2  UNL     1      39.749  64.812-150.883  1.00  0.00    -0.073 N
ATOM     10  H23 UNL     1      39.538  64.119-150.165  1.00  0.00     0.274 HD
ATOM     11  H22 UNL     1      40.595  64.385-151.261  1.00  0.00     0.274 HD
ATOM     12  H21 UNL     1      39.933  65.731-150.482  1.00  0.00     0.274 HD
ENDBRANCH   1   9
BRANCH   1  13
HETATM   13  C5  UNL     1      37.800  66.099-151.641  1.00  0.00     0.306 C
BRANCH  13  14
HETATM   14  N3  UNL     1      36.480  65.671-151.394  1.00  0.00     0.107 N
HETATM   15  C6  UNL     1      35.632  66.277-150.537  1.00  0.00     0.283 A
HETATM   16  C7  UNL     1      34.274  65.953-150.028  1.00  0.00     0.270 C
HETATM   17  C9  UNL     1      36.085  64.781-150.459  1.00  0.00     0.283 A
HETATM   18  N4  UNL     1      34.653  65.296-148.764  1.00  0.00    -0.071 N
HETATM   19  C8  UNL     1      35.994  64.737-148.991  1.00  0.00     0.270 C
ATOM     20  H42 UNL     1      34.599  65.910-147.951  1.00  0.00     0.277 HD
ATOM     21  H41 UNL     1      33.973  64.608-148.440  1.00  0.00     0.277 HD
ENDBRANCH  13  14
ENDBRANCH   1  13
TORSDOF 7
ENDMDL