MODEL 2
REMARK VINA RESULT: -5.553742520      1.275      4.855
REMARK  7 active torsions:
REMARK  status: ('A' for Active; 'I' for Inactive)
REMARK    1  A    between atoms: C2_2  and  N1_3
REMARK    2  A    between atoms: N1_3  and  C3_5
REMARK    3  A    between atoms: C4_10  and  N4_11
REMARK    4  A    between atoms: N4_11  and  C5_13
REMARK    5  A    between atoms: C5_13  and  C6_14
REMARK    6  A    between atoms: C6_14  and  C7_15
REMARK    7  A    between atoms: C7_15  and  N5_16
ROOT
HETATM    1  C3  UNL     1      36.199  64.641-152.501  1.00  0.00     0.707 A
HETATM    2  N2  UNL     1      35.860  64.350-153.773  1.00  0.00    -0.117 N
ATOM      3  H2  UNL     1      35.053  64.702-154.290  1.00  0.00     0.206 HD
HETATM    4  N3  UNL     1      36.786  63.520-154.215  1.00  0.00    -0.117 N
ATOM      5  H3  UNL     1      36.806  63.118-155.152  1.00  0.00     0.206 HD
HETATM    6  C4  UNL     1      37.698  63.277-153.259  1.00  0.00     0.707 A
HETATM    7  N6  UNL     1      37.319  63.982-152.198  1.00  0.00    -0.020 N
ATOM      8  H6  UNL     1      37.804  64.014-151.301  1.00  0.00     0.203 HD
ENDROOT
BRANCH   6   9
HETATM    9  N4  UNL     1      38.743  62.499-153.369  1.00  0.00    -0.224 N
ATOM     10  H4  UNL     1      38.631  61.494-153.233  1.00  0.00     0.177 HD
BRANCH   9  11
HETATM   11  C5  UNL     1      40.038  63.020-153.675  1.00  0.00     0.140 C
BRANCH  11  12
HETATM   12  C6  UNL     1      40.989  62.947-152.495  1.00  0.00     0.047 C
BRANCH  12  13
HETATM   13  C7  UNL     1      41.138  64.336-151.916  1.00  0.00     0.231 C
BRANCH  13  14
HETATM   14  N5  UNL     1      40.423  64.509-150.690  1.00  0.00    -0.079 N
ATOM     15  H53 UNL     1      40.697  63.803-150.006  1.00  0.00     0.274 HD
ATOM     16  H52 UNL     1      40.739  65.346-150.199  1.00  0.00     0.274 HD
ATOM     17  H51 UNL     1      39.411  64.521-150.817  1.00  0.00     0.274 HD
ENDBRANCH  13  14
ENDBRANCH  12  13
ENDBRANCH  11  12
ENDBRANCH   9  11
ENDBRANCH   6   9
BRANCH   1  18
HETATM   18  N1  UNL     1      35.534  65.430-151.723  1.00  0.00    -0.225 N
ATOM     19  H1  UNL     1      35.128  66.293-152.085  1.00  0.00     0.177 HD
BRANCH  18  20
HETATM   20  C2  UNL     1      35.373  65.072-150.338  1.00  0.00     0.134 C
HETATM   21  C1  UNL     1      34.186  65.774-149.733  1.00  0.00     0.027 C
ENDBRANCH  18  20
ENDBRANCH   1  18
TORSDOF 7
ENDMDL