MODEL 4
REMARK VINA RESULT: -5.431792565      1.909      2.728
REMARK  5 active torsions:
REMARK  status: ('A' for Active; 'I' for Inactive)
REMARK       I    between atoms: N1_1  and  C1_5
REMARK       I    between atoms: C1_5  and  N2_6
REMARK       I    between atoms: C1_5  and  N3_10
REMARK    1  A    between atoms: N3_10  and  N4_11
REMARK    2  A    between atoms: N4_11  and  N5_12
REMARK    3  A    between atoms: N4_11  and  C2_15
REMARK    4  A    between atoms: N6_16  and  C3_18
REMARK    5  A    between atoms: C3_18  and  C4_19
ROOT
HETATM    1  N4  UNL     1      38.311  64.626-152.890  1.00  0.00    -0.200 N
ENDROOT
BRANCH   1   2
HETATM    2  N3  UNL     1      39.060  64.780-151.694  1.00  0.00    -0.057 NA
HETATM    3  C1  UNL     1      40.446  64.418-152.024  1.00  0.00     0.492 C
HETATM    4  N1  UNL     1      41.203  64.580-150.789  1.00  0.00    -0.034 N
HETATM    5  N2  UNL     1      40.479  63.038-152.400  1.00  0.00    -0.034 N
ATOM      6  H13 UNL     1      40.876  63.964-150.046  1.00  0.00     0.278 HD
ATOM      7  H12 UNL     1      42.154  64.217-150.863  1.00  0.00     0.278 HD
ATOM      8  H11 UNL     1      41.180  65.563-150.521  1.00  0.00     0.278 HD
ATOM      9  H23 UNL     1      41.429  62.675-152.474  1.00  0.00     0.278 HD
ATOM     10  H22 UNL     1      40.152  62.422-151.657  1.00  0.00     0.278 HD
ATOM     11  H21 UNL     1      39.949  62.925-153.264  1.00  0.00     0.278 HD
ENDBRANCH   1   2
BRANCH   1  12
HETATM   12  N5  UNL     1      38.683  65.412-153.961  1.00  0.00    -0.326 N
ATOM     13  H52 UNL     1      38.830  65.070-154.911  1.00  0.00     0.178 HD
ATOM     14  H51 UNL     1      38.819  66.406-153.776  1.00  0.00     0.178 HD
ENDBRANCH   1  12
BRANCH   1  15
HETATM   15  C2  UNL     1      37.245  63.686-152.905  1.00  0.00     0.218 C
HETATM   16  N6  UNL     1      36.039  63.970-152.546  1.00  0.00    -0.379 N
ATOM     17  H6  UNL     1      35.305  63.262-152.574  1.00  0.00     0.160 HD
BRANCH  16  18
HETATM   18  C3  UNL     1      35.753  65.305-152.108  1.00  0.00     0.159 C
BRANCH  18  19
HETATM   19  C4  UNL     1      35.413  65.285-150.643  1.00  0.00    -0.041 A
HETATM   20  C5  UNL     1      35.978  64.840-149.533  1.00  0.00     0.009 A
HETATM   21  C6  UNL     1      34.861  65.316-148.729  1.00  0.00     0.001 A
HETATM   22  C7  UNL     1      34.292  65.762-149.838  1.00  0.00     0.009 A
ENDBRANCH  18  19
ENDBRANCH  16  18
ENDBRANCH   1  15
TORSDOF 5
ENDMDL