MODEL 3
REMARK VINA RESULT: -5.123373455      2.953      5.730
REMARK  6 active torsions:
REMARK  status: ('A' for Active; 'I' for Inactive)
REMARK    1  A    between atoms: C2_5  and  N3_6
REMARK    2  A    between atoms: N5_12  and  C4_14
REMARK    3  A    between atoms: C4_14  and  C5_15
REMARK    4  A    between atoms: C5_15  and  C6_16
REMARK    5  A    between atoms: C6_16  and  C7_17
REMARK    6  A    between atoms: C7_17  and  N6_18
ROOT
HETATM    1  C1  UNL     1      36.546  64.360-153.522  1.00  0.00     0.198 C
HETATM    2  N1  UNL     1      36.628  65.086-152.261  1.00  0.00    -0.114 N
HETATM    3  N2  UNL     1      35.585  65.653-151.624  1.00  0.00    -0.116 N
ATOM      4  H2  UNL     1      34.616  65.643-151.945  1.00  0.00     0.206 HD
HETATM    5  C2  UNL     1      36.023  66.230-150.505  1.00  0.00     0.705 A
HETATM    6  N4  UNL     1      37.329  66.017-150.455  1.00  0.00    -0.020 N
ATOM      7  H4  UNL     1      37.945  66.341-149.709  1.00  0.00     0.203 HD
HETATM    8  C3  UNL     1      37.737  65.294-151.556  1.00  0.00     0.709 A
HETATM    9  N5  UNL     1      38.959  64.988-151.687  1.00  0.00    -0.224 N
ATOM     10  H5  UNL     1      39.590  65.304-150.950  1.00  0.00     0.177 HD
ENDROOT
BRANCH   9  11
HETATM   11  C4  UNL     1      39.545  64.255-152.749  1.00  0.00     0.138 C
BRANCH  11  12
HETATM   12  C5  UNL     1      40.763  63.454-152.284  1.00  0.00     0.022 C
BRANCH  12  13
HETATM   13  C6  UNL     1      41.634  64.392-151.494  1.00  0.00     0.029 C
BRANCH  13  14
HETATM   14  C7  UNL     1      42.972  64.623-152.158  1.00  0.00     0.229 C
BRANCH  14  15
HETATM   15  N6  UNL     1      44.003  64.972-151.237  1.00  0.00    -0.079 N
ATOM     16  H63 UNL     1      44.859  64.458-151.439  1.00  0.00     0.274 HD
ATOM     17  H62 UNL     1      44.334  65.922-151.406  1.00  0.00     0.274 HD
ATOM     18  H61 UNL     1      43.727  64.852-150.263  1.00  0.00     0.274 HD
ENDBRANCH  14  15
ENDBRANCH  13  14
ENDBRANCH  12  13
ENDBRANCH  11  12
ENDBRANCH   9  11
BRANCH   5  19
HETATM   19  N3  UNL     1      35.287  66.861-149.663  1.00  0.00    -0.233 N
ATOM     20  H32 UNL     1      34.887  67.796-149.749  1.00  0.00     0.174 HD
ATOM     21  H31 UNL     1      34.992  66.499-148.756  1.00  0.00     0.174 HD
ENDBRANCH   5  19
TORSDOF 6
ENDMDL