MODEL 4
REMARK VINA RESULT: -5.169708403      2.379      3.844
REMARK  7 active torsions:
REMARK  status: ('A' for Active; 'I' for Inactive)
REMARK    1  A    between atoms: N4_11  and  C4_12
REMARK    2  A    between atoms: C4_12  and  C5_13
REMARK    3  A    between atoms: C5_13  and  N5_14
REMARK    4  A    between atoms: C5_13  and  C6_18
REMARK    5  A    between atoms: C6_18  and  C7_19
REMARK    6  A    between atoms: C7_19  and  C8_20
REMARK    7  A    between atoms: C8_20  and  N6_21
ROOT
HETATM    1  C4  UNL     1      39.188  64.355-153.482  1.00  0.00     0.175 C
ENDROOT
BRANCH   1   2
HETATM    2  N4  UNL     1      38.001  64.599-152.732  1.00  0.00    -0.200 N
HETATM    3  C1  UNL     1      36.760  64.073-153.180  1.00  0.00     0.676 C
HETATM    4  N1  UNL     1      36.578  63.665-154.401  1.00  0.00    -0.234 N
HETATM    5  N2  UNL     1      35.602  63.952-152.330  1.00  0.00    -0.189 N
ATOM      6  H12 UNL     1      35.687  63.286-154.723  1.00  0.00     0.174 HD
ATOM      7  H11 UNL     1      37.398  63.750-155.002  1.00  0.00     0.174 HD
HETATM    8  C2  UNL     1      35.719  64.343-151.114  1.00  0.00     0.195 C
ATOM      9  H2  UNL     1      34.724  63.570-152.682  1.00  0.00     0.184 HD
HETATM   10  N3  UNL     1      36.932  64.879-150.608  1.00  0.00    -0.369 N
HETATM   11  C3  UNL     1      37.965  65.379-151.500  1.00  0.00     0.265 C
ATOM     12  H3  UNL     1      37.081  64.913-149.599  1.00  0.00     0.161 HD
ENDBRANCH   1   2
BRANCH   1  13
HETATM   13  C5  UNL     1      39.889  63.076-153.159  1.00  0.00     0.202 C
BRANCH  13  14
HETATM   14  N5  UNL     1      40.872  63.127-152.176  1.00  0.00    -0.073 N
ATOM     15  H53 UNL     1      41.680  63.638-152.529  1.00  0.00     0.274 HD
ATOM     16  H52 UNL     1      40.570  63.747-151.424  1.00  0.00     0.274 HD
ATOM     17  H51 UNL     1      41.178  62.237-151.781  1.00  0.00     0.274 HD
ENDBRANCH  13  14
BRANCH  13  18
HETATM   18  C6  UNL     1      40.486  62.509-154.430  1.00  0.00     0.036 C
BRANCH  18  19
HETATM   19  C7  UNL     1      39.519  61.609-155.159  1.00  0.00     0.029 C
BRANCH  19  20
HETATM   20  C8  UNL     1      38.747  60.716-154.228  1.00  0.00     0.229 C
BRANCH  20  21
HETATM   21  N6  UNL     1      39.480  59.506-153.909  1.00  0.00    -0.079 N
ATOM     22  H63 UNL     1      38.848  58.722-153.745  1.00  0.00     0.274 HD
ATOM     23  H62 UNL     1      39.974  59.145-154.725  1.00  0.00     0.274 HD
ATOM     24  H61 UNL     1      40.114  59.641-153.122  1.00  0.00     0.274 HD
ENDBRANCH  20  21
ENDBRANCH  19  20
ENDBRANCH  18  19
ENDBRANCH  13  18
ENDBRANCH   1  13
TORSDOF 7
ENDMDL