MODEL 3
REMARK VINA RESULT: -5.152620218      0.960      1.661
REMARK  7 active torsions:
REMARK  status: ('A' for Active; 'I' for Inactive)
REMARK    1  A    between atoms: N1_2  and  C2_5
REMARK    2  A    between atoms: C2_5  and  C3_6
REMARK    3  A    between atoms: C3_6  and  N2_7
REMARK    4  A    between atoms: N2_7  and  C4_10
REMARK    5  A    between atoms: C4_10  and  C5_11
REMARK    6  A    between atoms: C7_13  and  N3_14
REMARK    7  A    between atoms: C8_18  and  N4_19
ROOT
HETATM    1  C5  UNL     1      36.396  64.801-152.230  1.00  0.00     0.015 C
HETATM    2  C6  UNL     1      35.387  64.643-151.118  1.00  0.00     0.041 C
HETATM    3  C7  UNL     1      36.205  64.914-149.873  1.00  0.00     0.214 C
HETATM    4  C8  UNL     1      37.117  66.015-150.354  1.00  0.00     0.214 C
HETATM    5  C9  UNL     1      37.663  65.329-151.621  1.00  0.00     0.041 C
ENDROOT
BRANCH   1   6
HETATM    6  C4  UNL     1      36.576  63.459-152.920  1.00  0.00     0.237 C
BRANCH   6   7
HETATM    7  N2  UNL     1      36.775  63.721-154.316  1.00  0.00    -0.073 N
ATOM      8  H22 UNL     1      36.724  64.723-154.499  1.00  0.00     0.277 HD
ATOM      9  H21 UNL     1      35.969  63.402-154.855  1.00  0.00     0.277 HD
BRANCH   7  10
HETATM   10  C3  UNL     1      37.985  63.176-154.862  1.00  0.00     0.259 C
BRANCH  10  11
HETATM   11  C2  UNL     1      38.459  62.099-153.898  1.00  0.00     0.259 C
BRANCH  11  12
HETATM   12  N1  UNL     1      38.297  60.788-154.492  1.00  0.00    -0.077 N
HETATM   13  C1  UNL     1      39.475  60.015-154.039  1.00  0.00     0.267 C
ATOM     14  H12 UNL     1      38.178  60.804-155.505  1.00  0.00     0.276 HD
ATOM     15  H11 UNL     1      37.404  60.344-154.276  1.00  0.00     0.276 HD
ENDBRANCH  11  12
ENDBRANCH  10  11
ENDBRANCH   7  10
ENDBRANCH   6   7
ENDBRANCH   1   6
BRANCH   3  16
HETATM   16  N3  UNL     1      35.439  65.259-148.727  1.00  0.00    -0.073 N
ATOM     17  H33 UNL     1      34.443  65.161-148.923  1.00  0.00     0.274 HD
ATOM     18  H32 UNL     1      35.545  64.549-148.002  1.00  0.00     0.274 HD
ATOM     19  H31 UNL     1      35.637  66.185-148.348  1.00  0.00     0.274 HD
ENDBRANCH   3  16
BRANCH   4  20
HETATM   20  N4  UNL     1      36.395  67.170-150.815  1.00  0.00    -0.073 N
ATOM     21  H43 UNL     1      35.456  66.916-151.125  1.00  0.00     0.274 HD
ATOM     22  H42 UNL     1      36.151  67.783-150.038  1.00  0.00     0.274 HD
ATOM     23  H41 UNL     1      36.895  67.681-151.542  1.00  0.00     0.274 HD
ENDBRANCH   4  20
TORSDOF 7
ENDMDL