MODEL 1
REMARK VINA RESULT: -5.733822913      0.000      0.000
REMARK  7 active torsions:
REMARK  status: ('A' for Active; 'I' for Inactive)
REMARK    1  A    between atoms: C3_3  and  C4_4
REMARK    2  A    between atoms: C3_3  and  N2_12
REMARK    3  A    between atoms: C4_4  and  C5_5
REMARK    4  A    between atoms: C5_5  and  C6_6
REMARK    5  A    between atoms: C6_6  and  C7_7
REMARK    6  A    between atoms: C7_7  and  N1_8
REMARK    7  A    between atoms: N2_12  and  C8_14
ROOT
HETATM    1  C1  UNL     1      38.343  66.697-151.478  1.00  0.00     0.014 C
HETATM    2  C2  UNL     1      37.620  65.749-151.661  1.00  0.00    -0.091 C
HETATM    3  C3  UNL     1      36.759  64.598-151.861  1.00  0.00     0.178 C
ENDROOT
BRANCH   3   4
HETATM    4  C4  UNL     1      36.596  64.264-153.348  1.00  0.00     0.039 C
BRANCH   4   5
HETATM    5  C5  UNL     1      37.904  64.017-154.002  1.00  0.00     0.004 C
BRANCH   5   6
HETATM    6  C6  UNL     1      38.477  62.688-153.656  1.00  0.00     0.027 C
BRANCH   6   7
HETATM    7  C7  UNL     1      39.911  62.606-153.309  1.00  0.00     0.229 C
BRANCH   7   8
HETATM    8  N1  UNL     1      40.403  63.434-152.270  1.00  0.00    -0.079 N
ATOM      9  H13 UNL     1      40.125  63.039-151.372  1.00  0.00     0.274 HD
ATOM     10  H12 UNL     1      41.417  63.338-152.222  1.00  0.00     0.274 HD
ATOM     11  H11 UNL     1      40.164  64.425-152.285  1.00  0.00     0.274 HD
ENDBRANCH   7   8
ENDBRANCH   6   7
ENDBRANCH   5   6
ENDBRANCH   4   5
ENDBRANCH   3   4
BRANCH   3  12
HETATM   12  N2  UNL     1      35.461  64.816-151.260  1.00  0.00    -0.209 N
ATOM     13  H2  UNL     1      34.638  64.428-151.721  1.00  0.00     0.179 HD
BRANCH  12  14
HETATM   14  C8  UNL     1      35.302  65.480-150.167  1.00  0.00     0.704 A
HETATM   15  N3  UNL     1      34.983  66.777-150.050  1.00  0.00    -0.117 N
HETATM   16  N4  UNL     1      34.917  67.062-148.746  1.00  0.00     0.006 NA
ATOM     17  H3  UNL     1      34.819  67.428-150.818  1.00  0.00     0.202 HD
HETATM   18  N5  UNL     1      35.186  65.982-148.034  1.00  0.00     0.006 NA
HETATM   19  N6  UNL     1      35.419  65.021-148.911  1.00  0.00    -0.117 N
ATOM     20  H6  UNL     1      35.657  64.059-148.667  1.00  0.00     0.202 HD
ENDBRANCH  12  14
ENDBRANCH   3  12
TORSDOF 7
ENDMDL