MODEL 5
REMARK VINA RESULT: -4.053272024      1.502      4.241
REMARK  8 active torsions:
REMARK  status: ('A' for Active; 'I' for Inactive)
REMARK    1  A    between atoms: C2_2  and  N1_3
REMARK    2  A    between atoms: C2_2  and  C3_7
REMARK    3  A    between atoms: C3_7  and  C4_8
REMARK    4  A    between atoms: C4_8  and  N2_9
REMARK    5  A    between atoms: C6_17  and  O1_18
REMARK    6  A    between atoms: O1_18  and  C7_19
REMARK    7  A    between atoms: C7_19  and  C8_20
REMARK    8  A    between atoms: C8_20  and  N4_21
ROOT
HETATM    1  C4  UNL     1      37.970  65.258-151.472  1.00  0.00     0.313 C
HETATM    2  N3  UNL     1      38.383  66.380-152.430  1.00  0.00    -0.035 N
ATOM      3  H31 UNL     1      37.835  66.645-153.248  1.00  0.00     0.280 HD
ATOM      4  H32 UNL     1      39.175  66.306-153.067  1.00  0.00     0.280 HD
HETATM    5  C5  UNL     1      38.416  67.157-151.220  1.00  0.00     0.271 C
HETATM    6  C6  UNL     1      37.225  66.274-150.726  1.00  0.00     0.211 C
ENDROOT
BRANCH   1   7
HETATM    7  C3  UNL     1      37.322  64.163-152.233  1.00  0.00     0.104 C
BRANCH   7   8
HETATM    8  C2  UNL     1      37.958  63.797-153.527  1.00  0.00     0.183 C
HETATM    9  C1  UNL     1      38.626  62.491-153.633  1.00  0.00     0.040 C
BRANCH   8  10
HETATM   10  N1  UNL     1      36.851  63.762-154.509  1.00  0.00    -0.075 N
ATOM     11  H13 UNL     1      36.301  62.904-154.474  1.00  0.00     0.274 HD
ATOM     12  H12 UNL     1      36.089  64.403-154.288  1.00  0.00     0.274 HD
ATOM     13  H11 UNL     1      37.282  63.936-155.416  1.00  0.00     0.274 HD
ENDBRANCH   8  10
ENDBRANCH   7   8
ENDBRANCH   1   7
BRANCH   1  14
HETATM   14  N2  UNL     1      39.305  64.872-150.950  1.00  0.00    -0.042 N
ATOM     15  H23 UNL     1      39.439  63.862-150.994  1.00  0.00     0.277 HD
ATOM     16  H22 UNL     1      40.046  65.163-151.587  1.00  0.00     0.277 HD
ATOM     17  H21 UNL     1      39.471  65.224-150.007  1.00  0.00     0.277 HD
ENDBRANCH   1  14
BRANCH   6  18
HETATM   18  O1  UNL     1      36.039  66.785-151.127  1.00  0.00    -0.378 OA
BRANCH  18  19
HETATM   19  C7  UNL     1      34.872  66.383-150.655  1.00  0.00     0.195 C
BRANCH  19  20
HETATM   20  C8  UNL     1      34.775  65.495-149.454  1.00  0.00     0.255 C
BRANCH  20  21
HETATM   21  N4  UNL     1      34.794  66.166-148.193  1.00  0.00    -0.077 N
ATOM     22  H43 UNL     1      35.517  65.767-147.595  1.00  0.00     0.274 HD
ATOM     23  H42 UNL     1      35.156  67.113-148.306  1.00  0.00     0.274 HD
ATOM     24  H41 UNL     1      33.903  66.189-147.698  1.00  0.00     0.274 HD
ENDBRANCH  20  21
ENDBRANCH  19  20
ENDBRANCH  18  19
ENDBRANCH   6  18
TORSDOF 8
ENDMDL