MODEL 5
REMARK VINA RESULT: -4.696305104      1.287      6.296
REMARK  7 active torsions:
REMARK  status: ('A' for Active; 'I' for Inactive)
REMARK    1  A    between atoms: N1_1  and  C1_5
REMARK    2  A    between atoms: C1_5  and  C2_6
REMARK    3  A    between atoms: C2_6  and  N2_7
REMARK    4  A    between atoms: N2_7  and  C3_10
REMARK    5  A    between atoms: C3_10  and  C4_11
REMARK    6  A    between atoms: C4_11  and  N3_12
REMARK    7  A    between atoms: N3_12  and  C5_15
ROOT
HETATM    1  N3  UNL     1      36.710  63.708-154.083  1.00  0.00    -0.069 N
ATOM      2  H31 UNL     1      36.199  63.759-154.964  1.00  0.00     0.277 HD
ATOM      3  H32 UNL     1      36.425  62.771-153.796  1.00  0.00     0.277 HD
ENDROOT
BRANCH   1   4
HETATM    4  C4  UNL     1      36.260  64.727-153.135  1.00  0.00     0.260 C
BRANCH   4   5
HETATM    5  C3  UNL     1      35.923  64.096-151.808  1.00  0.00     0.259 C
BRANCH   5   6
HETATM    6  N2  UNL     1      36.792  64.515-150.761  1.00  0.00    -0.072 N
ATOM      7  H22 UNL     1      37.352  65.322-151.038  1.00  0.00     0.277 HD
ATOM      8  H21 UNL     1      37.547  63.846-150.609  1.00  0.00     0.277 HD
BRANCH   6   9
HETATM    9  C2  UNL     1      36.072  64.765-149.569  1.00  0.00     0.259 C
BRANCH   9  10
HETATM   10  C1  UNL     1      34.892  65.699-149.730  1.00  0.00     0.257 C
BRANCH  10  11
HETATM   11  N1  UNL     1      35.349  67.059-149.925  1.00  0.00    -0.078 N
ATOM     12  H13 UNL     1      36.181  67.100-150.514  1.00  0.00     0.274 HD
ATOM     13  H12 UNL     1      34.714  67.591-150.520  1.00  0.00     0.274 HD
ATOM     14  H11 UNL     1      35.498  67.516-149.025  1.00  0.00     0.274 HD
ENDBRANCH  10  11
ENDBRANCH   9  10
ENDBRANCH   6   9
ENDBRANCH   5   6
ENDBRANCH   4   5
ENDBRANCH   1   4
BRANCH   1  15
HETATM   15  C5  UNL     1      38.104  63.796-154.278  1.00  0.00     0.193 C
HETATM   16  C6  UNL     1      38.541  63.659-155.737  1.00  0.00     0.066 C
HETATM   17  C7  UNL     1      39.662  62.640-155.720  1.00  0.00     0.188 C
HETATM   18  C8  UNL     1      40.259  62.958-154.345  1.00  0.00     0.041 C
HETATM   19  N4  UNL     1      39.099  61.350-155.485  1.00  0.00    -0.070 N
HETATM   20  C9  UNL     1      38.923  62.756-153.597  1.00  0.00     0.044 C
HETATM   21  C10 UNL     1      38.632  61.363-154.093  1.00  0.00     0.239 C
ATOM     22  H42 UNL     1      38.375  61.094-156.155  1.00  0.00     0.277 HD
ATOM     23  H41 UNL     1      39.738  60.583-155.693  1.00  0.00     0.277 HD
ENDBRANCH   1  15
TORSDOF 7
ENDMDL