MODEL 1
REMARK VINA RESULT: -5.434870424      0.000      0.000
REMARK  6 active torsions:
REMARK  status: ('A' for Active; 'I' for Inactive)
REMARK    1  A    between atoms: C2_2  and  C3_3
REMARK    2  A    between atoms: C3_3  and  N1_4
REMARK    3  A    between atoms: N1_4  and  C4_7
REMARK    4  A    between atoms: C4_7  and  C5_8
REMARK    5  A    between atoms: C5_8  and  N2_9
REMARK    6  A    between atoms: N2_9  and  C6_11
ROOT
HETATM    1  C6  UNL     1      37.961  62.746-153.884  1.00  0.00     0.709 A
HETATM    2  N3  UNL     1      37.979  61.420-154.215  1.00  0.00    -0.020 N
ATOM      3  H3  UNL     1      37.192  60.903-154.608  1.00  0.00     0.203 HD
HETATM    4  C7  UNL     1      39.168  60.906-153.948  1.00  0.00     0.705 A
HETATM    5  N4  UNL     1      39.618  59.698-154.104  1.00  0.00    -0.233 N
ATOM      6  H41 UNL     1      40.535  59.302-153.898  1.00  0.00     0.174 HD
ATOM      7  H42 UNL     1      39.035  58.954-154.488  1.00  0.00     0.174 HD
HETATM    8  N5  UNL     1      39.935  61.886-153.444  1.00  0.00    -0.116 N
ATOM      9  H5  UNL     1      40.905  61.800-153.141  1.00  0.00     0.206 HD
HETATM   10  N6  UNL     1      39.186  63.000-153.411  1.00  0.00    -0.114 N
HETATM   11  C8  UNL     1      39.642  64.299-152.929  1.00  0.00     0.198 C
ENDROOT
BRANCH   1  12
HETATM   12  N2  UNL     1      36.922  63.475-154.045  1.00  0.00    -0.223 N
ATOM     13  H2  UNL     1      36.314  63.211-154.820  1.00  0.00     0.177 HD
BRANCH  12  14
HETATM   14  C5  UNL     1      36.502  64.600-153.293  1.00  0.00     0.165 C
BRANCH  14  15
HETATM   15  C4  UNL     1      35.879  64.102-151.996  1.00  0.00     0.252 C
BRANCH  15  16
HETATM   16  N1  UNL     1      36.644  64.568-150.850  1.00  0.00    -0.071 N
ATOM     17  H12 UNL     1      37.646  64.427-150.981  1.00  0.00     0.277 HD
ATOM     18  H11 UNL     1      36.511  63.969-150.036  1.00  0.00     0.277 HD
BRANCH  16  19
HETATM   19  C3  UNL     1      36.330  65.951-150.558  1.00  0.00     0.259 C
BRANCH  19  20
HETATM   20  C2  UNL     1      34.948  66.003-150.029  1.00  0.00    -0.010 C
HETATM   21  C1  UNL     1      34.731  65.996-148.707  1.00  0.00     0.008 C
ENDBRANCH  19  20
ENDBRANCH  16  19
ENDBRANCH  15  16
ENDBRANCH  14  15
ENDBRANCH  12  14
ENDBRANCH   1  12
TORSDOF 6
ENDMDL