MODEL 5
REMARK VINA RESULT: -4.863081979      1.588      1.881
REMARK  7 active torsions:
REMARK  status: ('A' for Active; 'I' for Inactive)
REMARK    1  A    between atoms: C2_2  and  O1_3
REMARK    2  A    between atoms: C2_2  and  C3_5
REMARK    3  A    between atoms: C3_5  and  N1_6
REMARK    4  A    between atoms: C3_5  and  C4_10
REMARK    5  A    between atoms: C4_10  and  N2_11
REMARK    6  A    between atoms: C4_10  and  C5_15
REMARK    7  A    between atoms: C5_15  and  N3_16
ROOT
HETATM    1  C4  UNL     1      36.890  65.109-151.753  1.00  0.00     0.254 C
ENDROOT
BRANCH   1   2
HETATM    2  C3  UNL     1      35.909  64.999-150.633  1.00  0.00     0.246 C
BRANCH   2   3
HETATM    3  C2  UNL     1      35.362  66.254-150.072  1.00  0.00     0.146 C
HETATM    4  C1  UNL     1      34.704  66.052-148.709  1.00  0.00     0.041 C
BRANCH   3   5
HETATM    5  O1  UNL     1      36.179  67.336-150.018  1.00  0.00    -0.394 OA
ATOM      6  H1  UNL     1      35.824  67.966-149.401  1.00  0.00     0.210 HD
ENDBRANCH   3   5
ENDBRANCH   2   3
BRANCH   2   7
HETATM    7  N1  UNL     1      36.524  64.235-149.540  1.00  0.00    -0.070 N
ATOM      8  H13 UNL     1      37.300  63.654-149.855  1.00  0.00     0.274 HD
ATOM      9  H12 UNL     1      37.047  64.826-148.893  1.00  0.00     0.274 HD
ATOM     10  H11 UNL     1      35.792  63.696-149.076  1.00  0.00     0.274 HD
ENDBRANCH   2   7
ENDBRANCH   1   2
BRANCH   1  11
HETATM   11  N2  UNL     1      38.262  65.118-151.179  1.00  0.00    -0.068 N
ATOM     12  H23 UNL     1      38.795  65.943-151.451  1.00  0.00     0.275 HD
ATOM     13  H22 UNL     1      38.264  65.277-150.171  1.00  0.00     0.275 HD
ATOM     14  H21 UNL     1      38.727  64.248-151.439  1.00  0.00     0.275 HD
ENDBRANCH   1  11
BRANCH   1  15
HETATM   15  C5  UNL     1      36.832  63.897-152.667  1.00  0.00     0.092 C
BRANCH  15  16
HETATM   16  N3  UNL     1      37.957  63.738-153.479  1.00  0.00    -0.391 N
HETATM   17  C6  UNL     1      38.127  64.509-154.648  1.00  0.00     0.122 C
HETATM   18  C7  UNL     1      38.589  63.502-155.735  1.00  0.00     0.021 C
HETATM   19  C8  UNL     1      39.436  62.579-154.891  1.00  0.00     0.021 C
HETATM   20  C9  UNL     1      38.565  62.467-153.626  1.00  0.00     0.122 C
ENDBRANCH  15  16
ENDBRANCH   1  15
TORSDOF 7
ENDMDL