MODEL 1
REMARK VINA RESULT: -5.121484194      0.000      0.000
REMARK  7 active torsions:
REMARK  status: ('A' for Active; 'I' for Inactive)
REMARK    1  A    between atoms: N1_1  and  C1_4
REMARK    2  A    between atoms: C4_9  and  N3_10
REMARK    3  A    between atoms: N3_10  and  C5_12
REMARK    4  A    between atoms: C5_12  and  C6_13
REMARK    5  A    between atoms: C6_13  and  C7_14
REMARK    6  A    between atoms: C7_14  and  C8_15
REMARK    7  A    between atoms: C8_15  and  N4_16
ROOT
HETATM    1  C1  UNL     1      39.374  60.849-154.033  1.00  0.00     0.116 A
HETATM    2  C2  UNL     1      40.479  61.514-153.512  1.00  0.00     0.066 A
HETATM    3  C3  UNL     1      40.305  62.767-153.018  1.00  0.00     0.110 A
HETATM    4  N2  UNL     1      39.097  63.348-153.032  1.00  0.00    -0.202 N
ATOM      5  H2  UNL     1      38.984  64.289-152.657  1.00  0.00     0.183 HD
HETATM    6  C4  UNL     1      38.038  62.703-153.536  1.00  0.00     0.679 A
HETATM    7  N5  UNL     1      38.205  61.467-154.024  1.00  0.00    -0.177 N
ATOM      8  H5  UNL     1      37.394  60.981-154.406  1.00  0.00     0.185 HD
ENDROOT
BRANCH   6   9
HETATM    9  N3  UNL     1      36.872  63.201-153.577  1.00  0.00    -0.226 N
ATOM     10  H3  UNL     1      36.124  62.663-154.014  1.00  0.00     0.177 HD
BRANCH   9  11
HETATM   11  C5  UNL     1      36.555  64.538-153.012  1.00  0.00     0.138 C
BRANCH  11  12
HETATM   12  C6  UNL     1      35.830  64.226-151.735  1.00  0.00     0.022 C
BRANCH  12  13
HETATM   13  C7  UNL     1      35.492  65.352-150.846  1.00  0.00     0.029 C
BRANCH  13  14
HETATM   14  C8  UNL     1      35.824  65.141-149.412  1.00  0.00     0.229 C
BRANCH  14  15
HETATM   15  N4  UNL     1      37.110  64.606-149.132  1.00  0.00    -0.079 N
ATOM     16  H43 UNL     1      37.244  63.742-149.658  1.00  0.00     0.274 HD
ATOM     17  H42 UNL     1      37.827  65.195-149.556  1.00  0.00     0.274 HD
ATOM     18  H41 UNL     1      37.332  64.447-148.149  1.00  0.00     0.274 HD
ENDBRANCH  14  15
ENDBRANCH  13  14
ENDBRANCH  12  13
ENDBRANCH  11  12
ENDBRANCH   9  11
ENDBRANCH   6   9
BRANCH   1  19
HETATM   19  N1  UNL     1      39.483  59.650-154.519  1.00  0.00    -0.385 N
ATOM     20  H12 UNL     1      39.257  59.465-155.497  1.00  0.00     0.157 HD
ATOM     21  H11 UNL     1      39.796  58.874-153.936  1.00  0.00     0.157 HD
ENDBRANCH   1  19
TORSDOF 7
ENDMDL