MODEL 3
REMARK VINA RESULT: -5.188162599      2.800      5.525
REMARK  7 active torsions:
REMARK  status: ('A' for Active; 'I' for Inactive)
REMARK    1  A    between atoms: C2_2  and  C3_3
REMARK    2  A    between atoms: C3_3  and  N1_4
REMARK    3  A    between atoms: N1_4  and  C4_6
REMARK    4  A    between atoms: C4_6  and  C5_7
REMARK    5  A    between atoms: C5_7  and  N2_8
REMARK    6  A    between atoms: N2_8  and  C6_10
REMARK    7  A    between atoms: C7_16  and  N5_17
ROOT
HETATM    1  C6  UNL     1      38.442  64.087-152.915  1.00  0.00     0.169 A
HETATM    2  N3  UNL     1      39.387  63.132-152.921  1.00  0.00    -0.222 N
ATOM      3  H3  UNL     1      40.304  63.215-152.481  1.00  0.00     0.198 HD
HETATM    4  O1  UNL     1      38.968  62.096-153.564  1.00  0.00    -0.153 OA
HETATM    5  N4  UNL     1      37.751  62.301-154.007  1.00  0.00    -0.222 N
ATOM      6  H4  UNL     1      37.183  61.647-154.544  1.00  0.00     0.198 HD
HETATM    7  C7  UNL     1      37.388  63.561-153.612  1.00  0.00     0.167 A
ENDROOT
BRANCH   1   8
HETATM    8  N2  UNL     1      38.476  65.269-152.402  1.00  0.00    -0.370 N
ATOM      9  H2  UNL     1      38.869  66.034-152.949  1.00  0.00     0.161 HD
BRANCH   8  10
HETATM   10  C5  UNL     1      37.968  65.548-151.058  1.00  0.00     0.140 C
BRANCH  10  11
HETATM   11  C4  UNL     1      37.697  67.061-150.980  1.00  0.00     0.133 C
BRANCH  11  12
HETATM   12  N1  UNL     1      36.338  67.211-150.597  1.00  0.00    -0.417 N
ATOM     13  H1  UNL     1      36.012  68.061-150.138  1.00  0.00     0.153 HD
BRANCH  12  14
HETATM   14  C3  UNL     1      35.450  66.146-150.870  1.00  0.00     0.140 C
BRANCH  14  15
HETATM   15  C2  UNL     1      34.451  65.937-149.791  1.00  0.00    -0.018 C
HETATM   16  C1  UNL     1      34.731  65.980-148.493  1.00  0.00     0.008 C
ENDBRANCH  14  15
ENDBRANCH  12  14
ENDBRANCH  11  12
ENDBRANCH  10  11
ENDBRANCH   8  10
ENDBRANCH   1   8
BRANCH   7  17
HETATM   17  N5  UNL     1      36.245  64.074-153.898  1.00  0.00    -0.381 N
ATOM     18  H52 UNL     1      35.773  64.741-153.287  1.00  0.00     0.157 HD
ATOM     19  H51 UNL     1      35.642  63.925-154.706  1.00  0.00     0.157 HD
ENDBRANCH   7  17
TORSDOF 7
ENDMDL