MODEL 4
REMARK VINA RESULT: -4.519869509      1.701      5.723
REMARK  6 active torsions:
REMARK  status: ('A' for Active; 'I' for Inactive)
REMARK    1  A    between atoms: N1_2  and  C2_5
REMARK    2  A    between atoms: C2_5  and  C3_6
REMARK    3  A    between atoms: C3_6  and  N2_7
REMARK    4  A    between atoms: N2_7  and  C4_9
REMARK    5  A    between atoms: C4_9  and  C5_10
REMARK    6  A    between atoms: C7_14  and  N4_15
ROOT
HETATM    1  C5  UNL     1      38.093  63.697-153.261  1.00  0.00     0.011 A
HETATM    2  C6  UNL     1      39.168  64.250-152.619  1.00  0.00     0.120 A
HETATM    3  N3  UNL     1      40.321  63.551-152.516  1.00  0.00    -0.201 N
ATOM      4  H3  UNL     1      41.122  63.963-152.037  1.00  0.00     0.183 HD
HETATM    5  C7  UNL     1      40.419  62.319-153.040  1.00  0.00     0.675 A
HETATM    6  N5  UNL     1      39.371  61.764-153.674  1.00  0.00    -0.201 N
ATOM      7  H5  UNL     1      39.457  60.827-154.068  1.00  0.00     0.183 HD
HETATM    8  C8  UNL     1      38.196  62.441-153.796  1.00  0.00     0.120 A
ENDROOT
BRANCH   1   9
HETATM    9  C4  UNL     1      36.838  64.460-153.373  1.00  0.00     0.097 C
BRANCH   9  10
HETATM   10  N2  UNL     1      35.848  63.898-152.562  1.00  0.00    -0.396 N
ATOM     11  H2  UNL     1      35.229  63.173-152.926  1.00  0.00     0.158 HD
BRANCH  10  12
HETATM   12  C3  UNL     1      35.720  64.351-151.237  1.00  0.00     0.146 C
BRANCH  12  13
HETATM   13  C2  UNL     1      35.911  65.870-151.230  1.00  0.00     0.251 C
BRANCH  13  14
HETATM   14  N1  UNL     1      34.847  66.532-150.502  1.00  0.00    -0.077 N
HETATM   15  C1  UNL     1      34.636  65.818-149.279  1.00  0.00     0.267 C
ATOM     16  H12 UNL     1      33.995  66.631-151.054  1.00  0.00     0.276 HD
ATOM     17  H11 UNL     1      35.029  67.524-150.353  1.00  0.00     0.276 HD
ENDBRANCH  13  14
ENDBRANCH  12  13
ENDBRANCH  10  12
ENDBRANCH   9  10
ENDBRANCH   1   9
BRANCH   5  18
HETATM   18  N4  UNL     1      41.520  61.633-152.951  1.00  0.00    -0.234 N
ATOM     19  H42 UNL     1      41.700  60.913-153.651  1.00  0.00     0.174 HD
ATOM     20  H41 UNL     1      42.192  61.805-152.203  1.00  0.00     0.174 HD
ENDBRANCH   5  18
TORSDOF 6
ENDMDL