MODEL 3
REMARK VINA RESULT: -4.515956728      1.363      1.624
REMARK  6 active torsions:
REMARK  status: ('A' for Active; 'I' for Inactive)
REMARK    1  A    between atoms: C2_2  and  C3_3
REMARK    2  A    between atoms: C3_3  and  N1_4
REMARK    3  A    between atoms: N1_4  and  C4_6
REMARK    4  A    between atoms: C7_10  and  N2_11
REMARK    5  A    between atoms: N2_11  and  C8_13
REMARK    6  A    between atoms: C8_13  and  N3_15
ROOT
HETATM    1  C4  UNL     1      37.429  65.356-150.964  1.00  0.00     0.129 C
HETATM    2  C5  UNL     1      38.875  65.551-150.530  1.00  0.00     0.195 C
HETATM    3  O1  UNL     1      39.477  66.306-151.520  1.00  0.00    -0.387 OA
HETATM    4  C6  UNL     1      38.585  66.448-152.572  1.00  0.00     0.194 C
HETATM    5  C7  UNL     1      37.757  65.184-152.482  1.00  0.00     0.127 C
ENDROOT
BRANCH   5   6
HETATM    6  N2  UNL     1      38.475  63.986-152.596  1.00  0.00    -0.388 N
ATOM      7  H2  UNL     1      39.360  63.876-152.102  1.00  0.00     0.155 HD
BRANCH   6   8
HETATM    8  C8  UNL     1      37.980  62.927-153.392  1.00  0.00     0.273 C
HETATM    9  C9  UNL     1      39.020  62.175-154.193  1.00  0.00     0.062 C
BRANCH   8  10
HETATM   10  N3  UNL     1      37.009  63.457-154.336  1.00  0.00    -0.059 N
ATOM     11  H33 UNL     1      36.500  64.257-153.960  1.00  0.00     0.276 HD
ATOM     12  H32 UNL     1      37.453  63.928-155.125  1.00  0.00     0.276 HD
ATOM     13  H31 UNL     1      36.387  62.705-154.632  1.00  0.00     0.276 HD
ENDBRANCH   8  10
ENDBRANCH   6   8
ENDBRANCH   5   6
BRANCH   1  14
HETATM   14  N1  UNL     1      36.603  66.457-150.761  1.00  0.00    -0.390 N
ATOM     15  H1  UNL     1      37.039  67.348-150.526  1.00  0.00     0.159 HD
BRANCH  14  16
HETATM   16  C3  UNL     1      35.222  66.412-150.860  1.00  0.00     0.082 C
BRANCH  16  17
HETATM   17  C2  UNL     1      34.418  65.987-149.705  1.00  0.00     0.006 C
HETATM   18  C1  UNL     1      34.757  65.966-148.438  1.00  0.00     0.012 C
ENDBRANCH  16  17
ENDBRANCH  14  16
ENDBRANCH   1  14
TORSDOF 6
ENDMDL