MODEL 3
REMARK VINA RESULT: -5.492855021      1.683      2.034
REMARK  5 active torsions:
REMARK  status: ('A' for Active; 'I' for Inactive)
REMARK    1  A    between atoms: C2_3  and  N2_4
REMARK    2  A    between atoms: N2_4  and  C3_7
REMARK    3  A    between atoms: C3_7  and  C4_8
REMARK    4  A    between atoms: C4_8  and  C5_9
REMARK    5  A    between atoms: C5_9  and  N3_10
ROOT
HETATM    1  N1  UNL     1      35.139  65.970-147.593  1.00  0.00    -0.196 NA
HETATM    2  C1  UNL     1      34.746  65.957-148.699  1.00  0.00     0.086 C
HETATM    3  C2  UNL     1      34.241  65.922-150.073  1.00  0.00     0.355 C
ENDROOT
BRANCH   3   4
HETATM    4  N2  UNL     1      35.151  66.649-150.935  1.00  0.00    -0.063 N
ATOM      5  H22 UNL     1      34.790  66.717-151.886  1.00  0.00     0.278 HD
ATOM      6  H21 UNL     1      35.171  67.642-150.703  1.00  0.00     0.278 HD
BRANCH   4   7
HETATM    7  C3  UNL     1      36.492  66.067-150.911  1.00  0.00     0.235 C
BRANCH   7   8
HETATM    8  C4  UNL     1      36.555  64.821-151.745  1.00  0.00     0.050 C
BRANCH   8   9
HETATM    9  C5  UNL     1      37.805  64.646-152.523  1.00  0.00     0.177 C
BRANCH   9  10
HETATM   10  N3  UNL     1      37.713  64.537-153.927  1.00  0.00    -0.089 N
HETATM   11  O1  UNL     1      37.356  65.607-154.691  1.00  0.00    -0.263 OA
HETATM   12  C6  UNL     1      38.515  65.881-155.452  1.00  0.00     0.222 C
HETATM   13  C7  UNL     1      38.823  64.799-156.456  1.00  0.00     0.166 C
HETATM   14  N4  UNL     1      38.411  63.488-156.029  1.00  0.00    -0.223 N
HETATM   15  C8  UNL     1      37.987  63.349-154.662  1.00  0.00     0.693 C
ATOM     16  H4  UNL     1      38.419  62.692-156.668  1.00  0.00     0.177 HD
HETATM   17  N5  UNL     1      37.853  62.215-154.073  1.00  0.00    -0.233 N
ATOM     18  H52 UNL     1      37.552  62.117-153.103  1.00  0.00     0.174 HD
ATOM     19  H51 UNL     1      38.049  61.364-154.599  1.00  0.00     0.174 HD
ENDBRANCH   9  10
ENDBRANCH   8   9
ENDBRANCH   7   8
ENDBRANCH   4   7
ENDBRANCH   3   4
TORSDOF 5
ENDMDL