MODEL 3
REMARK VINA RESULT: -4.979303602      1.967      3.104
REMARK  2 active torsions:
REMARK  status: ('A' for Active; 'I' for Inactive)
REMARK    1  A    between atoms: O1_1  and  C1_3
REMARK    2  A    between atoms: C7_9  and  O2_10
ROOT
HETATM    1  C1  UNL     1      44.529  -1.325  28.225  1.00  0.00     0.147 C
HETATM    2  C2  UNL     1      44.464  -1.489  26.748  1.00  0.00     0.034 C
HETATM    3  C3  UNL     1      44.244  -2.862  26.259  1.00  0.00     0.002 C
HETATM    4  C4  UNL     1      43.826  -3.854  27.304  1.00  0.00     0.000 C
HETATM    5  C5  UNL     1      42.532  -3.538  27.970  1.00  0.00     0.002 C
HETATM    6  C6  UNL     1      42.747  -2.667  29.193  1.00  0.00     0.034 C
HETATM    7  C7  UNL     1      43.137  -1.277  28.777  1.00  0.00     0.147 C
ENDROOT
BRANCH   1   8
HETATM    8  O1  UNL     1      45.154  -0.100  28.524  1.00  0.00    -0.393 OA
ATOM      9  H1  UNL     1      44.569   0.611  28.295  1.00  0.00     0.210 HD
ENDBRANCH   1   8
BRANCH   7  10
HETATM   10  O2  UNL     1      42.985  -0.388  29.828  1.00  0.00    -0.393 OA
ATOM     11  H2  UNL     1      42.106  -0.037  29.907  1.00  0.00     0.210 HD
ENDBRANCH   7  10
TORSDOF 2
ENDMDL