MODEL 3
REMARK VINA RESULT: -5.019974530      1.675      2.758
REMARK  2 active torsions:
REMARK  status: ('A' for Active; 'I' for Inactive)
REMARK    1  A    between atoms: C4_4  and  O1_5
REMARK    2  A    between atoms: C7_9  and  O2_10
ROOT
HETATM    1  C1  UNL     1      43.866  -3.782  25.146  1.00  0.00     0.012 C
HETATM    2  C2  UNL     1      44.280  -3.157  26.473  1.00  0.00     0.013 C
HETATM    3  C3  UNL     1      43.205  -3.489  27.469  1.00  0.00     0.038 C
HETATM    4  C4  UNL     1      43.445  -2.895  28.829  1.00  0.00     0.118 C
HETATM    5  C5  UNL     1      43.917  -1.479  28.781  1.00  0.00     0.034 C
HETATM    6  C6  UNL     1      43.889  -0.863  27.420  1.00  0.00     0.034 C
HETATM    7  C7  UNL     1      44.523  -1.685  26.351  1.00  0.00     0.122 C
ENDROOT
BRANCH   4   8
HETATM    8  O1  UNL     1      42.232  -3.034  29.539  1.00  0.00    -0.396 OA
ATOM      9  H1  UNL     1      42.424  -2.802  30.440  1.00  0.00     0.210 HD
ENDBRANCH   4   8
BRANCH   7  10
HETATM   10  O2  UNL     1      44.043  -1.198  25.113  1.00  0.00    -0.395 OA
ATOM     11  H2  UNL     1      43.451  -0.466  25.245  1.00  0.00     0.210 HD
ENDBRANCH   7  10
TORSDOF 2
ENDMDL