MODEL 2
REMARK VINA RESULT: -4.032351832      1.084      1.164
REMARK  3 active torsions:
REMARK  status: ('A' for Active; 'I' for Inactive)
REMARK    1  A    between atoms: S1_2  and  C2_3
REMARK    2  A    between atoms: C2_3  and  N2_7
REMARK    3  A    between atoms: N2_7  and  C3_9
ROOT
HETATM    1  C2  UNL     1      42.622  -4.218  28.293  1.00  0.00     0.133 C
HETATM    2  N1  UNL     1      42.154  -5.351  28.691  1.00  0.00    -0.380 N
ATOM      3  H11 UNL     1      42.549  -6.186  28.257  1.00  0.00     0.158 HD
ATOM      4  H12 UNL     1      41.426  -5.402  29.403  1.00  0.00     0.158 HD
ENDROOT
BRANCH   1   5
HETATM    5  S1  UNL     1      41.930  -2.758  29.052  1.00  0.00    -0.099 SA
HETATM    6  C1  UNL     1      40.234  -2.991  29.584  1.00  0.00     0.099 C
ENDBRANCH   1   5
BRANCH   1   7
HETATM    7  N2  UNL     1      43.637  -4.148  27.300  1.00  0.00    -0.367 N
ATOM      8  H2  UNL     1      44.383  -4.843  27.326  1.00  0.00     0.162 HD
BRANCH   7   9
HETATM    9  C3  UNL     1      43.674  -3.163  26.269  1.00  0.00     0.075 C
HETATM   10  C4  UNL     1      44.020  -3.826  24.932  1.00  0.00     0.032 C
HETATM   11  C5  UNL     1      44.655  -2.059  26.480  1.00  0.00     0.032 C
ENDBRANCH   7   9
ENDBRANCH   1   7
TORSDOF 3
ENDMDL