MODEL 5
REMARK VINA RESULT: -4.156416965      2.253      3.197
REMARK  1 active torsions:
REMARK  status: ('A' for Active; 'I' for Inactive)
REMARK    1  A    between atoms: C2_3  and  O1_4
ROOT
HETATM    1  N1  UNL     1      41.846  -6.184  29.398  1.00  0.00    -0.194 NA
HETATM    2  C1  UNL     1      41.867  -5.024  29.249  1.00  0.00     0.097 C
HETATM    3  C2  UNL     1      41.917  -3.567  29.052  1.00  0.00     0.146 C
HETATM    4  C3  UNL     1      42.213  -2.977  30.385  1.00  0.00     0.053 C
HETATM    5  C4  UNL     1      42.849  -1.638  30.365  1.00  0.00     0.004 C
HETATM    6  C5  UNL     1      44.024  -1.595  29.428  1.00  0.00     0.000 C
HETATM    7  C6  UNL     1      43.687  -2.054  28.047  1.00  0.00     0.004 C
HETATM    8  C7  UNL     1      42.797  -3.219  27.936  1.00  0.00     0.053 C
ENDROOT
BRANCH   3   9
HETATM    9  O1  UNL     1      40.577  -3.213  28.745  1.00  0.00    -0.376 OA
ATOM     10  H1  UNL     1      40.577  -3.104  27.800  1.00  0.00     0.211 HD
ENDBRANCH   3   9
TORSDOF 1
ENDMDL