MODEL 3
REMARK VINA RESULT: -4.654023253      2.191      3.216
REMARK  0 active torsions:
REMARK  status: ('A' for Active; 'I' for Inactive)
REMARK       I    between atoms: N1_7  and  C7_8
ROOT
HETATM    1  C1  UNL     1      43.984  -0.758  26.024  1.00  0.00     0.032 C
HETATM    2  C2  UNL     1      44.605  -1.957  26.761  1.00  0.00     0.086 C
HETATM    3  C3  UNL     1      44.462  -3.186  25.963  1.00  0.00     0.025 C
HETATM    4  C4  UNL     1      43.365  -4.117  26.300  1.00  0.00     0.004 C
HETATM    5  C5  UNL     1      42.841  -4.123  27.682  1.00  0.00     0.020 C
HETATM    6  C6  UNL     1      43.021  -2.918  28.504  1.00  0.00     0.129 C
HETATM    7  N1  UNL     1      44.003  -1.970  28.065  1.00  0.00    -0.322 N
HETATM    8  C7  UNL     1      44.410  -0.972  28.990  1.00  0.00     0.286 C
HETATM    9  O1  UNL     1      45.266  -0.104  28.682  1.00  0.00    -0.630 OA
HETATM   10  O2  UNL     1      43.876  -0.918  30.267  1.00  0.00    -0.630 OA
ENDROOT
TORSDOF 0
ENDMDL