MODEL 5
REMARK VINA RESULT: -4.120077045      1.614      1.723
REMARK  2 active torsions:
REMARK  status: ('A' for Active; 'I' for Inactive)
REMARK    1  A    between atoms: C6_6  and  N1_7
REMARK    2  A    between atoms: N1_7  and  O1_8
ROOT
HETATM    1  C1  UNL     1      41.438  -1.348  29.307  1.00  0.00     0.015 C
HETATM    2  C2  UNL     1      42.591  -2.333  29.408  1.00  0.00    -0.046 C
HETATM    3  C3  UNL     1      42.750  -2.702  30.858  1.00  0.00     0.015 C
HETATM    4  C4  UNL     1      42.360  -3.556  28.584  1.00  0.00     0.010 C
HETATM    5  C5  UNL     1      43.304  -3.521  27.415  1.00  0.00     0.024 C
HETATM    6  C6  UNL     1      43.674  -2.035  27.351  1.00  0.00     0.107 C
HETATM    7  C7  UNL     1      43.857  -1.744  28.827  1.00  0.00     0.032 C
ENDROOT
BRANCH   6   8
HETATM    8  N1  UNL     1      44.915  -1.878  26.621  1.00  0.00    -0.099 NA
BRANCH   8   9
HETATM    9  O1  UNL     1      44.930  -2.780  25.617  1.00  0.00    -0.296 OA
ATOM     10  H1  UNL     1      45.205  -3.617  25.974  1.00  0.00     0.238 HD
ENDBRANCH   8   9
ENDBRANCH   6   8
TORSDOF 2
ENDMDL