MODEL 4
REMARK VINA RESULT: -4.184067067      1.566      2.357
REMARK  2 active torsions:
REMARK  status: ('A' for Active; 'I' for Inactive)
REMARK    1  A    between atoms: C4_4  and  O1_5
REMARK    2  A    between atoms: C5_7  and  O2_9
ROOT
HETATM    1  C1  UNL     1      44.691  -0.540  28.324  1.00  0.00     0.010 C
HETATM    2  C2  UNL     1      43.646  -1.408  27.691  1.00  0.00    -0.013 C
HETATM    3  C3  UNL     1      43.416  -2.682  28.481  1.00  0.00     0.039 C
HETATM    4  C4  UNL     1      42.863  -3.586  27.367  1.00  0.00     0.152 C
HETATM    5  C5  UNL     1      43.953  -3.393  26.334  1.00  0.00     0.080 C
HETATM    6  C6  UNL     1      43.593  -3.992  25.006  1.00  0.00     0.048 C
HETATM    7  C7  UNL     1      44.096  -1.906  26.310  1.00  0.00     0.044 C
ENDROOT
BRANCH   5   8
HETATM    8  O2  UNL     1      45.102  -4.019  26.797  1.00  0.00    -0.388 OA
ATOM      9  H2  UNL     1      45.161  -4.872  26.384  1.00  0.00     0.210 HD
ENDBRANCH   5   8
BRANCH   4  10
HETATM   10  O1  UNL     1      42.741  -4.882  27.794  1.00  0.00    -0.393 OA
ATOM     11  H1  UNL     1      43.592  -5.297  27.881  1.00  0.00     0.210 HD
ENDBRANCH   4  10
TORSDOF 2
ENDMDL