MODEL 3
REMARK VINA RESULT: -4.856208113      1.238      1.396
REMARK  1 active torsions:
REMARK  status: ('A' for Active; 'I' for Inactive)
REMARK    1  A    between atoms: C2_2  and  N2_6
ROOT
HETATM    1  N2  UNL     1      43.004  -2.761  27.961  1.00  0.00    -0.246 N
HETATM    2  C3  UNL     1      43.944  -1.660  27.716  1.00  0.00     0.160 C
HETATM    3  C4  UNL     1      44.234  -1.869  26.249  1.00  0.00     0.056 C
HETATM    4  C5  UNL     1      44.097  -3.396  26.163  1.00  0.00     0.150 C
HETATM    5  C6  UNL     1      43.946  -3.744  24.723  1.00  0.00     0.042 C
HETATM    6  O1  UNL     1      42.994  -3.617  26.939  1.00  0.00    -0.272 OA
ENDROOT
BRANCH   1   7
HETATM    7  C2  UNL     1      42.240  -2.846  29.146  1.00  0.00     0.093 C
HETATM    8  C1  UNL     1      41.428  -1.721  29.689  1.00  0.00     0.090 C
HETATM    9  N1  UNL     1      42.203  -3.951  29.850  1.00  0.00    -0.388 N
ATOM     10  H12 UNL     1      41.651  -4.013  30.705  1.00  0.00     0.157 HD
ATOM     11  H11 UNL     1      42.759  -4.721  29.479  1.00  0.00     0.157 HD
ENDBRANCH   1   7
TORSDOF 1
ENDMDL