MODEL 4
REMARK VINA RESULT: -4.528101192      1.605      2.035
REMARK  3 active torsions:
REMARK  status: ('A' for Active; 'I' for Inactive)
REMARK    1  A    between atoms: O1_2  and  C2_3
REMARK    2  A    between atoms: C2_3  and  N2_7
REMARK    3  A    between atoms: N2_7  and  C3_9
ROOT
HETATM    1  N2  UNL     1      43.103  -1.178  28.157  1.00  0.00    -0.352 N
ATOM      2  H2  UNL     1      42.421  -0.739  27.537  1.00  0.00     0.163 HD
ENDROOT
BRANCH   1   3
HETATM    3  C2  UNL     1      44.496  -1.052  27.878  1.00  0.00     0.212 C
HETATM    4  N1  UNL     1      45.262  -0.378  28.653  1.00  0.00    -0.366 N
ATOM      5  H12 UNL     1      46.258  -0.288  28.454  1.00  0.00     0.159 HD
ATOM      6  H11 UNL     1      44.857   0.068  29.475  1.00  0.00     0.159 HD
BRANCH   3   7
HETATM    7  O1  UNL     1      45.046  -1.659  26.761  1.00  0.00    -0.328 OA
HETATM    8  C1  UNL     1      44.335  -2.707  26.146  1.00  0.00     0.213 C
ENDBRANCH   3   7
ENDBRANCH   1   3
BRANCH   1   9
HETATM    9  C3  UNL     1      42.651  -1.921  29.308  1.00  0.00     0.085 C
HETATM   10  C4  UNL     1      41.754  -3.058  28.907  1.00  0.00     0.025 C
HETATM   11  C5  UNL     1      40.543  -2.950  29.841  1.00  0.00     0.002 C
HETATM   12  C6  UNL     1      40.453  -1.438  30.004  1.00  0.00     0.002 C
HETATM   13  C7  UNL     1      41.872  -1.022  30.218  1.00  0.00     0.025 C
ENDBRANCH   1   9
TORSDOF 3
ENDMDL