MODEL 4
REMARK VINA RESULT: -3.947863183      2.393      3.616
REMARK  2 active torsions:
REMARK  status: ('A' for Active; 'I' for Inactive)
REMARK    1  A    between atoms: C6_6  and  O1_7
REMARK    2  A    between atoms: C7_9  and  O2_10
ROOT
HETATM    1  C1  UNL     1      41.701  -2.989  28.714  1.00  0.00     0.012 C
HETATM    2  C2  UNL     1      43.185  -2.612  28.838  1.00  0.00     0.013 C
HETATM    3  C3  UNL     1      43.415  -1.159  28.715  1.00  0.00     0.007 C
HETATM    4  C4  UNL     1      43.963  -0.669  27.435  1.00  0.00     0.003 C
HETATM    5  C5  UNL     1      44.986  -1.594  26.808  1.00  0.00     0.034 C
HETATM    6  C6  UNL     1      44.252  -2.919  26.583  1.00  0.00     0.147 C
HETATM    7  C7  UNL     1      44.008  -3.481  27.953  1.00  0.00     0.150 C
ENDROOT
BRANCH   6   8
HETATM    8  O1  UNL     1      43.084  -2.725  25.870  1.00  0.00    -0.393 OA
ATOM      9  H1  UNL     1      42.520  -3.488  25.924  1.00  0.00     0.210 HD
ENDBRANCH   6   8
BRANCH   7  10
HETATM   10  O2  UNL     1      43.473  -4.752  27.839  1.00  0.00    -0.393 OA
ATOM     11  H2  UNL     1      43.809  -5.338  28.507  1.00  0.00     0.210 HD
ENDBRANCH   7  10
TORSDOF 2
ENDMDL