MODEL 4
REMARK VINA RESULT: -6.731309165      0.881      1.555
REMARK  7 active torsions:
REMARK  status: ('A' for Active; 'I' for Inactive)
REMARK    1  A    between atoms: C4_10  and  C5_11
REMARK    2  A    between atoms: C5_11  and  O1_12
REMARK    3  A    between atoms: C5_11  and  C6_14
REMARK    4  A    between atoms: C7_15  and  C8_16
REMARK    5  A    between atoms: C9_20  and  N3_21
REMARK    6  A    between atoms: N3_21  and  C10_23
REMARK    7  A    between atoms: C16_29  and  N4_30
ROOT
HETATM    1  C6  UNL     1      24.166  32.572   3.798  1.00  0.00     0.033 A
HETATM    2  C7  UNL     1      24.071  33.035   2.469  1.00  0.00     0.095 A
HETATM    3  S1  UNL     1      22.493  33.650   2.379  1.00  0.00    -0.063 SA
HETATM    4  C9  UNL     1      21.954  33.331   3.987  1.00  0.00     0.105 A
HETATM    5  C16 UNL     1      23.047  32.740   4.552  1.00  0.00     0.146 A
ENDROOT
BRANCH   1   6
HETATM    6  C5  UNL     1      25.521  32.092   4.241  1.00  0.00     0.187 C
BRANCH   6   7
HETATM    7  C4  UNL     1      25.647  30.829   5.014  1.00  0.00     0.200 C
HETATM    8  C3  UNL     1      26.727  29.935   4.412  1.00  0.00     0.220 C
HETATM    9  C2  UNL     1      28.098  30.272   4.999  1.00  0.00     0.163 C
HETATM   10  F1  UNL     1      26.847  30.153   3.046  1.00  0.00    -0.245 F
HETATM   11  N2  UNL     1      28.086  29.911   6.424  1.00  0.00    -0.354 N
HETATM   12  C1  UNL     1      26.887  30.362   7.101  1.00  0.00     0.213 C
ATOM     13  H2  UNL     1      28.838  29.400   6.885  1.00  0.00     0.163 HD
HETATM   14  N1  UNL     1      26.637  29.969   8.307  1.00  0.00    -0.365 N
HETATM   15  O6  UNL     1      26.091  31.204   6.368  1.00  0.00    -0.311 OA
ATOM     16  H12 UNL     1      27.229  29.343   8.852  1.00  0.00     0.159 HD
ATOM     17  H11 UNL     1      25.793  30.287   8.783  1.00  0.00     0.159 HD
ENDBRANCH   6   7
BRANCH   6  18
HETATM   18  O1  UNL     1      25.859  33.118   5.219  1.00  0.00    -0.388 OA
ATOM     19  H1  UNL     1      25.835  33.921   4.711  1.00  0.00     0.210 HD
ENDBRANCH   6  18
ENDBRANCH   1   6
BRANCH   2  20
HETATM   20  C8  UNL     1      25.053  33.015   1.381  1.00  0.00     0.217 C
HETATM   21  O2  UNL     1      25.605  33.972   0.877  1.00  0.00    -0.643 OA
HETATM   22  O3  UNL     1      25.397  31.742   0.865  1.00  0.00    -0.643 OA
ENDBRANCH   2  20
BRANCH   5  23
HETATM   23  N4  UNL     1      22.934  32.382   5.975  1.00  0.00    -0.112 N
HETATM   24  O4  UNL     1      22.329  31.405   6.378  1.00  0.00    -0.532 OA
HETATM   25  O5  UNL     1      23.512  33.239   6.906  1.00  0.00    -0.532 OA
ENDBRANCH   5  23
BRANCH   4  26
HETATM   26  N3  UNL     1      20.662  33.718   4.491  1.00  0.00    -0.378 N
ATOM     27  H3  UNL     1      19.957  32.986   4.404  1.00  0.00     0.160 HD
BRANCH  26  28
HETATM   28  C10 UNL     1      20.177  34.891   5.076  1.00  0.00     0.082 C
HETATM   29  C11 UNL     1      21.323  35.754   5.576  1.00  0.00     0.025 C
HETATM   30  C12 UNL     1      20.976  36.405   6.900  1.00  0.00     0.002 C
HETATM   31  C13 UNL     1      20.678  35.386   7.973  1.00  0.00     0.000 C
HETATM   32  C14 UNL     1      20.113  34.101   7.395  1.00  0.00     0.002 C
HETATM   33  C15 UNL     1      19.253  34.496   6.244  1.00  0.00     0.025 C
ENDBRANCH  26  28
ENDBRANCH   4  26
TORSDOF 7
ENDMDL