MODEL 1
REMARK VINA RESULT: -7.842258629      0.000      0.000
REMARK  7 active torsions:
REMARK  status: ('A' for Active; 'I' for Inactive)
REMARK    1  A    between atoms: C3_3  and  N1_4
REMARK    2  A    between atoms: N1_4  and  C4_6
REMARK    3  A    between atoms: C9_14  and  O1_15
REMARK    4  A    between atoms: N3_17  and  C10_18
REMARK    5  A    between atoms: C16_25  and  N4_26
REMARK    6  A    between atoms: N4_26  and  N5_28
REMARK    7  A    between atoms: N5_28  and  C17_29
ROOT
HETATM    1  C1  UNL     1      25.381  31.975   1.653  1.00  0.00     0.055 C
HETATM    2  C2  UNL     1      24.915  32.003   3.059  1.00  0.00     0.014 A
HETATM    3  C3  UNL     1      25.460  31.274   4.089  1.00  0.00     0.090 A
HETATM    4  C9  UNL     1      24.735  31.592   5.223  1.00  0.00     0.176 A
HETATM    5  N3  UNL     1      23.775  32.483   4.926  1.00  0.00    -0.275 N
HETATM    6  C16 UNL     1      23.870  32.747   3.601  1.00  0.00     0.134 A
ENDROOT
BRANCH   3   7
HETATM    7  N1  UNL     1      26.553  30.374   4.004  1.00  0.00    -0.380 N
ATOM      8  H1  UNL     1      27.475  30.763   3.804  1.00  0.00     0.160 HD
BRANCH   7   9
HETATM    9  C4  UNL     1      26.453  28.960   4.180  1.00  0.00     0.107 C
HETATM   10  C5  UNL     1      27.577  28.358   4.992  1.00  0.00     0.028 C
HETATM   11  C6  UNL     1      27.193  26.910   5.260  1.00  0.00     0.029 C
HETATM   12  C7  UNL     1      27.027  26.199   3.957  1.00  0.00     0.232 C
HETATM   13  N2  UNL     1      26.098  26.867   3.068  1.00  0.00    -0.073 N
HETATM   14  C8  UNL     1      26.425  28.243   2.854  1.00  0.00     0.257 C
ATOM     15  H22 UNL     1      26.020  26.369   2.181  1.00  0.00     0.277 HD
ATOM     16  H21 UNL     1      25.139  26.767   3.400  1.00  0.00     0.277 HD
ENDBRANCH   7   9
ENDBRANCH   3   7
BRANCH   4  17
HETATM   17  O1  UNL     1      24.978  31.056   6.493  1.00  0.00    -0.344 OA
ATOM     18  H1  UNL     1      24.373  31.112   7.224  1.00  0.00     0.219 HD
ENDBRANCH   4  17
BRANCH   6  19
HETATM   19  N4  UNL     1      23.027  33.644   2.904  1.00  0.00    -0.288 N
ATOM     20  H4  UNL     1      23.254  34.638   2.883  1.00  0.00     0.184 HD
BRANCH  19  21
HETATM   21  N5  UNL     1      21.896  33.186   2.252  1.00  0.00    -0.132 NA
BRANCH  21  22
HETATM   22  C17 UNL     1      20.677  33.741   2.803  1.00  0.00     0.130 C
HETATM   23  C18 UNL     1      19.787  34.315   1.702  1.00  0.00     0.057 C
HETATM   24  C19 UNL     1      18.552  33.463   1.831  1.00  0.00     0.123 C
HETATM   25  C20 UNL     1      17.793  33.814   3.079  1.00  0.00     0.034 C
HETATM   26  O2  UNL     1      19.121  32.222   2.202  1.00  0.00    -0.379 OA
HETATM   27  C21 UNL     1      18.718  33.265   4.165  1.00  0.00     0.036 C
HETATM   28  C22 UNL     1      19.815  32.643   3.359  1.00  0.00     0.143 C
ENDBRANCH  21  22
ENDBRANCH  19  21
ENDBRANCH   6  19
BRANCH   5  29
HETATM   29  C10 UNL     1      22.859  33.010   5.880  1.00  0.00     0.043 A
HETATM   30  C11 UNL     1      22.954  34.326   6.336  1.00  0.00     0.033 A
HETATM   31  C12 UNL     1      22.076  34.850   7.258  1.00  0.00     0.044 A
HETATM   32  C13 UNL     1      21.070  34.066   7.752  1.00  0.00     0.116 A
HETATM   33  F1  UNL     1      20.222  34.606   8.656  1.00  0.00    -0.206 F
HETATM   34  C14 UNL     1      20.960  32.756   7.308  1.00  0.00     0.044 A
HETATM   35  C15 UNL     1      21.841  32.230   6.384  1.00  0.00     0.033 A
ENDBRANCH   5  29
TORSDOF 7
ENDMDL