MODEL 4
REMARK VINA RESULT: -7.561616979      1.233      2.321
REMARK  9 active torsions:
REMARK  status: ('A' for Active; 'I' for Inactive)
REMARK    1  A    between atoms: C2_2  and  C3_3
REMARK    2  A    between atoms: C3_3  and  C4_4
REMARK    3  A    between atoms: C4_4  and  C5_5
REMARK    4  A    between atoms: C5_5  and  N1_6
REMARK    5  A    between atoms: C6_7  and  C7_8
REMARK    6  A    between atoms: N2_11  and  C10_12
REMARK    7  A    between atoms: C11_15  and  O1_16
REMARK    8  A    between atoms: C16_25  and  N5_26
REMARK    9  A    between atoms: C17_31  and  N7_32
ROOT
HETATM    1  N1  UNL     1      20.891  34.073   4.625  1.00  0.00    -0.320 N
HETATM    2  C6  UNL     1      21.021  35.281   5.249  1.00  0.00     0.090 A
HETATM    3  N4  UNL     1      19.836  35.525   5.812  1.00  0.00    -0.339 N
ATOM      4  H4  UNL     1      19.618  36.361   6.354  1.00  0.00     0.167 HD
HETATM    5  C15 UNL     1      18.970  34.534   5.576  1.00  0.00     0.123 A
HETATM    6  C16 UNL     1      17.651  34.294   5.924  1.00  0.00     0.145 A
HETATM    7  N6  UNL     1      17.040  33.165   5.525  1.00  0.00    -0.175 N
ATOM      8  H6  UNL     1      16.069  32.988   5.781  1.00  0.00     0.186 HD
HETATM    9  C17 UNL     1      17.722  32.265   4.780  1.00  0.00     0.679 A
HETATM   10  N8  UNL     1      18.988  32.495   4.444  1.00  0.00    -0.174 N
ATOM     11  H8  UNL     1      19.478  31.801   3.881  1.00  0.00     0.186 HD
HETATM   12  C18 UNL     1      19.647  33.606   4.816  1.00  0.00     0.155 A
ENDROOT
BRANCH   2  13
HETATM   13  C7  UNL     1      22.232  36.143   5.288  1.00  0.00     0.057 C
HETATM   14  C8  UNL     1      23.220  35.656   6.330  1.00  0.00     0.032 C
HETATM   15  C9  UNL     1      24.241  36.788   6.498  1.00  0.00     0.125 C
HETATM   16  N2  UNL     1      24.893  36.939   5.225  1.00  0.00    -0.361 N
HETATM   17  C13 UNL     1      24.415  36.304   4.052  1.00  0.00     0.125 C
HETATM   18  C14 UNL     1      22.940  36.135   3.962  1.00  0.00     0.032 C
BRANCH  16  19
HETATM   19  C10 UNL     1      26.062  37.761   5.160  1.00  0.00     0.148 A
HETATM   20  N3  UNL     1      26.163  39.073   5.001  1.00  0.00    -0.317 N
HETATM   21  C11 UNL     1      27.326  39.637   4.969  1.00  0.00     0.148 A
ATOM     22  H3  UNL     1      25.321  39.639   4.904  1.00  0.00     0.170 HD
HETATM   23  C12 UNL     1      28.431  38.834   5.102  1.00  0.00     0.109 A
HETATM   24  S1  UNL     1      27.716  37.293   5.271  1.00  0.00    -0.062 SA
BRANCH  21  25
HETATM   25  O1  UNL     1      27.485  41.043   4.799  1.00  0.00    -0.346 OA
ATOM     26  H1  UNL     1      27.280  41.482   3.982  1.00  0.00     0.219 HD
ENDBRANCH  21  25
ENDBRANCH  16  19
ENDBRANCH   2  13
BRANCH   1  27
HETATM   27  C5  UNL     1      21.936  33.399   3.889  1.00  0.00     0.132 C
BRANCH  27  28
HETATM   28  C4  UNL     1      22.893  32.629   4.734  1.00  0.00     0.020 C
BRANCH  28  29
HETATM   29  C3  UNL     1      22.266  31.819   5.832  1.00  0.00     0.001 C
BRANCH  29  30
HETATM   30  C2  UNL     1      22.767  32.358   7.180  1.00  0.00    -0.004 C
HETATM   31  C1  UNL     1      21.600  32.808   8.029  1.00  0.00     0.005 C
ENDBRANCH  29  30
ENDBRANCH  28  29
ENDBRANCH  27  28
ENDBRANCH   1  27
BRANCH   6  32
HETATM   32  N5  UNL     1      17.019  35.169   6.637  1.00  0.00    -0.383 N
ATOM     33  H52 UNL     1      17.507  35.708   7.353  1.00  0.00     0.157 HD
ATOM     34  H51 UNL     1      16.022  35.315   6.476  1.00  0.00     0.157 HD
ENDBRANCH   6  32
BRANCH   9  35
HETATM   35  N7  UNL     1      17.158  31.178   4.386  1.00  0.00    -0.234 N
ATOM     36  H72 UNL     1      17.229  30.344   4.969  1.00  0.00     0.174 HD
ATOM     37  H71 UNL     1      16.648  31.146   3.503  1.00  0.00     0.174 HD
ENDBRANCH   9  35
TORSDOF 9
ENDMDL