MODEL 4
REMARK VINA RESULT: -8.541065090      3.358      3.819
REMARK  8 active torsions:
REMARK  status: ('A' for Active; 'I' for Inactive)
REMARK    1  A    between atoms: C2_2  and  O1_3
REMARK    2  A    between atoms: O1_3  and  C3_4
REMARK    3  A    between atoms: C6_7  and  O2_8
REMARK    4  A    between atoms: O2_8  and  C7_9
REMARK    5  A    between atoms: C10_12  and  C11_13
REMARK    6  A    between atoms: C12_16  and  C13_17
REMARK    7  A    between atoms: C16_21  and  N2_22
REMARK    8  A    between atoms: N2_22  and  N3_23
ROOT
HETATM    1  C11 UNL     1      25.393  31.918   2.028  1.00  0.00     0.198 A
HETATM    2  N1  UNL     1      26.323  31.444   2.906  1.00  0.00    -0.320 N
ATOM      3  H1  UNL     1      26.872  31.981   3.578  1.00  0.00     0.169 HD
HETATM    4  C12 UNL     1      26.360  30.113   2.694  1.00  0.00     0.127 A
HETATM    5  N6  UNL     1      25.484  29.802   1.725  1.00  0.00    -0.245 N
ATOM      6  H6  UNL     1      25.294  28.871   1.354  1.00  0.00     0.196 HD
HETATM    7  O3  UNL     1      24.929  30.899   1.354  1.00  0.00    -0.216 OA
ENDROOT
BRANCH   1   8
HETATM    8  C10 UNL     1      24.967  33.288   1.842  1.00  0.00     0.088 A
HETATM    9  C9  UNL     1      25.280  34.081   0.769  1.00  0.00     0.038 A
HETATM   10  C8  UNL     1      24.685  35.302   0.974  1.00  0.00     0.059 A
HETATM   11  C7  UNL     1      24.008  35.256   2.175  1.00  0.00     0.148 A
HETATM   12  N7  UNL     1      24.196  34.032   2.672  1.00  0.00    -0.333 N
ATOM     13  H7  UNL     1      23.812  33.702   3.557  1.00  0.00     0.168 HD
BRANCH  11  14
HETATM   14  O2  UNL     1      23.260  36.272   2.783  1.00  0.00    -0.294 OA
BRANCH  14  15
HETATM   15  C6  UNL     1      22.754  36.133   4.065  1.00  0.00     0.078 A
HETATM   16  C5  UNL     1      21.434  35.817   4.277  1.00  0.00     0.040 A
HETATM   17  C4  UNL     1      20.915  35.673   5.564  1.00  0.00     0.039 A
HETATM   18  C3  UNL     1      21.701  35.841   6.679  1.00  0.00     0.068 A
HETATM   19  C19 UNL     1      23.050  36.164   6.458  1.00  0.00     0.039 A
HETATM   20  C18 UNL     1      23.532  36.298   5.189  1.00  0.00     0.040 A
BRANCH  18  21
HETATM   21  O1  UNL     1      21.256  35.714   7.984  1.00  0.00    -0.352 OA
BRANCH  21  22
HETATM   22  C2  UNL     1      20.537  34.613   8.457  1.00  0.00     0.171 C
HETATM   23  C1  UNL     1      21.271  33.304   8.377  1.00  0.00     0.034 C
ENDBRANCH  21  22
ENDBRANCH  18  21
ENDBRANCH  14  15
ENDBRANCH  11  14
ENDBRANCH   1   8
BRANCH   4  24
HETATM   24  C13 UNL     1      27.207  29.103   3.390  1.00  0.00     0.155 C
HETATM   25  C14 UNL     1      26.940  29.179   4.849  1.00  0.00     0.072 C
HETATM   26  C15 UNL     1      27.494  28.026   5.638  1.00  0.00     0.200 C
HETATM   27  F1  UNL     1      26.934  28.068   6.900  1.00  0.00    -0.247 F
HETATM   28  C16 UNL     1      27.254  26.695   5.018  1.00  0.00     0.199 C
HETATM   29  C17 UNL     1      26.615  26.737   3.696  1.00  0.00     0.095 C
HETATM   30  N4  UNL     1      25.851  25.767   3.332  1.00  0.00    -0.388 N
HETATM   31  N5  UNL     1      26.820  27.812   2.823  1.00  0.00    -0.367 N
ATOM     32  H42 UNL     1      25.701  24.983   3.968  1.00  0.00     0.157 HD
ATOM     33  H41 UNL     1      25.407  25.796   2.415  1.00  0.00     0.157 HD
ATOM     34  H5  UNL     1      26.702  27.696   1.817  1.00  0.00     0.161 HD
BRANCH  28  35
HETATM   35  N2  UNL     1      28.514  25.947   4.892  1.00  0.00    -0.133 NA
BRANCH  35  36
HETATM   36  N3  UNL     1      29.591  26.850   5.007  1.00  0.00    -0.348 N
ATOM     37  H32 UNL     1      30.531  26.599   5.314  1.00  0.00     0.172 HD
ATOM     38  H31 UNL     1      29.272  27.779   4.734  1.00  0.00     0.172 HD
ENDBRANCH  35  36
ENDBRANCH  28  35
ENDBRANCH   4  24
TORSDOF 8
ENDMDL