MODEL 4
REMARK VINA RESULT: -7.862578482      1.168      1.359
REMARK  9 active torsions:
REMARK  status: ('A' for Active; 'I' for Inactive)
REMARK    1  A    between atoms: N1_1  and  N2_4
REMARK    2  A    between atoms: N2_4  and  C1_5
REMARK    3  A    between atoms: C1_5  and  C2_6
REMARK    4  A    between atoms: C2_6  and  C3_7
REMARK    5  A    between atoms: C3_7  and  O1_8
REMARK    6  A    between atoms: C3_7  and  N3_10
REMARK    7  A    between atoms: N6_22  and  C10_23
REMARK    8  A    between atoms: C15_28  and  N7_29
REMARK    9  A    between atoms: N8_31  and  C16_33
ROOT
HETATM    1  N3  UNL     1      25.773  31.463   4.850  1.00  0.00    -0.348 N
ATOM      2  H3  UNL     1      25.640  30.750   5.567  1.00  0.00     0.163 HD
HETATM    3  C4  UNL     1      24.918  32.414   4.783  1.00  0.00     0.132 A
HETATM    4  N4  UNL     1      25.024  33.388   3.871  1.00  0.00    -0.351 N
ATOM      5  H4  UNL     1      25.804  33.375   3.213  1.00  0.00     0.166 HD
HETATM    6  C5  UNL     1      24.124  34.383   3.805  1.00  0.00     0.092 A
HETATM    7  C6  UNL     1      23.044  34.453   4.677  1.00  0.00     0.049 A
HETATM    8  C7  UNL     1      22.894  33.470   5.632  1.00  0.00     0.072 A
HETATM    9  C8  UNL     1      23.833  32.474   5.665  1.00  0.00     0.105 A
HETATM   10  N5  UNL     1      23.464  31.659   6.669  1.00  0.00    -0.347 N
ATOM     11  H5  UNL     1      23.954  30.814   6.960  1.00  0.00     0.167 HD
HETATM   12  C9  UNL     1      22.323  32.154   7.232  1.00  0.00     0.189 A
HETATM   13  N6  UNL     1      21.967  33.280   6.590  1.00  0.00    -0.303 N
ENDROOT
BRANCH  13  14
HETATM   14  C10 UNL     1      20.860  34.146   6.810  1.00  0.00     0.068 A
HETATM   15  C11 UNL     1      21.037  35.384   7.392  1.00  0.00     0.032 A
HETATM   16  C12 UNL     1      19.963  36.237   7.612  1.00  0.00     0.002 A
HETATM   17  C13 UNL     1      18.681  35.877   7.259  1.00  0.00     0.002 A
HETATM   18  C14 UNL     1      18.487  34.640   6.677  1.00  0.00     0.033 A
HETATM   19  C15 UNL     1      19.554  33.790   6.456  1.00  0.00     0.075 A
BRANCH  19  20
HETATM   20  N7  UNL     1      19.376  32.537   5.869  1.00  0.00    -0.298 N
HETATM   21  N8  UNL     1      19.233  32.221   4.682  1.00  0.00    -0.297 N
ATOM     22  H8  UNL     1      19.119  31.221   4.514  1.00  0.00     0.187 HD
ATOM     23  H7  UNL     1      19.360  31.756   6.524  1.00  0.00     0.187 HD
BRANCH  21  24
HETATM   24  C16 UNL     1      19.204  33.018   3.535  1.00  0.00     0.086 A
HETATM   25  C17 UNL     1      20.348  33.239   2.816  1.00  0.00     0.034 A
HETATM   26  C18 UNL     1      20.321  34.023   1.689  1.00  0.00     0.002 A
HETATM   27  C19 UNL     1      19.144  34.602   1.265  1.00  0.00     0.003 A
HETATM   28  C20 UNL     1      17.981  34.396   1.971  1.00  0.00     0.045 A
HETATM   29  C21 UNL     1      18.033  33.597   3.108  1.00  0.00     0.144 A
HETATM   30  F1  UNL     1      16.849  33.437   3.757  1.00  0.00    -0.204 F
ENDBRANCH  21  24
ENDBRANCH  19  20
ENDBRANCH  13  14
BRANCH   1  31
HETATM   31  C3  UNL     1      26.901  31.336   3.986  1.00  0.00     0.220 C
BRANCH  31  32
HETATM   32  C2  UNL     1      27.671  30.038   4.240  1.00  0.00     0.071 C
BRANCH  32  33
HETATM   33  C1  UNL     1      26.887  28.934   3.561  1.00  0.00     0.138 C
BRANCH  33  34
HETATM   34  N2  UNL     1      26.400  29.420   2.275  1.00  0.00    -0.148 NA
BRANCH  34  35
HETATM   35  N1  UNL     1      25.445  28.487   1.836  1.00  0.00    -0.348 N
ATOM     36  H12 UNL     1      24.941  27.822   2.423  1.00  0.00     0.172 HD
ATOM     37  H11 UNL     1      25.363  28.614   0.827  1.00  0.00     0.172 HD
ENDBRANCH  34  35
ENDBRANCH  33  34
ENDBRANCH  32  33
ENDBRANCH  31  32
BRANCH  31  38
HETATM   38  O1  UNL     1      27.829  32.360   4.187  1.00  0.00    -0.377 OA
ATOM     39  H1  UNL     1      27.885  32.814   3.354  1.00  0.00     0.212 HD
ENDBRANCH  31  38
ENDBRANCH   1  31
TORSDOF 9
ENDMDL