MODEL 3
REMARK VINA RESULT: -8.614645510      1.179      1.331
REMARK  6 active torsions:
REMARK  status: ('A' for Active; 'I' for Inactive)
REMARK       I    between atoms: C1_4  and  N3_6
REMARK    1  A    between atoms: N3_6  and  N4_8
REMARK    2  A    between atoms: C2_10  and  C3_11
REMARK    3  A    between atoms: C6_14  and  N5_15
REMARK    4  A    between atoms: N5_15  and  N6_17
REMARK    5  A    between atoms: N6_17  and  C7_19
REMARK    6  A    between atoms: C11_27  and  C12_28
ROOT
HETATM    1  N6  UNL     1      18.953  35.541   7.102  1.00  0.00    -0.128 N
ATOM      2  H6  UNL     1      18.776  36.545   7.063  1.00  0.00     0.205 HD
ENDROOT
BRANCH   1   3
HETATM    3  N5  UNL     1      19.749  35.038   8.105  1.00  0.00    -0.287 N
ATOM      4  H5  UNL     1      19.391  35.039   9.060  1.00  0.00     0.187 HD
BRANCH   3   5
HETATM    5  C6  UNL     1      21.040  34.523   7.868  1.00  0.00     0.048 A
HETATM    6  C5  UNL     1      22.071  35.184   7.240  1.00  0.00     0.032 A
HETATM    7  C4  UNL     1      23.312  34.601   6.991  1.00  0.00     0.015 A
HETATM    8  C3  UNL     1      23.562  33.315   7.374  1.00  0.00    -0.019 A
HETATM    9  C19 UNL     1      22.548  32.611   8.013  1.00  0.00     0.015 A
HETATM   10  C18 UNL     1      21.344  33.204   8.243  1.00  0.00     0.032 A
BRANCH   8  11
HETATM   11  C2  UNL     1      24.833  32.625   7.141  1.00  0.00     0.118 C
HETATM   12  N4  UNL     1      24.871  31.351   7.198  1.00  0.00    -0.309 N
ATOM     13  H4  UNL     1      24.020  30.829   7.406  1.00  0.00     0.186 HD
BRANCH  12  14
HETATM   14  N3  UNL     1      26.047  30.678   6.982  1.00  0.00    -0.274 N
HETATM   15  C1  UNL     1      26.247  29.916   5.824  1.00  0.00     0.200 C
HETATM   16  N1  UNL     1      25.262  29.614   5.066  1.00  0.00    -0.372 N
HETATM   17  N2  UNL     1      27.543  29.475   5.495  1.00  0.00    -0.062 NA
ATOM     18  H12 UNL     1      25.408  29.058   4.222  1.00  0.00     0.158 HD
ATOM     19  H11 UNL     1      24.323  29.933   5.304  1.00  0.00     0.158 HD
ATOM     20  H3  UNL     1      26.790  30.734   7.679  1.00  0.00     0.189 HD
ENDBRANCH  12  14
ENDBRANCH   8  11
ENDBRANCH   3   5
ENDBRANCH   1   3
BRANCH   1  21
HETATM   21  C7  UNL     1      18.362  34.681   6.102  1.00  0.00     0.734 A
HETATM   22  N7  UNL     1      17.087  34.306   6.071  1.00  0.00    -0.127 N
HETATM   23  N8  UNL     1      16.849  33.538   5.012  1.00  0.00    -0.269 N
ATOM     24  H7  UNL     1      16.387  34.571   6.764  1.00  0.00     0.206 HD
HETATM   25  C8  UNL     1      18.021  33.427   4.355  1.00  0.00     0.160 A
ATOM     26  H8  UNL     1      15.958  33.117   4.749  1.00  0.00     0.189 HD
HETATM   27  C9  UNL     1      18.343  32.756   3.194  1.00  0.00     0.055 A
HETATM   28  N10 UNL     1      18.951  34.133   5.030  1.00  0.00    -0.065 N
HETATM   29  C10 UNL     1      19.656  32.849   2.777  1.00  0.00     0.036 A
HETATM   30  C11 UNL     1      20.593  33.586   3.501  1.00  0.00     0.059 A
HETATM   31  N9  UNL     1      20.200  34.226   4.641  1.00  0.00    -0.277 N
ATOM     32  H9  UNL     1      20.870  34.771   5.184  1.00  0.00     0.188 HD
BRANCH  30  33
HETATM   33  C12 UNL     1      21.976  33.630   3.059  1.00  0.00    -0.006 A
HETATM   34  C13 UNL     1      22.923  32.896   3.720  1.00  0.00     0.014 A
HETATM   35  C14 UNL     1      24.262  32.995   3.298  1.00  0.00     0.003 A
HETATM   36  C15 UNL     1      24.612  33.805   2.250  1.00  0.00     0.024 A
HETATM   37  C16 UNL     1      23.662  34.538   1.591  1.00  0.00     0.035 A
HETATM   38 CL1  UNL     1      24.139  35.576   0.270  1.00  0.00    -0.084 Cl
HETATM   39  C17 UNL     1      22.340  34.436   2.013  1.00  0.00     0.037 A
ENDBRANCH  30  33
ENDBRANCH   1  21
TORSDOF 6
ENDMDL