MODEL 2
REMARK VINA RESULT: -7.709760632      1.936      2.398
REMARK  9 active torsions:
REMARK  status: ('A' for Active; 'I' for Inactive)
REMARK    1  A    between atoms: C2_2  and  C3_3
REMARK    2  A    between atoms: C3_3  and  N1_4
REMARK    3  A    between atoms: C3_3  and  C16_31
REMARK    4  A    between atoms: N1_4  and  C4_6
REMARK    5  A    between atoms: C7_11  and  N3_12
REMARK    6  A    between atoms: C8_14  and  O1_15
REMARK    7  A    between atoms: C8_14  and  C9_17
REMARK    8  A    between atoms: C12_25  and  N6_26
REMARK    9  A    between atoms: N6_26  and  C13_28
ROOT
HETATM    1  C4  UNL     1      23.661  35.342   3.351  1.00  0.00     0.131 A
HETATM    2  N2  UNL     1      23.805  35.964   2.168  1.00  0.00    -0.351 N
ATOM      3  H2  UNL     1      23.270  36.804   1.945  1.00  0.00     0.166 HD
HETATM    4  C5  UNL     1      24.681  35.440   1.283  1.00  0.00     0.092 A
HETATM    5  C6  UNL     1      25.417  34.314   1.544  1.00  0.00     0.049 A
HETATM    6  C7  UNL     1      25.271  33.651   2.792  1.00  0.00     0.066 A
HETATM    7  C12 UNL     1      24.384  34.203   3.679  1.00  0.00     0.100 A
ENDROOT
BRANCH   6   8
HETATM    8  N3  UNL     1      25.832  32.388   2.922  1.00  0.00    -0.334 N
HETATM    9  C8  UNL     1      25.654  31.320   2.332  1.00  0.00     0.157 C
ATOM     10  H3  UNL     1      26.536  32.330   3.657  1.00  0.00     0.168 HD
BRANCH   9  11
HETATM   11  O1  UNL     1      24.784  31.085   1.271  1.00  0.00    -0.345 OA
ATOM     12  H1  UNL     1      24.816  30.362   0.655  1.00  0.00     0.219 HD
ENDBRANCH   9  11
BRANCH   9  13
HETATM   13  C9  UNL     1      26.426  30.137   2.812  1.00  0.00     0.089 A
HETATM   14  C10 UNL     1      26.272  28.808   2.318  1.00  0.00     0.127 A
HETATM   15  N4  UNL     1      27.077  28.043   3.076  1.00  0.00    -0.309 N
HETATM   16  N5  UNL     1      27.708  28.740   3.970  1.00  0.00    -0.275 N
ATOM     17  H4  UNL     1      27.180  27.034   2.961  1.00  0.00     0.186 HD
HETATM   18  C11 UNL     1      27.318  30.023   3.813  1.00  0.00     0.218 A
ATOM     19  H5  UNL     1      28.370  28.386   4.660  1.00  0.00     0.189 HD
HETATM   20  F1  UNL     1      27.778  31.069   4.589  1.00  0.00    -0.184 F
ENDBRANCH   9  13
ENDBRANCH   6   8
BRANCH   7  21
HETATM   21  N6  UNL     1      24.255  33.681   5.030  1.00  0.00    -0.380 N
ATOM     22  H6  UNL     1      24.541  34.178   5.874  1.00  0.00     0.160 HD
BRANCH  21  23
HETATM   23  C13 UNL     1      23.658  32.341   5.015  1.00  0.00     0.082 A
HETATM   24  C14 UNL     1      22.747  31.946   6.111  1.00  0.00     0.027 A
HETATM   25  C15 UNL     1      24.076  31.187   5.778  1.00  0.00     0.027 A
ENDBRANCH  21  23
ENDBRANCH   7  21
BRANCH   1  26
HETATM   26  N1  UNL     1      22.702  35.662   4.194  1.00  0.00    -0.364 N
ATOM     27  H1  UNL     1      22.845  36.462   4.809  1.00  0.00     0.162 HD
BRANCH  26  28
HETATM   28  C3  UNL     1      21.494  34.957   4.288  1.00  0.00     0.135 C
BRANCH  28  29
HETATM   29  C2  UNL     1      20.608  35.018   3.104  1.00  0.00     0.027 C
HETATM   30  C1  UNL     1      20.585  33.899   2.148  1.00  0.00     0.007 C
ENDBRANCH  28  29
BRANCH  28  31
HETATM   31  C16 UNL     1      20.750  35.157   5.587  1.00  0.00     0.064 A
HETATM   32  N7  UNL     1      19.457  35.036   5.668  1.00  0.00    -0.360 N
HETATM   33  C17 UNL     1      18.842  34.974   6.827  1.00  0.00     0.140 A
ATOM     34  H7  UNL     1      18.907  34.988   4.810  1.00  0.00     0.165 HD
HETATM   35  S1  UNL     1      20.126  35.092   7.926  1.00  0.00    -0.068 SA
HETATM   36  C18 UNL     1      21.422  35.223   6.792  1.00  0.00     0.113 A
HETATM   37  N8  UNL     1      22.795  35.481   7.082  1.00  0.00    -0.092 NA
ENDBRANCH  28  31
ENDBRANCH  26  28
ENDBRANCH   1  26
TORSDOF 9
ENDMDL