MODEL 1
REMARK VINA RESULT: -8.763732859      0.000      0.000
REMARK  9 active torsions:
REMARK  status: ('A' for Active; 'I' for Inactive)
REMARK    1  A    between atoms: N1_1  and  C1_4
REMARK    2  A    between atoms: C4_7  and  C5_8
REMARK    3  A    between atoms: C5_8  and  O1_9
REMARK    4  A    between atoms: C5_8  and  C6_11
REMARK    5  A    between atoms: C6_11  and  O2_12
REMARK    6  A    between atoms: C6_11  and  N2_14
REMARK    7  A    between atoms: N2_14  and  C7_16
REMARK    8  A    between atoms: C11_20  and  C12_21
REMARK    9  A    between atoms: C13_26  and  C14_27
ROOT
HETATM    1  C7  UNL     1      24.928  33.823   1.970  1.00  0.00     0.103 A
HETATM    2  C8  UNL     1      25.393  34.964   2.587  1.00  0.00     0.048 A
HETATM    3  C9  UNL     1      24.505  35.837   3.201  1.00  0.00     0.006 A
HETATM    4  C10 UNL     1      23.155  35.533   3.176  1.00  0.00     0.034 A
HETATM    5  C11 UNL     1      22.697  34.389   2.556  1.00  0.00     0.087 A
HETATM    6  N5  UNL     1      23.586  33.570   1.974  1.00  0.00    -0.339 N
ATOM      7  H5  UNL     1      23.246  32.724   1.516  1.00  0.00     0.167 HD
ENDROOT
BRANCH   1   8
HETATM    8  N2  UNL     1      25.837  32.940   1.346  1.00  0.00    -0.348 N
ATOM      9  H2  UNL     1      26.511  33.301   0.671  1.00  0.00     0.163 HD
BRANCH   8  10
HETATM   10  C6  UNL     1      25.819  31.528   1.655  1.00  0.00     0.252 C
BRANCH  10  11
HETATM   11  C5  UNL     1      25.959  31.300   3.146  1.00  0.00     0.201 C
BRANCH  11  12
HETATM   12  C4  UNL     1      26.158  29.868   3.476  1.00  0.00    -0.010 A
HETATM   13  C3  UNL     1      26.008  29.374   4.754  1.00  0.00     0.015 A
HETATM   14  C2  UNL     1      26.201  28.036   5.024  1.00  0.00     0.048 A
HETATM   15  C1  UNL     1      26.549  27.159   4.020  1.00  0.00     0.098 A
HETATM   16  N6  UNL     1      26.693  27.649   2.776  1.00  0.00    -0.352 N
HETATM   17  C20 UNL     1      26.509  28.948   2.490  1.00  0.00     0.099 A
ATOM     18  H6  UNL     1      26.950  27.011   2.023  1.00  0.00     0.166 HD
BRANCH  15  19
HETATM   19  N1  UNL     1      26.732  25.890   4.279  1.00  0.00    -0.385 N
ATOM     20  H12 UNL     1      26.846  25.554   5.235  1.00  0.00     0.157 HD
ATOM     21  H11 UNL     1      26.763  25.206   3.523  1.00  0.00     0.157 HD
ENDBRANCH  15  19
ENDBRANCH  11  12
BRANCH  11  22
HETATM   22  O1  UNL     1      27.068  31.999   3.615  1.00  0.00    -0.386 OA
ATOM     23  H1  UNL     1      27.184  32.761   3.059  1.00  0.00     0.210 HD
ENDBRANCH  11  22
ENDBRANCH  10  11
BRANCH  10  24
HETATM   24  O2  UNL     1      24.560  30.995   1.300  1.00  0.00    -0.374 OA
ATOM     25  H2  UNL     1      24.608  30.066   1.488  1.00  0.00     0.212 HD
ENDBRANCH  10  24
ENDBRANCH   8  10
ENDBRANCH   1   8
BRANCH   5  26
HETATM   26  C12 UNL     1      21.270  34.091   2.544  1.00  0.00     0.191 A
HETATM   27  N3  UNL     1      20.258  34.974   2.512  1.00  0.00    -0.276 N
HETATM   28  N4  UNL     1      19.106  34.311   2.511  1.00  0.00    -0.277 N
ATOM     29  H3  UNL     1      20.358  35.988   2.490  1.00  0.00     0.189 HD
HETATM   30  C13 UNL     1      19.421  33.005   2.545  1.00  0.00     0.174 A
ATOM     31  H4  UNL     1      18.169  34.714   2.490  1.00  0.00     0.189 HD
HETATM   32  O3  UNL     1      20.713  32.917   2.563  1.00  0.00    -0.271 OA
BRANCH  30  33
HETATM   33  C14 UNL     1      18.430  31.911   2.555  1.00  0.00     0.017 A
HETATM   34  C15 UNL     1      18.441  30.930   1.601  1.00  0.00     0.019 A
HETATM   35  C16 UNL     1      17.530  29.886   1.573  1.00  0.00     0.043 A
HETATM   36  C17 UNL     1      16.573  29.854   2.568  1.00  0.00     0.116 A
HETATM   37  F1  UNL     1      15.653  28.854   2.591  1.00  0.00    -0.206 F
HETATM   38  C18 UNL     1      16.526  30.816   3.544  1.00  0.00     0.043 A
HETATM   39  C19 UNL     1      17.462  31.851   3.536  1.00  0.00     0.019 A
ENDBRANCH  30  33
ENDBRANCH   5  26
TORSDOF 9
ENDMDL