MODEL 5
REMARK VINA RESULT: -8.720004364      3.003      6.085
REMARK  8 active torsions:
REMARK  status: ('A' for Active; 'I' for Inactive)
REMARK    1  A    between atoms: C2_3  and  N2_4
REMARK    2  A    between atoms: N2_4  and  C3_6
REMARK    3  A    between atoms: C6_9  and  C7_10
REMARK    4  A    between atoms: C7_10  and  C8_14
REMARK    5  A    between atoms: C8_14  and  O1_15
REMARK    6  A    between atoms: C11_19  and  C12_20
REMARK    7  A    between atoms: C13_25  and  C14_26
REMARK    8  A    between atoms: C20_36  and  N7_37
ROOT
HETATM    1  C1  UNL     1      23.053  36.992   7.840  1.00  0.00     0.177 C
HETATM    2  N1  UNL     1      21.684  36.574   7.623  1.00  0.00    -0.170 N
HETATM    3  C2  UNL     1      21.135  35.634   6.829  1.00  0.00     0.155 A
HETATM    4  C11 UNL     1      19.727  35.678   6.975  1.00  0.00     0.146 A
HETATM    5  N6  UNL     1      19.491  36.657   7.866  1.00  0.00    -0.184 N
ATOM      6  H6  UNL     1      18.568  36.944   8.192  1.00  0.00     0.184 HD
HETATM    7  C20 UNL     1      20.630  37.192   8.255  1.00  0.00     0.680 A
ENDROOT
BRANCH   3   8
HETATM    8  N2  UNL     1      21.755  34.681   6.018  1.00  0.00    -0.347 N
ATOM      9  H2  UNL     1      21.699  33.753   6.437  1.00  0.00     0.167 HD
BRANCH   8  10
HETATM   10  C3  UNL     1      22.441  34.637   4.779  1.00  0.00    -0.012 C
HETATM   11  C4  UNL     1      21.987  33.595   3.832  1.00  0.00     0.053 C
HETATM   12  C5  UNL     1      22.887  33.540   2.601  1.00  0.00     0.016 C
HETATM   13  C6  UNL     1      24.272  33.213   3.154  1.00  0.00     0.034 C
HETATM   14  C9  UNL     1      24.785  34.461   3.819  1.00  0.00     0.016 C
HETATM   15  C10 UNL     1      23.892  34.900   4.918  1.00  0.00     0.053 C
BRANCH  13  16
HETATM   16  C7  UNL     1      25.171  32.742   2.077  1.00  0.00     0.008 C
HETATM   17  N3  UNL     1      25.519  33.529   1.153  1.00  0.00    -0.404 N
ATOM     18  H32 UNL     1      25.186  34.493   1.139  1.00  0.00     0.155 HD
ATOM     19  H31 UNL     1      26.138  33.204   0.412  1.00  0.00     0.155 HD
BRANCH  16  20
HETATM   20  C8  UNL     1      25.652  31.348   2.098  1.00  0.00     0.216 C
BRANCH  20  21
HETATM   21  O1  UNL     1      24.913  30.501   1.302  1.00  0.00    -0.395 OA
ATOM     22  H1  UNL     1      24.152  30.138   1.739  1.00  0.00     0.209 HD
ENDBRANCH  20  21
ENDBRANCH  16  20
ENDBRANCH  13  16
ENDBRANCH   8  10
ENDBRANCH   3   8
BRANCH   4  23
HETATM   23  C12 UNL     1      18.702  34.857   6.334  1.00  0.00     0.196 A
HETATM   24  N4  UNL     1      17.384  34.748   6.490  1.00  0.00    -0.276 N
HETATM   25  N5  UNL     1      16.876  33.850   5.666  1.00  0.00    -0.277 N
ATOM     26  H4  UNL     1      16.837  35.288   7.159  1.00  0.00     0.189 HD
HETATM   27  C13 UNL     1      17.932  33.363   4.948  1.00  0.00     0.174 A
ATOM     28  H5  UNL     1      15.896  33.576   5.582  1.00  0.00     0.189 HD
HETATM   29  O2  UNL     1      18.986  33.990   5.381  1.00  0.00    -0.271 OA
BRANCH  27  30
HETATM   30  C14 UNL     1      17.822  32.343   3.917  1.00  0.00     0.017 A
HETATM   31  C15 UNL     1      18.591  32.449   2.781  1.00  0.00     0.019 A
HETATM   32  C16 UNL     1      18.500  31.485   1.785  1.00  0.00     0.043 A
HETATM   33  C17 UNL     1      17.631  30.403   1.927  1.00  0.00     0.116 A
HETATM   34  F1  UNL     1      17.580  29.485   0.924  1.00  0.00    -0.206 F
HETATM   35  C18 UNL     1      16.866  30.300   3.065  1.00  0.00     0.043 A
HETATM   36  C19 UNL     1      16.966  31.277   4.061  1.00  0.00     0.019 A
ENDBRANCH  27  30
ENDBRANCH   4  23
BRANCH   7  37
HETATM   37  N7  UNL     1      20.732  38.147   9.099  1.00  0.00    -0.234 N
ATOM     38  H72 UNL     1      20.691  38.029  10.112  1.00  0.00     0.174 HD
ATOM     39  H71 UNL     1      20.865  39.131   8.864  1.00  0.00     0.174 HD
ENDBRANCH   7  37
TORSDOF 8
ENDMDL