MODEL 2
REMARK VINA RESULT: -8.701147435      2.742      3.895
REMARK  8 active torsions:
REMARK  status: ('A' for Active; 'I' for Inactive)
REMARK    1  A    between atoms: N1_1  and  N2_4
REMARK    2  A    between atoms: N2_4  and  N3_6
REMARK    3  A    between atoms: C2_14  and  N7_15
REMARK    4  A    between atoms: N7_15  and  N8_17
REMARK       I    between atoms: N8_17  and  C3_19
REMARK       I    between atoms: C3_19  and  N9_21
REMARK    5  A    between atoms: N9_21  and  N10_23
REMARK    6  A    between atoms: N10_23  and  C4_25
REMARK    7  A    between atoms: C6_27  and  O2_28
REMARK    8  A    between atoms: C8_31  and  S1_32
ROOT
HETATM    1  N8  UNL     1      16.745  21.446   8.779  1.00  0.00    -0.249 N
ATOM      2  H8  UNL     1      16.307  22.351   8.950  1.00  0.00     0.192 HD
HETATM    3  C3  UNL     1      17.493  21.308   7.593  1.00  0.00     0.353 C
HETATM    4  O1  UNL     1      18.049  20.163   7.409  1.00  0.00    -0.244 OA
HETATM    5  N9  UNL     1      17.670  22.307   6.614  1.00  0.00    -0.250 N
ATOM      6  H9  UNL     1      17.236  23.221   6.739  1.00  0.00     0.192 HD
ENDROOT
BRANCH   1   7
HETATM    7  N7  UNL     1      16.553  20.472   9.721  1.00  0.00    -0.278 N
ATOM      8  H7  UNL     1      17.392  20.232  10.249  1.00  0.00     0.189 HD
BRANCH   7   9
HETATM    9  C2  UNL     1      15.524  19.814  10.056  1.00  0.00     0.179 A
HETATM   10  N3  UNL     1      15.349  18.580   9.491  1.00  0.00    -0.147 N
HETATM   11  N4  UNL     1      14.265  17.919   9.824  1.00  0.00    -0.204 N
HETATM   12  N5  UNL     1      13.329  18.334  10.653  1.00  0.00    -0.227 N
ATOM     13  H4  UNL     1      14.135  16.999   9.403  1.00  0.00     0.212 HD
HETATM   14  N6  UNL     1      13.492  19.529  11.204  1.00  0.00    -0.293 N
ATOM     15  H5  UNL     1      12.513  17.759  10.861  1.00  0.00     0.210 HD
HETATM   16  C1  UNL     1      14.575  20.288  10.927  1.00  0.00     0.162 A
ATOM     17  H6  UNL     1      12.787  19.882  11.851  1.00  0.00     0.187 HD
BRANCH  10  18
HETATM   18  N2  UNL     1      16.322  18.083   8.631  1.00  0.00    -0.225 N
ATOM     19  H2  UNL     1      17.247  17.845   8.987  1.00  0.00     0.210 HD
BRANCH  18  20
HETATM   20  N1  UNL     1      16.028  17.911   7.280  1.00  0.00    -0.329 N
ATOM     21  H12 UNL     1      15.489  18.628   6.793  1.00  0.00     0.178 HD
ATOM     22  H11 UNL     1      16.354  17.076   6.793  1.00  0.00     0.178 HD
ENDBRANCH  18  20
ENDBRANCH  10  18
ENDBRANCH   7   9
ENDBRANCH   1   7
BRANCH   5  23
HETATM   23  N10 UNL     1      18.424  22.053   5.491  1.00  0.00    -0.297 N
ATOM     24  H10 UNL     1      19.417  22.289   5.469  1.00  0.00     0.187 HD
BRANCH  23  25
HETATM   25  C4  UNL     1      17.794  21.453   4.352  1.00  0.00     0.052 A
HETATM   26  C5  UNL     1      17.916  22.025   3.115  1.00  0.00     0.067 A
HETATM   27  C6  UNL     1      17.312  21.390   2.019  1.00  0.00     0.069 A
HETATM   28  C7  UNL     1      16.612  20.211   2.194  1.00  0.00     0.062 A
HETATM   29  C8  UNL     1      16.502  19.656   3.429  1.00  0.00     0.085 A
HETATM   30  C9  UNL     1      17.092  20.281   4.498  1.00  0.00     0.057 A
BRANCH  27  31
HETATM   31  O2  UNL     1      17.425  21.958   0.756  1.00  0.00    -0.361 OA
ATOM     32  H2  UNL     1      17.430  21.395  -0.009  1.00  0.00     0.217 HD
ENDBRANCH  27  31
BRANCH  29  33
HETATM   33  S1  UNL     1      15.625  18.142   3.655  1.00  0.00     0.137 S
HETATM   34  O3  UNL     1      16.560  17.104   4.227  1.00  0.00    -0.591 OA
HETATM   35  O4  UNL     1      15.136  17.614   2.349  1.00  0.00    -0.591 OA
HETATM   36  O5  UNL     1      14.354  18.321   4.735  1.00  0.00    -0.591 OA
ENDBRANCH  29  33
ENDBRANCH  23  25
ENDBRANCH   5  23
TORSDOF 8
ENDMDL