MODEL 5
REMARK VINA RESULT: -8.150003572      3.049      9.156
REMARK  9 active torsions:
REMARK  status: ('A' for Active; 'I' for Inactive)
REMARK    1  A    between atoms: C2_2  and  O1_3
REMARK    2  A    between atoms: N1_6  and  C4_7
REMARK    3  A    between atoms: C5_10  and  C6_11
REMARK    4  A    between atoms: C6_11  and  N3_12
REMARK    5  A    between atoms: C7_18  and  N5_19
REMARK    6  A    between atoms: N7_26  and  C10_27
REMARK    7  A    between atoms: C11_32  and  C12_33
REMARK    8  A    between atoms: C12_33  and  O2_34
REMARK    9  A    between atoms: C12_33  and  O3_36
ROOT
HETATM    1  C1  UNL     1      13.932  16.870   9.190  1.00  0.00     0.072 C
HETATM    2  C2  UNL     1      14.283  18.122   8.442  1.00  0.00     0.148 C
HETATM    3  C3  UNL     1      13.653  18.099   7.084  1.00  0.00     0.201 C
HETATM    4  N1  UNL     1      14.157  16.942   6.376  1.00  0.00    -0.211 N
HETATM    5  C8  UNL     1      15.551  16.566   6.564  1.00  0.00     0.161 C
HETATM    6  C9  UNL     1      16.363  17.678   7.176  1.00  0.00     0.148 C
HETATM    7  N7  UNL     1      15.739  18.220   8.347  1.00  0.00    -0.326 N
ENDROOT
BRANCH   4   8
HETATM    8  C4  UNL     1      13.305  16.216   5.534  1.00  0.00     0.696 A
HETATM    9  N2  UNL     1      11.968  16.404   5.484  1.00  0.00    -0.178 N
HETATM   10  C5  UNL     1      11.182  15.693   4.669  1.00  0.00     0.138 A
ATOM     11  H2  UNL     1      11.546  17.110   6.086  1.00  0.00     0.185 HD
HETATM   12  N4  UNL     1      11.735  14.766   3.877  1.00  0.00    -0.178 N
HETATM   13  C7  UNL     1      13.064  14.539   3.890  1.00  0.00     0.691 A
ATOM     14  H4  UNL     1      11.141  14.221   3.253  1.00  0.00     0.185 HD
HETATM   15  N6  UNL     1      13.815  15.276   4.723  1.00  0.00    -0.022 N
ATOM     16  H6  UNL     1      14.822  15.114   4.740  1.00  0.00     0.203 HD
BRANCH  10  17
HETATM   17  C6  UNL     1       9.706  15.873   4.585  1.00  0.00     0.306 C
BRANCH  17  18
HETATM   18  N3  UNL     1       9.238  16.830   5.573  1.00  0.00    -0.073 N
ATOM     19  H33 UNL     1       9.740  16.734   6.456  1.00  0.00     0.274 HD
ATOM     20  H32 UNL     1       9.520  17.781   5.337  1.00  0.00     0.274 HD
ATOM     21  H31 UNL     1       8.229  16.759   5.705  1.00  0.00     0.274 HD
ENDBRANCH  17  18
ENDBRANCH  10  17
BRANCH  13  22
HETATM   22  N5  UNL     1      13.578  13.635   3.113  1.00  0.00    -0.234 N
ATOM     23  H52 UNL     1      13.007  12.924   2.655  1.00  0.00     0.174 HD
ATOM     24  H51 UNL     1      14.584  13.619   2.943  1.00  0.00     0.174 HD
ENDBRANCH  13  22
ENDBRANCH   4   8
BRANCH   2  25
HETATM   25  O1  UNL     1      13.849  19.219   9.200  1.00  0.00    -0.369 OA
ATOM     26  H1  UNL     1      13.578  19.904   8.601  1.00  0.00     0.212 HD
ENDBRANCH   2  25
BRANCH   7  27
HETATM   27  C10 UNL     1      16.463  18.845   9.415  1.00  0.00     0.165 A
HETATM   28  N8  UNL     1      16.580  18.398  10.662  1.00  0.00    -0.279 N
HETATM   29  N9  UNL     1      17.252  19.053  11.506  1.00  0.00    -0.291 N
ATOM     30  H8  UNL     1      16.127  17.527  10.937  1.00  0.00     0.189 HD
HETATM   31  C11 UNL     1      17.842  20.189  11.146  1.00  0.00     0.124 A
ATOM     32  H9  UNL     1      17.342  18.712  12.462  1.00  0.00     0.187 HD
HETATM   33  S1  UNL     1      17.380  20.285   9.498  1.00  0.00    -0.033 SA
BRANCH  31  34
HETATM   34  C12 UNL     1      18.679  21.120  11.970  1.00  0.00     0.314 C
BRANCH  34  35
HETATM   35  O2  UNL     1      18.097  22.400  11.893  1.00  0.00    -0.365 OA
ATOM     36  H2  UNL     1      17.512  22.407  11.145  1.00  0.00     0.213 HD
ENDBRANCH  34  35
BRANCH  34  37
HETATM   37  O3  UNL     1      18.792  20.693  13.286  1.00  0.00    -0.365 OA
ATOM     38  H3  UNL     1      19.341  19.922  13.365  1.00  0.00     0.213 HD
ENDBRANCH  34  37
ENDBRANCH  31  34
ENDBRANCH   7  27
TORSDOF 9
ENDMDL