MODEL 2
REMARK VINA RESULT: -8.755656402      1.990      2.296
REMARK  6 active torsions:
REMARK  status: ('A' for Active; 'I' for Inactive)
REMARK    1  A    between atoms: O1_2  and  N1_3
REMARK    2  A    between atoms: C2_4  and  N2_5
REMARK    3  A    between atoms: N5_14  and  N6_15
REMARK    4  A    between atoms: N6_15  and  S1_17
REMARK    5  A    between atoms: S1_17  and  C7_20
REMARK    6  A    between atoms: C9_25  and  O4_26
ROOT
HETATM    1  N2  UNL     1      17.822  19.432  10.765  1.00  0.00    -0.123 N
ATOM      2  H2  UNL     1      17.970  18.633  11.380  1.00  0.00     0.197 HD
HETATM    3  C3  UNL     1      17.778  20.719  11.316  1.00  0.00     0.196 C
HETATM    4  N3  UNL     1      17.747  21.777  11.791  1.00  0.00    -0.171 NA
ENDROOT
BRANCH   1   5
HETATM    5  C2  UNL     1      17.664  19.208   9.350  1.00  0.00     0.728 C
HETATM    6  N1  UNL     1      18.063  18.047   8.631  1.00  0.00     0.018 N
HETATM    7  N5  UNL     1      17.359  18.007   7.408  1.00  0.00    -0.058 NA
HETATM    8  C4  UNL     1      17.159  19.433   7.172  1.00  0.00     0.137 C
HETATM    9  N4  UNL     1      17.131  20.033   8.511  1.00  0.00    -0.197 N
HETATM   10  C5  UNL     1      15.846  19.734   6.519  1.00  0.00     0.060 C
HETATM   11  C6  UNL     1      18.275  20.033   6.359  1.00  0.00     0.060 C
ATOM     12  H4  UNL     1      16.752  20.951   8.742  1.00  0.00     0.180 HD
BRANCH   6  13
HETATM   13  O1  UNL     1      18.978  17.148   9.082  1.00  0.00    -0.252 OA
HETATM   14  C1  UNL     1      18.400  16.077   9.732  1.00  0.00     0.240 C
ENDBRANCH   6  13
BRANCH   7  15
HETATM   15  N6  UNL     1      16.141  17.334   7.561  1.00  0.00    -0.217 N
ATOM     16  H6  UNL     1      15.391  17.654   8.174  1.00  0.00     0.196 HD
BRANCH  15  17
HETATM   17  S1  UNL     1      16.049  15.913   6.604  1.00  0.00     0.307 S
HETATM   18  O2  UNL     1      16.178  14.731   7.531  1.00  0.00    -0.196 OA
HETATM   19  O3  UNL     1      17.284  15.881   5.719  1.00  0.00    -0.196 OA
BRANCH  17  20
HETATM   20  C7  UNL     1      14.589  15.827   5.669  1.00  0.00     0.241 A
HETATM   21  N7  UNL     1      14.371  14.820   4.895  1.00  0.00    -0.315 N
HETATM   22  C8  UNL     1      13.194  14.689   4.102  1.00  0.00     0.171 A
ATOM     23  H7  UNL     1      15.074  14.083   4.847  1.00  0.00     0.169 HD
HETATM   24  N8  UNL     1      12.992  13.564   3.260  1.00  0.00    -0.078 NA
HETATM   25  C9  UNL     1      12.221  15.602   4.098  1.00  0.00     0.197 A
HETATM   26  N9  UNL     1      12.411  16.737   4.939  1.00  0.00    -0.275 N
HETATM   27  N10 UNL     1      13.585  16.832   5.707  1.00  0.00    -0.272 N
ATOM     28  H9  UNL     1      11.705  17.472   4.983  1.00  0.00     0.189 HD
ATOM     29  H10 UNL     1      13.720  17.645   6.308  1.00  0.00     0.189 HD
BRANCH  25  30
HETATM   30  O4  UNL     1      11.087  15.433   3.309  1.00  0.00    -0.343 OA
ATOM     31  H4  UNL     1      10.284  15.902   3.503  1.00  0.00     0.219 HD
ENDBRANCH  25  30
ENDBRANCH  17  20
ENDBRANCH  15  17
ENDBRANCH   7  15
ENDBRANCH   1   5
TORSDOF 6
ENDMDL