MODEL 2
REMARK VINA RESULT: -9.227859616      1.498      1.817
REMARK  6 active torsions:
REMARK  status: ('A' for Active; 'I' for Inactive)
REMARK    1  A    between atoms: O1_2  and  N1_3
REMARK    2  A    between atoms: N1_3  and  C2_5
REMARK    3  A    between atoms: C3_6  and  C4_7
REMARK       I    between atoms: C4_7  and  N2_9
REMARK    4  A    between atoms: N2_9  and  N3_11
REMARK    5  A    between atoms: C6_16  and  C7_17
REMARK    6  A    between atoms: C12_31  and  N12_32
ROOT
HETATM    1  C2  UNL     1      16.721  20.123   7.277  1.00  0.00     0.130 C
HETATM    2  C3  UNL     1      16.841  18.835   7.807  1.00  0.00     0.136 C
HETATM    3  N8  UNL     1      17.207  18.531   9.084  1.00  0.00    -0.338 N
ATOM      4  H8  UNL     1      17.298  17.536   9.286  1.00  0.00     0.167 HD
HETATM    5  C9  UNL     1      17.469  19.361  10.127  1.00  0.00     0.156 C
HETATM    6  C10 UNL     1      17.674  18.739  11.401  1.00  0.00     0.121 C
HETATM    7  N9  UNL     1      17.862  18.225  12.444  1.00  0.00    -0.190 NA
HETATM    8  C11 UNL     1      17.564  20.756  10.110  1.00  0.00     0.155 C
HETATM    9  N10 UNL     1      17.754  21.370  11.384  1.00  0.00    -0.079 NA
HETATM   10  N11 UNL     1      17.505  21.614   9.070  1.00  0.00    -0.327 N
ATOM     11  H11 UNL     1      17.593  22.609   9.276  1.00  0.00     0.168 HD
HETATM   12  C12 UNL     1      17.335  21.252   7.756  1.00  0.00     0.131 C
ENDROOT
BRANCH   2  13
HETATM   13  C4  UNL     1      16.533  17.733   6.891  1.00  0.00     0.289 C
HETATM   14  O2  UNL     1      17.434  17.401   6.121  1.00  0.00    -0.264 OA
HETATM   15  N2  UNL     1      15.278  17.128   6.929  1.00  0.00    -0.254 N
ATOM     16  H2  UNL     1      14.651  17.527   7.628  1.00  0.00     0.191 HD
BRANCH  15  17
HETATM   17  N3  UNL     1      14.723  16.101   6.209  1.00  0.00    -0.208 N
HETATM   18  C5  UNL     1      14.805  14.801   6.624  1.00  0.00     0.216 A
HETATM   19  N4  UNL     1      15.444  14.341   7.807  1.00  0.00    -0.061 NA
HETATM   20  N5  UNL     1      14.181  14.028   5.730  1.00  0.00    -0.322 N
HETATM   21  C6  UNL     1      13.682  14.756   4.730  1.00  0.00     0.143 A
ATOM     22  H5  UNL     1      14.097  13.014   5.803  1.00  0.00     0.169 HD
HETATM   23  C8  UNL     1      14.043  16.076   5.060  1.00  0.00     0.173 A
HETATM   24  N7  UNL     1      13.672  17.141   4.204  1.00  0.00    -0.078 NA
BRANCH  21  25
HETATM   25  C7  UNL     1      12.935  14.310   3.558  1.00  0.00     0.284 C
HETATM   26  N6  UNL     1      13.305  13.134   2.878  1.00  0.00    -0.056 NA
HETATM   27  O3  UNL     1      11.960  14.976   3.156  1.00  0.00    -0.269 OA
ENDBRANCH  21  25
ENDBRANCH  15  17
ENDBRANCH   2  13
BRANCH   1  28
HETATM   28  N1  UNL     1      15.968  20.210   6.283  1.00  0.00    -0.261 N
ATOM     29  H1  UNL     1      15.039  19.823   6.452  1.00  0.00     0.194 HD
BRANCH  28  30
HETATM   30  O1  UNL     1      16.112  20.697   5.052  1.00  0.00    -0.285 OA
HETATM   31  C1  UNL     1      16.569  19.978   3.923  1.00  0.00     0.237 C
ENDBRANCH  28  30
ENDBRANCH   1  28
BRANCH  12  32
HETATM   32  N12 UNL     1      17.824  22.050   6.898  1.00  0.00    -0.383 N
ATOM     33 2H12 UNL     1      18.681  21.738   6.442  1.00  0.00     0.157 HD
ATOM     34 1H12 UNL     1      17.315  22.918   6.729  1.00  0.00     0.157 HD
ENDBRANCH  12  32
TORSDOF 6
ENDMDL