MODEL 1
REMARK VINA RESULT: -9.027823917      0.000      0.000
REMARK  7 active torsions:
REMARK  status: ('A' for Active; 'I' for Inactive)
REMARK    1  A    between atoms: C2_2  and  C3_3
REMARK    2  A    between atoms: C2_2  and  N5_20
REMARK    3  A    between atoms: C3_3  and  N1_4
REMARK    4  A    between atoms: N3_12  and  O3_13
REMARK    5  A    between atoms: N5_20  and  C9_22
REMARK    6  A    between atoms: C10_23  and  O5_24
REMARK    7  A    between atoms: C11_27  and  N6_28
ROOT
HETATM    1  C1  UNL     1      17.761  21.534   3.820  1.00  0.00     0.065 C
HETATM    2  C2  UNL     1      17.007  20.532   4.626  1.00  0.00     0.003 C
ENDROOT
BRANCH   2   3
HETATM    3  C3  UNL     1      16.133  19.593   3.845  1.00  0.00     0.203 C
BRANCH   3   4
HETATM    4  N1  UNL     1      16.149  18.278   4.510  1.00  0.00    -0.267 N
HETATM    5  N2  UNL     1      17.140  17.826   5.216  1.00  0.00    -0.261 N
HETATM    6  C4  UNL     1      16.843  16.580   5.692  1.00  0.00     0.279 A
ATOM      7  H2  UNL     1      18.012  18.326   5.389  1.00  0.00     0.190 HD
HETATM    8  O1  UNL     1      17.530  15.826   6.400  1.00  0.00    -0.266 OA
HETATM    9  C5  UNL     1      15.575  16.247   5.243  1.00  0.00     0.149 A
HETATM   10  C6  UNL     1      14.736  15.161   5.377  1.00  0.00     0.295 A
HETATM   11  C8  UNL     1      15.173  17.352   4.498  1.00  0.00     0.148 A
HETATM   12  O2  UNL     1      15.107  14.171   6.049  1.00  0.00    -0.264 OA
HETATM   13  N3  UNL     1      13.524  15.169   4.786  1.00  0.00    -0.133 N
HETATM   14  C7  UNL     1      13.180  16.259   4.077  1.00  0.00     0.355 A
HETATM   15  O4  UNL     1      12.026  16.225   3.534  1.00  0.00    -0.244 OA
HETATM   16  N4  UNL     1      13.958  17.332   3.920  1.00  0.00    -0.290 N
ATOM     17  H4  UNL     1      13.635  18.127   3.368  1.00  0.00     0.172 HD
BRANCH  13  18
HETATM   18  O3  UNL     1      12.656  14.084   4.905  1.00  0.00    -0.276 OA
ATOM     19  H3  UNL     1      11.806  14.177   5.320  1.00  0.00     0.245 HD
ENDBRANCH  13  18
ENDBRANCH   3   4
ENDBRANCH   2   3
BRANCH   2  20
HETATM   20  N5  UNL     1      16.478  21.030   5.843  1.00  0.00    -0.354 N
ATOM     21  H5  UNL     1      15.648  21.608   5.711  1.00  0.00     0.166 HD
BRANCH  20  22
HETATM   22  C9  UNL     1      16.846  20.901   7.175  1.00  0.00     0.160 A
HETATM   23  C10 UNL     1      16.160  20.015   8.022  1.00  0.00     0.219 A
HETATM   24  O6  UNL     1      16.471  19.869   9.288  1.00  0.00    -0.254 OA
HETATM   25  C11 UNL     1      17.434  20.530   9.864  1.00  0.00     0.226 A
HETATM   26  N7  UNL     1      18.127  21.390   9.117  1.00  0.00    -0.287 N
HETATM   27  C12 UNL     1      17.850  21.588   7.781  1.00  0.00     0.280 A
ATOM     28  H7  UNL     1      18.887  21.917   9.547  1.00  0.00     0.172 HD
HETATM   29  O7  UNL     1      18.560  22.409   7.198  1.00  0.00    -0.265 OA
BRANCH  23  30
HETATM   30  O5  UNL     1      15.122  19.288   7.447  1.00  0.00    -0.339 OA
ATOM     31  H5  UNL     1      15.368  18.506   6.967  1.00  0.00     0.220 HD
ENDBRANCH  23  30
BRANCH  25  32
HETATM   32  N6  UNL     1      17.743  20.389  11.114  1.00  0.00    -0.365 N
ATOM     33  H62 UNL     1      18.543  19.808  11.365  1.00  0.00     0.159 HD
ATOM     34  H61 UNL     1      17.224  20.832  11.872  1.00  0.00     0.159 HD
ENDBRANCH  25  32
ENDBRANCH  20  22
ENDBRANCH   2  20
TORSDOF 7
ENDMDL