MODEL 4
REMARK VINA RESULT: -8.215678984      3.015      5.307
REMARK  10 active torsions:
REMARK  status: ('A' for Active; 'I' for Inactive)
REMARK    1  A    between atoms: C3_4  and  C4_5
REMARK    2  A    between atoms: C4_5  and  N2_6
REMARK    3  A    between atoms: C4_5  and  C5_10
REMARK    4  A    between atoms: C5_10  and  N3_11
REMARK    5  A    between atoms: C6_12  and  N4_13
REMARK    6  A    between atoms: C11_26  and  N9_27
REMARK    7  A    between atoms: C12_30  and  C13_31
REMARK    8  A    between atoms: C13_31  and  N10_32
REMARK    9  A    between atoms: C13_31  and  C14_36
REMARK   10  A    between atoms: C14_36  and  O1_37
ROOT
HETATM    1  N4  UNL     1      17.200  21.648   7.578  1.00  0.00    -0.126 N
ATOM      2  H4  UNL     1      16.881  22.093   6.718  1.00  0.00     0.197 HD
HETATM    3  C7  UNL     1      18.247  22.203   8.313  1.00  0.00     0.196 C
HETATM    4  N5  UNL     1      19.118  22.685   8.927  1.00  0.00    -0.171 NA
ENDROOT
BRANCH   1   5
HETATM    5  C6  UNL     1      16.587  20.459   8.037  1.00  0.00     0.690 C
HETATM    6  N3  UNL     1      16.853  19.183   7.405  1.00  0.00    -0.202 N
HETATM    7  C12 UNL     1      16.783  18.005   8.246  1.00  0.00     0.187 C
HETATM    8  C9  UNL     1      15.445  18.088   8.990  1.00  0.00     0.067 A
HETATM    9  C8  UNL     1      15.170  19.316   9.525  1.00  0.00     0.117 A
HETATM   10  N7  UNL     1      14.689  17.042   9.251  1.00  0.00    -0.352 N
HETATM   11  N6  UNL     1      15.763  20.540   9.059  1.00  0.00    -0.185 N
HETATM   12  C11 UNL     1      14.050  19.385  10.372  1.00  0.00     0.129 A
ATOM     13  H6  UNL     1      15.553  21.435   9.502  1.00  0.00     0.184 HD
HETATM   14  N8  UNL     1      13.297  18.300  10.625  1.00  0.00    -0.337 N
HETATM   15  C10 UNL     1      13.606  17.124  10.068  1.00  0.00     0.182 A
ATOM     16  H8  UNL     1      12.489  18.373  11.243  1.00  0.00     0.168 HD
ATOM     17  H7  UNL     1      14.923  16.144   8.829  1.00  0.00     0.166 HD
BRANCH   6  18
HETATM   18  C5  UNL     1      17.074  19.171   6.004  1.00  0.00     0.181 C
BRANCH  18  19
HETATM   19  C4  UNL     1      16.275  18.320   5.105  1.00  0.00     0.253 C
BRANCH  19  20
HETATM   20  C3  UNL     1      16.296  18.947   3.707  1.00  0.00     0.072 A
HETATM   21  C2  UNL     1      16.926  20.103   3.322  1.00  0.00     0.135 A
HETATM   22  N1  UNL     1      16.672  20.268   1.994  1.00  0.00    -0.289 N
HETATM   23  C1  UNL     1      17.108  21.331   1.116  1.00  0.00     0.174 C
HETATM   24  N12 UNL     1      15.921  19.252   1.592  1.00  0.00    -0.021 NA
HETATM   25  N11 UNL     1      15.691  18.454   2.621  1.00  0.00    -0.285 N
ATOM     26  H11 UNL     1      15.139  17.597   2.590  1.00  0.00     0.184 HD
ENDBRANCH  19  20
BRANCH  19  27
HETATM   27  N2  UNL     1      16.931  17.020   4.840  1.00  0.00    -0.068 N
ATOM     28  H23 UNL     1      16.325  16.203   4.905  1.00  0.00     0.275 HD
ATOM     29  H22 UNL     1      17.200  16.854   3.871  1.00  0.00     0.275 HD
ATOM     30  H21 UNL     1      17.700  17.050   5.510  1.00  0.00     0.275 HD
ENDBRANCH  19  27
ENDBRANCH  18  19
ENDBRANCH   6  18
BRANCH   7  31
HETATM   31  C13 UNL     1      17.859  18.016   9.309  1.00  0.00     0.236 C
BRANCH  31  32
HETATM   32  N10 UNL     1      19.120  18.518   8.686  1.00  0.00    -0.071 N
ATOM     33 3H10 UNL     1      19.241  19.525   8.796  1.00  0.00     0.274 HD
ATOM     34 2H10 UNL     1      19.954  18.224   9.193  1.00  0.00     0.274 HD
ATOM     35 1H10 UNL     1      19.129  18.224   7.709  1.00  0.00     0.274 HD
ENDBRANCH  31  32
BRANCH  31  36
HETATM   36  C14 UNL     1      18.287  16.661   9.810  1.00  0.00     0.199 C
BRANCH  36  37
HETATM   37  O1  UNL     1      17.336  15.900  10.431  1.00  0.00    -0.399 OA
ATOM     38  H1  UNL     1      17.060  15.107   9.985  1.00  0.00     0.209 HD
ENDBRANCH  36  37
ENDBRANCH  31  36
ENDBRANCH   7  31
BRANCH  12  39
HETATM   39  N9  UNL     1      13.771  20.512  10.893  1.00  0.00    -0.384 N
ATOM     40  H92 UNL     1      13.421  20.577  11.848  1.00  0.00     0.157 HD
ATOM     41  H91 UNL     1      13.909  21.346  10.321  1.00  0.00     0.157 HD
ENDBRANCH  12  39
ENDBRANCH   1   5
TORSDOF 10
ENDMDL