MODEL 1
REMARK VINA RESULT: -9.090078221      0.000      0.000
REMARK  8 active torsions:
REMARK  status: ('A' for Active; 'I' for Inactive)
REMARK    1  A    between atoms: C2_2  and  O1_3
REMARK    2  A    between atoms: N2_11  and  C6_12
REMARK    3  A    between atoms: C7_15  and  S1_16
REMARK    4  A    between atoms: S1_16  and  C8_17
REMARK    5  A    between atoms: C8_17  and  N4_18
REMARK    6  A    between atoms: C9_25  and  N8_26
REMARK    7  A    between atoms: C10_31  and  N10_32
REMARK    8  A    between atoms: C11_37  and  N12_38
ROOT
HETATM    1  C6  UNL     1      15.471  17.709   8.179  1.00  0.00     0.152 C
HETATM    2  N3  UNL     1      16.389  17.421   9.137  1.00  0.00    -0.319 N
ATOM      3  H3  UNL     1      17.076  16.704   8.905  1.00  0.00     0.169 HD
HETATM    4  C7  UNL     1      16.497  17.994  10.395  1.00  0.00     0.166 C
HETATM    5  N9  UNL     1      15.473  18.517  11.077  1.00  0.00    -0.170 N
ATOM      6  H9  UNL     1      15.578  18.490  12.092  1.00  0.00     0.186 HD
HETATM    7  C10 UNL     1      14.312  19.081  10.637  1.00  0.00     0.679 C
HETATM    8  N11 UNL     1      13.686  18.806   9.499  1.00  0.00    -0.173 N
ATOM      9  H11 UNL     1      12.732  19.156   9.406  1.00  0.00     0.186 HD
HETATM   10  C11 UNL     1      14.183  18.111   8.449  1.00  0.00     0.159 C
ENDROOT
BRANCH   4  11
HETATM   11  S1  UNL     1      18.096  18.041  11.088  1.00  0.00    -0.045 SA
BRANCH  11  12
HETATM   12  C8  UNL     1      18.409  19.071  12.493  1.00  0.00     0.189 C
BRANCH  12  13
HETATM   13  N4  UNL     1      18.765  20.436  12.254  1.00  0.00    -0.074 N
HETATM   14  N5  UNL     1      19.742  21.024  12.985  1.00  0.00    -0.206 N
HETATM   15  N6  UNL     1      19.884  22.285  12.632  1.00  0.00    -0.213 N
ATOM     16  H5  UNL     1      20.289  20.556  13.706  1.00  0.00     0.211 HD
HETATM   17  N7  UNL     1      19.025  22.570  11.676  1.00  0.00    -0.115 N
ATOM     18  H6  UNL     1      20.554  22.939  13.036  1.00  0.00     0.210 HD
HETATM   19  C9  UNL     1      18.341  21.408  11.455  1.00  0.00     0.714 A
ATOM     20  H7  UNL     1      18.897  23.464  11.203  1.00  0.00     0.207 HD
BRANCH  19  21
HETATM   21  N8  UNL     1      17.451  21.319  10.560  1.00  0.00    -0.231 N
ATOM     22  H82 UNL     1      16.620  20.741  10.686  1.00  0.00     0.174 HD
ATOM     23  H81 UNL     1      17.432  21.809   9.666  1.00  0.00     0.174 HD
ENDBRANCH  19  21
ENDBRANCH  12  13
ENDBRANCH  11  12
ENDBRANCH   4  11
BRANCH   1  24
HETATM   24  N2  UNL     1      15.817  17.610   6.830  1.00  0.00    -0.330 N
HETATM   25  C2  UNL     1      16.203  16.442   6.102  1.00  0.00     0.155 C
HETATM   26  C1  UNL     1      15.390  15.210   6.494  1.00  0.00     0.073 C
HETATM   27  C3  UNL     1      15.874  16.676   4.619  1.00  0.00     0.292 C
HETATM   28  N1  UNL     1      16.680  17.754   4.087  1.00  0.00    -0.069 N
HETATM   29  C4  UNL     1      16.894  18.811   5.043  1.00  0.00     0.252 C
ATOM     30  H12 UNL     1      17.567  17.404   3.724  1.00  0.00     0.277 HD
ATOM     31  H11 UNL     1      16.281  18.119   3.222  1.00  0.00     0.277 HD
HETATM   32  C5  UNL     1      15.777  18.864   6.057  1.00  0.00     0.155 C
BRANCH  25  33
HETATM   33  O1  UNL     1      17.531  16.113   6.143  1.00  0.00    -0.369 OA
ATOM     34  H1  UNL     1      18.037  16.882   5.910  1.00  0.00     0.212 HD
ENDBRANCH  25  33
ENDBRANCH   1  24
BRANCH   7  35
HETATM   35  N10 UNL     1      13.760  19.970  11.388  1.00  0.00    -0.234 N
ATOM     36 2H10 UNL     1      14.123  20.044  12.338  1.00  0.00     0.174 HD
ATOM     37 1H10 UNL     1      13.007  20.528  10.984  1.00  0.00     0.174 HD
ENDBRANCH   7  35
BRANCH  10  38
HETATM   38  N12 UNL     1      13.306  17.783   7.586  1.00  0.00    -0.382 N
ATOM     39 2H12 UNL     1      13.659  17.169   6.852  1.00  0.00     0.157 HD
ATOM     40 1H12 UNL     1      12.373  18.169   7.730  1.00  0.00     0.157 HD
ENDBRANCH  10  38
TORSDOF 8
ENDMDL