MODEL 5
REMARK VINA RESULT: -8.656148132      3.951      7.702
REMARK  8 active torsions:
REMARK  status: ('A' for Active; 'I' for Inactive)
REMARK    1  A    between atoms: O1_2  and  C2_3
REMARK    2  A    between atoms: C4_5  and  O2_6
REMARK    3  A    between atoms: C5_8  and  O3_9
REMARK    4  A    between atoms: C7_12  and  C8_13
REMARK    5  A    between atoms: C8_13  and  O4_14
REMARK    6  A    between atoms: C8_13  and  O5_16
REMARK    7  A    between atoms: O5_16  and  C9_17
REMARK    8  A    between atoms: C10_20  and  C11_21
ROOT
HETATM    1  C8  UNL     1      17.824  17.839   7.440  1.00  0.00     0.267 C
ENDROOT
BRANCH   1   2
HETATM    2  C7  UNL     1      17.798  19.246   7.982  1.00  0.00     0.080 C
HETATM    3  C2  UNL     1      18.142  20.259   6.882  1.00  0.00     0.093 C
HETATM    4  C3  UNL     1      17.018  20.367   5.883  1.00  0.00     0.049 C
HETATM    5  C4  UNL     1      18.325  21.505   7.714  1.00  0.00     0.181 C
HETATM    6  C5  UNL     1      18.846  21.032   9.065  1.00  0.00     0.150 C
HETATM    7  C6  UNL     1      18.925  19.524   8.953  1.00  0.00     0.047 C
BRANCH   3   8
HETATM    8  O1  UNL     1      19.343  19.899   6.334  1.00  0.00    -0.382 OA
HETATM    9  C1  UNL     1      19.924  20.795   5.481  1.00  0.00     0.202 C
ENDBRANCH   3   8
BRANCH   5  10
HETATM   10  O2  UNL     1      17.123  22.201   7.866  1.00  0.00    -0.390 OA
ATOM     11  H2  UNL     1      16.839  22.213   8.773  1.00  0.00     0.210 HD
ENDBRANCH   5  10
BRANCH   6  12
HETATM   12  O3  UNL     1      17.878  21.302  10.059  1.00  0.00    -0.393 OA
ATOM     13  H3  UNL     1      18.256  21.145  10.916  1.00  0.00     0.210 HD
ENDBRANCH   6  12
ENDBRANCH   1   2
BRANCH   1  14
HETATM   14  O4  UNL     1      19.070  17.254   7.530  1.00  0.00    -0.371 OA
ATOM     15  H4  UNL     1      19.253  16.663   6.809  1.00  0.00     0.212 HD
ENDBRANCH   1  14
BRANCH   1  16
HETATM   16  O5  UNL     1      16.842  17.053   8.035  1.00  0.00    -0.327 OA
BRANCH  16  17
HETATM   17  C9  UNL     1      16.550  15.897   7.316  1.00  0.00     0.315 C
HETATM   18  O6  UNL     1      16.461  16.125   5.958  1.00  0.00    -0.248 OA
HETATM   19  N1  UNL     1      15.188  16.008   5.555  1.00  0.00    -0.061 NA
HETATM   20  C10 UNL     1      14.780  14.627   5.722  1.00  0.00     0.290 C
HETATM   21  O8  UNL     1      14.697  14.360   7.069  1.00  0.00    -0.353 OA
HETATM   22  C12 UNL     1      15.275  15.328   7.875  1.00  0.00     0.177 C
HETATM   23  C13 UNL     1      14.299  16.412   8.288  1.00  0.00     0.044 C
BRANCH  20  24
HETATM   24  C11 UNL     1      13.465  14.432   5.003  1.00  0.00     0.305 C
HETATM   25  N2  UNL     1      13.140  15.515   4.118  1.00  0.00    -0.089 NA
HETATM   26  N3  UNL     1      12.341  14.878   3.145  1.00  0.00    -0.008 NA
HETATM   27  N4  UNL     1      12.840  13.577   3.066  1.00  0.00     0.032 NA
HETATM   28  O7  UNL     1      13.532  13.330   4.177  1.00  0.00    -0.241 OA
ENDBRANCH  20  24
ENDBRANCH  16  17
ENDBRANCH   1  16
TORSDOF 8
ENDMDL