MODEL 1
REMARK VINA RESULT: -8.202436433      0.000      0.000
REMARK  9 active torsions:
REMARK  status: ('A' for Active; 'I' for Inactive)
REMARK    1  A    between atoms: C3_3  and  C4_4
REMARK    2  A    between atoms: N5_14  and  O1_15
REMARK    3  A    between atoms: N7_18  and  N8_19
REMARK    4  A    between atoms: C9_22  and  C10_23
REMARK    5  A    between atoms: C10_23  and  N10_25
REMARK    6  A    between atoms: N10_25  and  O2_27
REMARK    7  A    between atoms: N11_29  and  C11_30
REMARK    8  A    between atoms: C11_30  and  C12_31
REMARK    9  A    between atoms: C12_31  and  O3_32
ROOT
HETATM    1  O1  UNL     1      13.771  17.457   9.788  1.00  0.00    -0.151 OA
HETATM    2  C8  UNL     1      14.018  16.304  10.484  1.00  0.00     0.253 C
HETATM    3  N6  UNL     1      14.216  15.326  11.075  1.00  0.00    -0.162 NA
ENDROOT
BRANCH   1   4
HETATM    4  N5  UNL     1      14.762  18.260   9.288  1.00  0.00    -0.176 N
HETATM    5  C4  UNL     1      15.646  17.778   8.215  1.00  0.00     0.180 C
HETATM    6  C5  UNL     1      16.690  16.896   8.930  1.00  0.00     0.073 C
HETATM    7  N1  UNL     1      16.429  18.877   7.689  1.00  0.00    -0.331 N
HETATM    8  C6  UNL     1      16.504  20.053   8.154  1.00  0.00     0.193 C
ATOM      9  H1  UNL     1      16.979  18.683   6.853  1.00  0.00     0.165 HD
HETATM   10  N2  UNL     1      17.336  21.061   7.530  1.00  0.00    -0.063 NA
HETATM   11  N3  UNL     1      15.709  20.406   9.279  1.00  0.00    -0.303 N
HETATM   12  C7  UNL     1      14.907  19.563   9.836  1.00  0.00     0.221 C
ATOM     13  H3  UNL     1      15.775  21.351   9.656  1.00  0.00     0.171 HD
HETATM   14  N4  UNL     1      14.117  19.910  10.962  1.00  0.00    -0.061 NA
BRANCH   5  15
HETATM   15  C3  UNL     1      14.902  17.022   7.179  1.00  0.00     0.108 A
HETATM   16  C2  UNL     1      15.009  15.643   7.050  1.00  0.00     0.038 A
HETATM   17  C1  UNL     1      15.821  14.716   7.873  1.00  0.00     0.070 C
HETATM   18  N11 UNL     1      14.193  15.313   5.998  1.00  0.00    -0.329 N
HETATM   19  C9  UNL     1      13.619  16.417   5.506  1.00  0.00     0.173 A
HETATM   20  N7  UNL     1      14.063  17.494   6.249  1.00  0.00    -0.241 N
BRANCH  18  21
HETATM   21  C11 UNL     1      14.063  13.954   5.548  1.00  0.00     0.156 C
BRANCH  21  22
HETATM   22  C12 UNL     1      14.059  13.812   4.047  1.00  0.00     0.184 C
BRANCH  22  23
HETATM   23  O3  UNL     1      12.820  13.435   3.587  1.00  0.00    -0.399 OA
ATOM     24  H3  UNL     1      12.154  14.063   3.842  1.00  0.00     0.209 HD
ENDBRANCH  22  23
ENDBRANCH  21  22
ENDBRANCH  18  21
BRANCH  19  25
HETATM   25  C10 UNL     1      12.705  16.618   4.401  1.00  0.00     0.182 C
HETATM   26  N9  UNL     1      13.063  17.266   3.210  1.00  0.00    -0.077 NA
BRANCH  25  27
HETATM   27  N10 UNL     1      11.488  16.220   4.497  1.00  0.00    -0.252 N
ATOM     28  H10 UNL     1      10.950  16.482   5.324  1.00  0.00     0.195 HD
BRANCH  27  29
HETATM   29  O2  UNL     1      10.884  15.459   3.533  1.00  0.00    -0.288 OA
ATOM     30  H2  UNL     1      11.348  14.789   3.046  1.00  0.00     0.244 HD
ENDBRANCH  27  29
ENDBRANCH  25  27
ENDBRANCH  19  25
BRANCH  20  31
HETATM   31  N8  UNL     1      13.690  18.825   6.046  1.00  0.00    -0.337 N
ATOM     32  H82 UNL     1      12.889  19.137   5.498  1.00  0.00     0.177 HD
ATOM     33  H81 UNL     1      14.157  19.657   6.407  1.00  0.00     0.177 HD
ENDBRANCH  20  31
ENDBRANCH   5  15
ENDBRANCH   1   4
TORSDOF 9
ENDMDL