MODEL 3
REMARK VINA RESULT: -7.783852652      3.101      7.608
REMARK  8 active torsions:
REMARK  status: ('A' for Active; 'I' for Inactive)
REMARK    1  A    between atoms: O1_2  and  C2_3
REMARK    2  A    between atoms: C5_11  and  O4_12
REMARK    3  A    between atoms: O4_12  and  C6_13
REMARK    4  A    between atoms: C8_15  and  O5_16
REMARK    5  A    between atoms: C9_18  and  O6_19
REMARK    6  A    between atoms: C9_18  and  O7_21
REMARK    7  A    between atoms: C10_23  and  O8_24
REMARK    8  A    between atoms: C12_28  and  N2_29
ROOT
HETATM    1  C2  UNL     1      15.901  16.655   7.905  1.00  0.00     0.243 C
HETATM    2  O2  UNL     1      15.330  16.012   6.825  1.00  0.00    -0.196 OA
HETATM    3  O3  UNL     1      15.844  16.887   5.956  1.00  0.00    -0.224 OA
HETATM    4  C3  UNL     1      16.238  17.762   6.976  1.00  0.00     0.259 C
HETATM    5  C4  UNL     1      15.208  18.849   7.136  1.00  0.00     0.252 C
HETATM    6  N1  UNL     1      15.711  20.013   7.809  1.00  0.00    -0.030 N
ATOM      7  H11 UNL     1      14.947  20.615   8.114  1.00  0.00     0.281 HD
ATOM      8  H12 UNL     1      16.170  20.644   7.151  1.00  0.00     0.281 HD
HETATM    9  C5  UNL     1      16.591  19.695   8.915  1.00  0.00     0.387 C
HETATM   10  S1  UNL     1      15.838  18.435   9.952  1.00  0.00    -0.097 SA
HETATM   11  C11 UNL     1      14.932  17.293   8.869  1.00  0.00     0.146 C
HETATM   12  C12 UNL     1      14.103  18.163   7.920  1.00  0.00     0.151 C
ENDROOT
BRANCH   9  13
HETATM   13  O4  UNL     1      16.805  20.898   9.614  1.00  0.00    -0.343 OA
BRANCH  13  14
HETATM   14  C6  UNL     1      18.077  20.856  10.123  1.00  0.00     0.161 C
HETATM   15  C7  UNL     1      18.185  21.429  11.524  1.00  0.00     0.072 C
HETATM   16  C8  UNL     1      19.713  21.491  11.656  1.00  0.00     0.185 C
HETATM   17  C9  UNL     1      20.061  22.224  10.377  1.00  0.00     0.215 C
HETATM   18  C10 UNL     1      19.059  21.718   9.365  1.00  0.00     0.212 C
BRANCH  16  19
HETATM   19  O5  UNL     1      20.084  22.171  12.790  1.00  0.00    -0.390 OA
ATOM     20  H5  UNL     1      19.797  23.075  12.756  1.00  0.00     0.210 HD
ENDBRANCH  16  19
BRANCH  17  21
HETATM   21  O6  UNL     1      19.836  23.589  10.627  1.00  0.00    -0.361 OA
ATOM     22  H6  UNL     1      20.044  24.048   9.821  1.00  0.00     0.213 HD
ENDBRANCH  17  21
BRANCH  17  23
HETATM   23  O7  UNL     1      21.372  21.983   9.985  1.00  0.00    -0.361 OA
ATOM     24  H7  UNL     1      21.794  22.771   9.663  1.00  0.00     0.213 HD
ENDBRANCH  17  23
BRANCH  18  25
HETATM   25  O8  UNL     1      18.459  22.728   8.654  1.00  0.00    -0.387 OA
ATOM     26  H8  UNL     1      18.632  23.592   9.008  1.00  0.00     0.210 HD
ENDBRANCH  18  25
ENDBRANCH  13  14
ENDBRANCH   9  13
BRANCH  12  27
HETATM   27  N2  UNL     1      13.258  17.367   7.109  1.00  0.00    -0.335 N
HETATM   28  N3  UNL     1      12.770  17.769   6.062  1.00  0.00    -0.349 N
ATOM     29  H32 UNL     1      12.991  18.722   5.774  1.00  0.00     0.176 HD
ATOM     30  H31 UNL     1      12.162  17.195   5.478  1.00  0.00     0.176 HD
ATOM     31  H2  UNL     1      13.047  16.417   7.412  1.00  0.00     0.180 HD
ENDBRANCH  12  27
BRANCH   1  32
HETATM   32  O1  UNL     1      16.905  16.013   8.571  1.00  0.00    -0.355 OA
HETATM   33  C1  UNL     1      16.611  14.751   9.021  1.00  0.00     0.205 C
ENDBRANCH   1  32
TORSDOF 8
ENDMDL