MODEL 2
REMARK VINA RESULT: -8.166335140      1.041      1.346
REMARK  7 active torsions:
REMARK  status: ('A' for Active; 'I' for Inactive)
REMARK    1  A    between atoms: N1_1  and  C1_4
REMARK    2  A    between atoms: C3_8  and  C4_9
REMARK    3  A    between atoms: C4_9  and  O1_10
REMARK    4  A    between atoms: O1_10  and  C5_11
REMARK    5  A    between atoms: C7_15  and  C8_16
REMARK    6  A    between atoms: C8_16  and  N4_17
REMARK       I    between atoms: N4_17  and  C9_20
REMARK       I    between atoms: C9_20  and  N5_21
REMARK       I    between atoms: C9_20  and  N6_25
REMARK    7  A    between atoms: C10_31  and  C11_32
ROOT
HETATM    1  C5  UNL     1      39.162  29.634  20.097  1.00  0.00     0.252 C
HETATM    2  N3  UNL     1      39.922  30.743  19.528  1.00  0.00    -0.373 N
ATOM      3  H3  UNL     1      40.086  31.575  20.093  1.00  0.00     0.161 HD
HETATM    4  C6  UNL     1      40.379  30.694  18.354  1.00  0.00     0.084 C
HETATM    5  C7  UNL     1      40.124  29.470  17.561  1.00  0.00     0.141 C
HETATM    6  N7  UNL     1      40.314  28.311  18.366  1.00  0.00    -0.396 N
ATOM      7  H7  UNL     1      40.861  27.516  18.035  1.00  0.00     0.155 HD
HETATM    8  C10 UNL     1      39.712  28.312  19.643  1.00  0.00     0.216 C
ENDROOT
BRANCH   5   9
HETATM    9  C8  UNL     1      41.133  29.441  16.432  1.00  0.00     0.266 C
BRANCH   9  10
HETATM   10  N4  UNL     1      41.547  28.077  16.161  1.00  0.00    -0.020 N
HETATM   11  C9  UNL     1      42.708  28.055  15.308  1.00  0.00     0.575 C
HETATM   12  N5  UNL     1      42.419  28.698  14.056  1.00  0.00    -0.026 N
HETATM   13  N6  UNL     1      43.848  28.651  15.984  1.00  0.00    -0.026 N
ATOM     14  H53 UNL     1      41.603  28.291  13.598  1.00  0.00     0.278 HD
ATOM     15  H52 UNL     1      42.062  29.644  14.188  1.00  0.00     0.278 HD
ATOM     16  H51 UNL     1      43.241  28.683  13.452  1.00  0.00     0.278 HD
ATOM     17  H63 UNL     1      43.640  29.592  16.318  1.00  0.00     0.278 HD
ATOM     18  H62 UNL     1      44.030  28.207  16.884  1.00  0.00     0.278 HD
ATOM     19  H61 UNL     1      44.670  28.636  15.379  1.00  0.00     0.278 HD
ATOM     20  H42 UNL     1      41.700  27.550  17.021  1.00  0.00     0.281 HD
ATOM     21  H41 UNL     1      40.784  27.521  15.775  1.00  0.00     0.281 HD
ENDBRANCH   9  10
ENDBRANCH   5   9
BRANCH   8  22
HETATM   22  C11 UNL     1      40.714  27.876  20.628  1.00  0.00     0.258 C
HETATM   23  N8  UNL     1      42.056  28.282  20.474  1.00  0.00    -0.060 NA
HETATM   24  O2  UNL     1      40.389  27.157  21.585  1.00  0.00    -0.274 OA
ENDBRANCH   8  22
BRANCH   1  25
HETATM   25  O1  UNL     1      37.861  29.850  19.767  1.00  0.00    -0.358 OA
BRANCH  25  26
HETATM   26  C4  UNL     1      37.161  30.807  20.424  1.00  0.00     0.229 C
BRANCH  26  27
HETATM   27  C3  UNL     1      36.873  30.518  21.852  1.00  0.00     0.066 A
HETATM   28  C2  UNL     1      36.995  31.407  22.899  1.00  0.00     0.134 A
HETATM   29  N2  UNL     1      36.644  30.776  24.032  1.00  0.00    -0.200 N
HETATM   30  C1  UNL     1      36.304  29.522  23.743  1.00  0.00     0.676 A
ATOM     31  H2  UNL     1      36.637  31.192  24.964  1.00  0.00     0.183 HD
HETATM   32  N9  UNL     1      36.444  29.371  22.426  1.00  0.00    -0.192 N
ATOM     33  H9  UNL     1      36.254  28.507  21.919  1.00  0.00     0.184 HD
BRANCH  30  34
HETATM   34  N1  UNL     1      35.916  28.652  24.627  1.00  0.00    -0.234 N
ATOM     35  H12 UNL     1      35.009  28.193  24.720  1.00  0.00     0.174 HD
ATOM     36  H11 UNL     1      36.507  28.304  25.382  1.00  0.00     0.174 HD
ENDBRANCH  30  34
ENDBRANCH  26  27
ENDBRANCH  25  26
ENDBRANCH   1  25
TORSDOF 7
ENDMDL