MODEL 3
REMARK VINA RESULT: -7.433119526      1.139      1.352
REMARK  11 active torsions:
REMARK  status: ('A' for Active; 'I' for Inactive)
REMARK    1  A    between atoms: C2_2  and  O1_3
REMARK    2  A    between atoms: C2_2  and  C3_5
REMARK    3  A    between atoms: C3_5  and  O2_6
REMARK    4  A    between atoms: C3_5  and  C4_8
REMARK    5  A    between atoms: C4_8  and  N1_9
REMARK    6  A    between atoms: N1_9  and  C5_11
REMARK    7  A    between atoms: N6_25  and  C10_26
REMARK    8  A    between atoms: C10_26  and  C11_27
REMARK    9  A    between atoms: C11_27  and  O3_28
REMARK   10  A    between atoms: C11_27  and  C12_30
REMARK   11  A    between atoms: C12_30  and  N7_31
ROOT
HETATM    1  C5  UNL     1      42.487  28.958  16.161  1.00  0.00     0.151 A
HETATM    2  N2  UNL     1      43.666  29.318  16.742  1.00  0.00    -0.174 N
ATOM      3  H2  UNL     1      44.522  29.289  16.189  1.00  0.00     0.186 HD
HETATM    4  C6  UNL     1      43.729  29.708  18.023  1.00  0.00     0.679 A
HETATM    5  N3  UNL     1      44.869  30.045  18.546  1.00  0.00    -0.234 N
ATOM      6  H31 UNL     1      44.918  30.341  19.521  1.00  0.00     0.174 HD
ATOM      7  H32 UNL     1      45.697  30.001  17.953  1.00  0.00     0.174 HD
HETATM    8  N4  UNL     1      42.638  29.766  18.806  1.00  0.00    -0.174 N
ATOM      9  H4  UNL     1      42.724  30.067  19.777  1.00  0.00     0.186 HD
HETATM   10  C7  UNL     1      41.421  29.425  18.307  1.00  0.00     0.155 A
HETATM   11  C8  UNL     1      41.378  29.020  16.968  1.00  0.00     0.123 A
HETATM   12  N5  UNL     1      40.109  28.739  16.732  1.00  0.00    -0.346 N
ATOM     13  H5  UNL     1      39.738  28.411  15.840  1.00  0.00     0.167 HD
HETATM   14  C9  UNL     1      39.383  28.947  17.839  1.00  0.00     0.185 A
HETATM   15  N6  UNL     1      40.190  29.380  18.843  1.00  0.00    -0.324 N
ENDROOT
BRANCH   1  16
HETATM   16  N1  UNL     1      42.548  28.609  14.952  1.00  0.00    -0.351 N
ATOM     17  H1  UNL     1      41.982  29.200  14.344  1.00  0.00     0.166 HD
BRANCH  16  18
HETATM   18  C4  UNL     1      43.214  27.597  14.251  1.00  0.00     0.096 C
BRANCH  18  19
HETATM   19  C3  UNL     1      43.485  27.982  12.803  1.00  0.00     0.184 C
BRANCH  19  20
HETATM   20  C2  UNL     1      42.329  27.510  11.940  1.00  0.00     0.148 C
HETATM   21  C1  UNL     1      42.781  26.692  10.778  1.00  0.00     0.042 C
BRANCH  20  22
HETATM   22  O1  UNL     1      41.448  26.791  12.717  1.00  0.00    -0.393 OA
ATOM     23  H1  UNL     1      40.556  26.933  12.421  1.00  0.00     0.210 HD
ENDBRANCH  20  22
ENDBRANCH  19  20
BRANCH  19  24
HETATM   24  O2  UNL     1      44.691  27.479  12.387  1.00  0.00    -0.388 OA
ATOM     25  H2  UNL     1      45.170  27.054  13.088  1.00  0.00     0.210 HD
ENDBRANCH  19  24
ENDBRANCH  18  19
ENDBRANCH  16  18
ENDBRANCH   1  16
BRANCH  15  26
HETATM   26  C10 UNL     1      39.784  29.734  20.182  1.00  0.00     0.164 C
BRANCH  26  27
HETATM   27  C11 UNL     1      38.692  28.888  20.716  1.00  0.00     0.161 C
BRANCH  27  28
HETATM   28  O3  UNL     1      39.218  28.051  21.727  1.00  0.00    -0.392 OA
ATOM     29  H3  UNL     1      38.811  27.195  21.657  1.00  0.00     0.210 HD
ENDBRANCH  27  28
BRANCH  27  30
HETATM   30  C12 UNL     1      37.580  29.730  21.262  1.00  0.00     0.262 C
BRANCH  30  31
HETATM   31  N7  UNL     1      37.083  30.544  20.154  1.00  0.00    -0.077 N
ATOM     32  H73 UNL     1      37.750  30.631  19.388  1.00  0.00     0.274 HD
ATOM     33  H72 UNL     1      36.337  30.090  19.626  1.00  0.00     0.274 HD
ATOM     34  H71 UNL     1      36.806  31.442  20.549  1.00  0.00     0.274 HD
ENDBRANCH  30  31
ENDBRANCH  27  30
ENDBRANCH  26  27
ENDBRANCH  15  26
TORSDOF 11
ENDMDL