MODEL 1
REMARK VINA RESULT: -7.843252605      0.000      0.000
REMARK  13 active torsions:
REMARK  status: ('A' for Active; 'I' for Inactive)
REMARK    1  A    between atoms: N1_1  and  C1_4
REMARK    2  A    between atoms: C2_7  and  N3_8
REMARK    3  A    between atoms: N3_8  and  C3_10
REMARK    4  A    between atoms: C3_10  and  C4_11
REMARK    5  A    between atoms: C4_11  and  C5_12
REMARK    6  A    between atoms: C5_12  and  C6_13
REMARK    7  A    between atoms: C6_13  and  C7_14
REMARK    8  A    between atoms: C7_14  and  O1_15
REMARK    9  A    between atoms: C8_19  and  N5_20
REMARK   10  A    between atoms: N5_20  and  O2_22
REMARK   11  A    between atoms: O2_22  and  C9_23
REMARK   12  A    between atoms: C11_25  and  N6_26
REMARK   13  A    between atoms: C12_30  and  N7_31
ROOT
HETATM    1  C1  UNL     1      43.151  29.426  17.114  1.00  0.00     0.705 A
HETATM    2  N2  UNL     1      43.150  28.844  15.908  1.00  0.00    -0.022 N
ATOM      3  H2  UNL     1      43.952  28.974  15.293  1.00  0.00     0.203 HD
HETATM    4  C2  UNL     1      42.116  28.090  15.487  1.00  0.00     0.707 A
HETATM    5  N4  UNL     1      41.058  27.918  16.303  1.00  0.00    -0.020 N
ATOM      6  H4  UNL     1      40.273  27.348  15.989  1.00  0.00     0.203 HD
HETATM    7  C8  UNL     1      41.015  28.488  17.533  1.00  0.00     0.731 A
HETATM    8  N8  UNL     1      42.075  29.228  17.896  1.00  0.00    -0.020 N
ATOM      9  H8  UNL     1      42.063  29.665  18.818  1.00  0.00     0.203 HD
ENDROOT
BRANCH   7  10
HETATM   10  N5  UNL     1      39.992  28.304  18.282  1.00  0.00    -0.093 N
ATOM     11  H5  UNL     1      39.899  27.417  18.778  1.00  0.00     0.213 HD
BRANCH  10  12
HETATM   12  O2  UNL     1      39.032  29.243  18.439  1.00  0.00    -0.233 OA
BRANCH  12  13
HETATM   13  C9  UNL     1      38.561  29.696  19.711  1.00  0.00     0.294 C
HETATM   14  C10 UNL     1      38.886  28.596  20.701  1.00  0.00     0.100 C
HETATM   15  C11 UNL     1      37.526  27.911  20.811  1.00  0.00     0.244 C
HETATM   16  C12 UNL     1      36.631  29.154  20.706  1.00  0.00     0.351 C
HETATM   17  O3  UNL     1      37.202  29.804  19.631  1.00  0.00    -0.325 OA
BRANCH  15  18
HETATM   18  N6  UNL     1      37.362  27.261  22.086  1.00  0.00    -0.071 N
ATOM     19  H63 UNL     1      36.911  26.352  21.985  1.00  0.00     0.274 HD
ATOM     20  H62 UNL     1      38.258  26.953  22.465  1.00  0.00     0.274 HD
ATOM     21  H61 UNL     1      36.861  27.854  22.747  1.00  0.00     0.274 HD
ENDBRANCH  15  18
BRANCH  16  22
HETATM   22  N7  UNL     1      35.269  28.770  20.495  1.00  0.00    -0.051 N
ATOM     23  H73 UNL     1      34.686  29.566  20.236  1.00  0.00     0.277 HD
ATOM     24  H72 UNL     1      35.157  28.218  19.645  1.00  0.00     0.277 HD
ATOM     25  H71 UNL     1      34.906  28.284  21.315  1.00  0.00     0.277 HD
ENDBRANCH  16  22
ENDBRANCH  12  13
ENDBRANCH  10  12
ENDBRANCH   7  10
BRANCH   4  26
HETATM   26  N3  UNL     1      42.072  27.515  14.341  1.00  0.00    -0.225 N
ATOM     27  H3  UNL     1      41.235  27.670  13.781  1.00  0.00     0.177 HD
BRANCH  26  28
HETATM   28  C3  UNL     1      43.073  26.685  13.776  1.00  0.00     0.138 C
BRANCH  28  29
HETATM   29  C4  UNL     1      42.613  25.688  12.756  1.00  0.00     0.020 C
BRANCH  29  30
HETATM   30  C5  UNL     1      41.367  26.004  12.025  1.00  0.00     0.004 C
BRANCH  30  31
HETATM   31  C6  UNL     1      40.194  25.102  12.251  1.00  0.00     0.026 C
BRANCH  31  32
HETATM   32  C7  UNL     1      40.771  23.760  12.750  1.00  0.00     0.164 C
BRANCH  32  33
HETATM   33  O1  UNL     1      39.813  22.761  12.647  1.00  0.00    -0.401 OA
ATOM     34  H1  UNL     1      40.233  21.910  12.592  1.00  0.00     0.209 HD
ENDBRANCH  32  33
ENDBRANCH  31  32
ENDBRANCH  30  31
ENDBRANCH  29  30
ENDBRANCH  28  29
ENDBRANCH  26  28
ENDBRANCH   4  26
BRANCH   1  35
HETATM   35  N1  UNL     1      44.150  30.140  17.491  1.00  0.00    -0.234 N
ATOM     36  H12 UNL     1      45.004  30.218  16.938  1.00  0.00     0.174 HD
ATOM     37  H11 UNL     1      44.114  30.656  18.370  1.00  0.00     0.174 HD
ENDBRANCH   1  35
TORSDOF 13
ENDMDL