MODEL 3
REMARK VINA RESULT: -6.612233240      1.039      1.159
REMARK  14 active torsions:
REMARK  status: ('A' for Active; 'I' for Inactive)
REMARK    1  A    between atoms: C5_5  and  N1_6
REMARK    2  A    between atoms: C6_9  and  C7_10
REMARK    3  A    between atoms: C7_10  and  O1_11
REMARK    4  A    between atoms: C7_10  and  N2_13
REMARK    5  A    between atoms: N2_13  and  C8_15
REMARK    6  A    between atoms: C8_15  and  C9_16
REMARK    7  A    between atoms: C9_16  and  O2_17
REMARK    8  A    between atoms: C9_16  and  C10_19
REMARK    9  A    between atoms: C10_19  and  O3_20
REMARK   10  A    between atoms: C10_19  and  C11_22
REMARK   11  A    between atoms: C11_22  and  N3_23
REMARK   12  A    between atoms: C11_22  and  C12_27
REMARK   13  A    between atoms: C12_27  and  N4_28
REMARK   14  A    between atoms: C13_32  and  N5_33
ROOT
HETATM    1  N2  UNL     1      41.368  29.107  18.209  1.00  0.00    -0.394 N
ATOM      2  H2  UNL     1      41.368  28.142  18.541  1.00  0.00     0.155 HD
ENDROOT
BRANCH   1   3
HETATM    3  C7  UNL     1      40.394  29.927  18.750  1.00  0.00     0.222 C
BRANCH   3   4
HETATM    4  C6  UNL     1      39.689  29.519  19.966  1.00  0.00     0.092 C
HETATM    5  C5  UNL     1      38.982  28.262  20.108  1.00  0.00     0.037 C
HETATM    6  C2  UNL     1      38.201  28.515  21.443  1.00  0.00     0.016 C
HETATM    7  C4  UNL     1      37.600  28.580  19.467  1.00  0.00     0.038 C
HETATM    8  C1  UNL     1      37.387  27.318  21.864  1.00  0.00     0.013 C
HETATM    9  C3  UNL     1      37.477  29.537  20.602  1.00  0.00     0.025 C
HETATM   10  C13 UNL     1      38.552  30.525  20.319  1.00  0.00     0.198 C
BRANCH   5  11
HETATM   11  N1  UNL     1      39.420  26.974  19.940  1.00  0.00    -0.421 N
ATOM     12  H12 UNL     1      38.772  26.187  19.893  1.00  0.00     0.150 HD
ATOM     13  H11 UNL     1      40.433  26.877  19.867  1.00  0.00     0.150 HD
ENDBRANCH   5  11
BRANCH  10  14
HETATM   14  N5  UNL     1      38.242  31.360  19.194  1.00  0.00    -0.074 N
ATOM     15  H53 UNL     1      37.695  32.172  19.479  1.00  0.00     0.274 HD
ATOM     16  H52 UNL     1      39.076  31.838  18.851  1.00  0.00     0.274 HD
ATOM     17  H51 UNL     1      37.778  30.847  18.446  1.00  0.00     0.274 HD
ENDBRANCH  10  14
ENDBRANCH   3   4
BRANCH   3  18
HETATM   18  O1  UNL     1      41.241  31.084  19.183  1.00  0.00    -0.377 OA
ATOM     19  H1  UNL     1      42.131  30.755  19.135  1.00  0.00     0.212 HD
ENDBRANCH   3  18
ENDBRANCH   1   3
BRANCH   1  20
HETATM   20  C8  UNL     1      42.343  29.419  17.278  1.00  0.00     0.150 C
BRANCH  20  21
HETATM   21  C9  UNL     1      41.838  28.849  15.905  1.00  0.00     0.166 C
BRANCH  21  22
HETATM   22  O2  UNL     1      40.692  28.102  16.146  1.00  0.00    -0.391 OA
ATOM     23  H2  UNL     1      40.528  27.562  15.381  1.00  0.00     0.210 HD
ENDBRANCH  21  22
BRANCH  21  24
HETATM   24  C10 UNL     1      42.923  27.959  15.347  1.00  0.00     0.180 C
BRANCH  24  25
HETATM   25  O3  UNL     1      42.894  26.715  15.988  1.00  0.00    -0.391 OA
ATOM     26  H3  UNL     1      41.994  26.437  16.112  1.00  0.00     0.210 HD
ENDBRANCH  24  25
BRANCH  24  27
HETATM   27  C11 UNL     1      42.801  27.807  13.862  1.00  0.00     0.239 C
BRANCH  27  28
HETATM   28  N3  UNL     1      42.655  29.105  13.209  1.00  0.00    -0.071 N
ATOM     29  H33 UNL     1      43.408  29.742  13.468  1.00  0.00     0.274 HD
ATOM     30  H32 UNL     1      42.840  29.044  12.208  1.00  0.00     0.274 HD
ATOM     31  H31 UNL     1      41.738  29.512  13.397  1.00  0.00     0.274 HD
ENDBRANCH  27  28
BRANCH  27  32
HETATM   32  C12 UNL     1      43.933  27.016  13.260  1.00  0.00     0.265 C
BRANCH  32  33
HETATM   33  N4  UNL     1      44.525  27.733  12.140  1.00  0.00    -0.077 N
ATOM     34  H43 UNL     1      43.814  28.145  11.537  1.00  0.00     0.274 HD
ATOM     35  H42 UNL     1      44.985  28.592  12.443  1.00  0.00     0.274 HD
ATOM     36  H41 UNL     1      45.159  27.128  11.618  1.00  0.00     0.274 HD
ENDBRANCH  32  33
ENDBRANCH  27  32
ENDBRANCH  24  27
ENDBRANCH  21  24
ENDBRANCH  20  21
ENDBRANCH   1  20
TORSDOF 14
ENDMDL