MODEL 3
REMARK VINA RESULT: -7.982845028      1.662      2.083
REMARK  8 active torsions:
REMARK  status: ('A' for Active; 'I' for Inactive)
REMARK    1  A    between atoms: N1_1  and  C1_5
REMARK    2  A    between atoms: C1_5  and  C2_6
REMARK    3  A    between atoms: C1_5  and  C7_20
REMARK    4  A    between atoms: C2_6  and  N2_7
REMARK    5  A    between atoms: N2_7  and  N3_8
REMARK    6  A    between atoms: N3_8  and  C3_10
REMARK    7  A    between atoms: C7_20  and  O3_21
REMARK    8  A    between atoms: C7_20  and  N6_23
ROOT
HETATM    1  C1  UNL     1      41.809  29.517  16.360  1.00  0.00     0.247 C
ENDROOT
BRANCH   1   2
HETATM    2  N1  UNL     1      40.399  29.385  16.532  1.00  0.00    -0.070 N
ATOM      3  H13 UNL     1      39.964  28.857  15.776  1.00  0.00     0.275 HD
ATOM      4  H12 UNL     1      40.159  28.758  17.300  1.00  0.00     0.275 HD
ATOM      5  H11 UNL     1      39.989  30.312  16.643  1.00  0.00     0.275 HD
ENDBRANCH   1   2
BRANCH   1   6
HETATM    6  C2  UNL     1      42.431  29.969  17.676  1.00  0.00     0.172 C
BRANCH   6   7
HETATM    7  N2  UNL     1      41.908  29.120  18.726  1.00  0.00    -0.139 NA
BRANCH   7   8
HETATM    8  N3  UNL     1      41.267  29.887  19.723  1.00  0.00    -0.298 N
ATOM      9  H3  UNL     1      41.823  30.560  20.252  1.00  0.00     0.182 HD
BRANCH   8  10
HETATM   10  C3  UNL     1      39.900  29.766  20.018  1.00  0.00     0.128 A
HETATM   11  C4  UNL     1      39.464  28.800  20.891  1.00  0.00     0.129 A
HETATM   12  N4  UNL     1      38.142  28.699  21.173  1.00  0.00    -0.316 N
HETATM   13  C5  UNL     1      37.235  29.520  20.625  1.00  0.00     0.327 A
ATOM     14  H4  UNL     1      37.828  27.978  21.822  1.00  0.00     0.170 HD
HETATM   15  O1  UNL     1      36.010  29.432  20.882  1.00  0.00    -0.247 OA
HETATM   16  N5  UNL     1      37.644  30.476  19.764  1.00  0.00    -0.274 N
HETATM   17  C6  UNL     1      38.956  30.600  19.463  1.00  0.00     0.278 A
ATOM     18  H5  UNL     1      36.963  31.105  19.340  1.00  0.00     0.173 HD
HETATM   19  O2  UNL     1      39.352  31.484  18.665  1.00  0.00    -0.265 OA
ENDBRANCH   8  10
ENDBRANCH   7   8
ENDBRANCH   6   7
ENDBRANCH   1   6
BRANCH   1  20
HETATM   20  C7  UNL     1      42.509  28.342  15.775  1.00  0.00     0.249 C
BRANCH  20  21
HETATM   21  O3  UNL     1      42.141  27.251  16.667  1.00  0.00    -0.375 OA
ATOM     22  H3  UNL     1      42.610  26.506  16.310  1.00  0.00     0.212 HD
ENDBRANCH  20  21
BRANCH  20  23
HETATM   23  N6  UNL     1      42.178  27.898  14.514  1.00  0.00    -0.367 N
HETATM   24  C8  UNL     1      42.869  27.174  13.599  1.00  0.00     0.011 C
HETATM   25  C9  UNL     1      43.381  25.788  13.948  1.00  0.00     0.081 C
HETATM   26  C11 UNL     1      43.867  27.708  12.639  1.00  0.00     0.284 C
HETATM   27  C10 UNL     1      44.326  25.501  12.823  1.00  0.00     0.238 C
HETATM   28  N7  UNL     1      44.011  26.469  11.794  1.00  0.00    -0.070 N
ATOM     29  H72 UNL     1      44.676  26.531  11.023  1.00  0.00     0.277 HD
ATOM     30  H71 UNL     1      43.216  26.242  11.197  1.00  0.00     0.277 HD
ATOM     31  H6  UNL     1      41.239  28.162  14.213  1.00  0.00     0.161 HD
ENDBRANCH  20  23
ENDBRANCH   1  20
TORSDOF 8
ENDMDL