MODEL 2
REMARK VINA RESULT: -7.927628179      2.241      6.636
REMARK  11 active torsions:
REMARK  status: ('A' for Active; 'I' for Inactive)
REMARK    1  A    between atoms: N1_1  and  C1_4
REMARK    2  A    between atoms: C2_7  and  N3_8
REMARK    3  A    between atoms: N4_11  and  C3_12
REMARK    4  A    between atoms: C3_12  and  C4_13
REMARK    5  A    between atoms: C4_13  and  N5_14
REMARK    6  A    between atoms: C4_13  and  C11_29
REMARK    7  A    between atoms: N5_14  and  C5_16
REMARK    8  A    between atoms: C5_16  and  O1_17
REMARK    9  A    between atoms: C5_16  and  C6_19
REMARK   10  A    between atoms: C6_19  and  N6_20
REMARK   11  A    between atoms: C6_19  and  C7_24
ROOT
HETATM    1  C4  UNL     1      42.209  28.772  15.964  1.00  0.00     0.189 C
ENDROOT
BRANCH   1   2
HETATM    2  C3  UNL     1      43.050  27.733  15.268  1.00  0.00     0.202 C
BRANCH   2   3
HETATM    3  N4  UNL     1      42.624  27.386  13.943  1.00  0.00    -0.107 N
HETATM    4  C2  UNL     1      43.073  27.932  12.804  1.00  0.00     0.707 A
HETATM    5  N2  UNL     1      42.390  27.363  11.777  1.00  0.00    -0.020 N
HETATM    6  C1  UNL     1      41.527  26.473  12.296  1.00  0.00     0.705 A
ATOM      7  H2  UNL     1      42.511  27.573  10.787  1.00  0.00     0.203 HD
HETATM    8  N8  UNL     1      41.685  26.500  13.628  1.00  0.00    -0.115 N
ATOM      9  H8  UNL     1      41.166  25.929  14.295  1.00  0.00     0.206 HD
BRANCH   4  10
HETATM   10  N3  UNL     1      43.986  28.842  12.626  1.00  0.00    -0.233 N
ATOM     11  H32 UNL     1      44.055  29.559  11.904  1.00  0.00     0.174 HD
ATOM     12  H31 UNL     1      44.796  28.940  13.239  1.00  0.00     0.174 HD
ENDBRANCH   4  10
BRANCH   6  13
HETATM   13  N1  UNL     1      40.675  25.704  11.662  1.00  0.00    -0.233 N
ATOM     14  H12 UNL     1      40.580  24.699  11.807  1.00  0.00     0.174 HD
ATOM     15  H11 UNL     1      39.995  25.968  10.949  1.00  0.00     0.174 HD
ENDBRANCH   6  13
ENDBRANCH   2   3
ENDBRANCH   1   2
BRANCH   1  16
HETATM   16  N5  UNL     1      41.408  28.086  16.911  1.00  0.00    -0.382 N
ATOM     17  H5  UNL     1      41.794  27.301  17.435  1.00  0.00     0.156 HD
BRANCH  16  18
HETATM   18  C5  UNL     1      40.069  28.496  17.128  1.00  0.00     0.245 C
BRANCH  18  19
HETATM   19  O1  UNL     1      39.921  29.703  16.381  1.00  0.00    -0.375 OA
ATOM     20  H1  UNL     1      39.620  29.430  15.522  1.00  0.00     0.212 HD
ENDBRANCH  18  19
BRANCH  18  21
HETATM   21  C6  UNL     1      39.971  28.917  18.585  1.00  0.00     0.237 C
BRANCH  21  22
HETATM   22  N6  UNL     1      41.067  28.248  19.272  1.00  0.00    -0.070 N
ATOM     23  H63 UNL     1      41.820  27.955  18.648  1.00  0.00     0.274 HD
ATOM     24  H62 UNL     1      41.625  28.873  19.853  1.00  0.00     0.274 HD
ATOM     25  H61 UNL     1      40.646  27.477  19.790  1.00  0.00     0.274 HD
ENDBRANCH  21  22
BRANCH  21  26
HETATM   26  C7  UNL     1      38.680  28.555  19.220  1.00  0.00     0.046 C
HETATM   27  C8  UNL     1      38.923  27.420  20.190  1.00  0.00     0.035 C
HETATM   28  C9  UNL     1      38.044  27.744  21.338  1.00  0.00     0.168 C
HETATM   29  O2  UNL     1      37.391  28.942  21.103  1.00  0.00    -0.391 OA
HETATM   30  C10 UNL     1      38.100  29.610  20.110  1.00  0.00     0.174 C
ENDBRANCH  21  26
ENDBRANCH  18  21
ENDBRANCH  16  18
ENDBRANCH   1  16
BRANCH   1  31
HETATM   31  C11 UNL     1      43.038  29.759  16.682  1.00  0.00     0.255 C
HETATM   32  N7  UNL     1      44.351  29.460  17.164  1.00  0.00    -0.060 NA
HETATM   33  O3  UNL     1      42.566  30.921  16.871  1.00  0.00    -0.275 OA
ENDBRANCH   1  31
TORSDOF 11
ENDMDL