MODEL 5
REMARK VINA RESULT: -6.476867656      3.221      5.025
REMARK  11 active torsions:
REMARK  status: ('A' for Active; 'I' for Inactive)
REMARK    1  A    between atoms: C4_12  and  C5_13
REMARK    2  A    between atoms: C5_13  and  O1_14
REMARK    3  A    between atoms: C5_13  and  O2_16
REMARK    4  A    between atoms: N4_18  and  O3_19
REMARK    5  A    between atoms: O3_19  and  C6_20
REMARK    6  A    between atoms: C6_20  and  C7_21
REMARK    7  A    between atoms: C7_21  and  O4_22
REMARK    8  A    between atoms: C7_21  and  C8_24
REMARK    9  A    between atoms: C8_24  and  O5_25
REMARK   10  A    between atoms: C8_24  and  C9_27
REMARK   11  A    between atoms: C9_27  and  C10_28
ROOT
HETATM    1  N1  UNL     1      35.675  28.858  19.758  1.00  0.00    -0.233 N
ATOM      2  H11 UNL     1      35.386  27.904  19.977  1.00  0.00     0.174 HD
ATOM      3  H12 UNL     1      35.504  29.394  18.908  1.00  0.00     0.174 HD
HETATM    4  C1  UNL     1      36.354  29.494  20.670  1.00  0.00     0.696 C
HETATM    5  N2  UNL     1      36.758  30.824  20.366  1.00  0.00    -0.223 N
ATOM      6  H2  UNL     1      36.503  31.146  19.432  1.00  0.00     0.177 HD
HETATM    7  C2  UNL     1      37.473  31.793  21.170  1.00  0.00     0.165 C
HETATM    8  C3  UNL     1      37.838  31.254  22.528  1.00  0.00     0.255 C
HETATM    9  N3  UNL     1      36.746  30.649  23.226  1.00  0.00    -0.045 N
ATOM     10  H31 UNL     1      35.850  30.981  22.868  1.00  0.00     0.280 HD
ATOM     11  H32 UNL     1      36.680  31.000  24.182  1.00  0.00     0.280 HD
HETATM   12  C4  UNL     1      36.815  29.192  23.204  1.00  0.00     0.385 C
HETATM   13  N4  UNL     1      36.593  28.748  21.855  1.00  0.00    -0.051 N
ENDROOT
BRANCH  13  14
HETATM   14  O3  UNL     1      36.610  27.410  21.665  1.00  0.00    -0.260 OA
BRANCH  14  15
HETATM   15  C6  UNL     1      37.951  27.020  21.874  1.00  0.00     0.236 C
BRANCH  15  16
HETATM   16  C7  UNL     1      38.640  26.936  20.546  1.00  0.00     0.173 C
BRANCH  16  17
HETATM   17  O4  UNL     1      38.940  25.620  20.241  1.00  0.00    -0.391 OA
ATOM     18  H4  UNL     1      39.869  25.456  20.359  1.00  0.00     0.210 HD
ENDBRANCH  16  17
BRANCH  16  19
HETATM   19  C8  UNL     1      39.924  27.737  20.493  1.00  0.00     0.149 C
BRANCH  19  20
HETATM   20  O5  UNL     1      40.218  28.092  21.805  1.00  0.00    -0.393 OA
ATOM     21  H5  UNL     1      40.275  29.040  21.818  1.00  0.00     0.210 HD
ENDBRANCH  19  20
BRANCH  19  22
HETATM   22  C9  UNL     1      39.700  28.915  19.598  1.00  0.00     0.039 C
BRANCH  22  23
HETATM   23  C10 UNL     1      39.502  28.589  18.158  1.00  0.00    -0.012 A
HETATM   24  C11 UNL     1      39.628  29.614  17.083  1.00  0.00     0.005 A
HETATM   25  C12 UNL     1      40.614  28.497  17.191  1.00  0.00     0.005 A
ENDBRANCH  22  23
ENDBRANCH  19  22
ENDBRANCH  16  19
ENDBRANCH  15  16
ENDBRANCH  14  15
ENDBRANCH  13  14
BRANCH  12  26
HETATM   26  C5  UNL     1      35.795  28.565  24.097  1.00  0.00     0.307 C
BRANCH  26  27
HETATM   27  O1  UNL     1      34.757  27.962  23.410  1.00  0.00    -0.368 OA
ATOM     28  H1  UNL     1      34.000  27.778  23.954  1.00  0.00     0.212 HD
ENDBRANCH  26  27
BRANCH  26  29
HETATM   29  O2  UNL     1      35.270  29.561  24.916  1.00  0.00    -0.368 OA
ATOM     30  H2  UNL     1      34.588  29.172  25.451  1.00  0.00     0.212 HD
ENDBRANCH  26  29
ENDBRANCH  12  26
TORSDOF 11
ENDMDL