MODEL 1
REMARK VINA RESULT: -6.337758744      0.000      0.000
REMARK  14 active torsions:
REMARK  status: ('A' for Active; 'I' for Inactive)
REMARK    1  A    between atoms: C2_2  and  N1_3
REMARK    2  A    between atoms: C2_2  and  C3_7
REMARK    3  A    between atoms: C3_7  and  C4_8
REMARK    4  A    between atoms: C4_8  and  C5_9
REMARK    5  A    between atoms: C5_9  and  C6_10
REMARK    6  A    between atoms: C5_9  and  C13_30
REMARK    7  A    between atoms: C6_10  and  O1_11
REMARK    8  A    between atoms: O1_11  and  C7_12
REMARK    9  A    between atoms: C8_13  and  N2_14
REMARK   10  A    between atoms: C10_19  and  N3_20
REMARK   11  A    between atoms: C11_24  and  O2_25
REMARK   12  A    between atoms: C12_27  and  O3_28
REMARK   13  A    between atoms: C13_30  and  N4_31
REMARK   14  A    between atoms: C13_30  and  O4_35
ROOT
HETATM    1  C7  UNL     1      40.112  29.414  18.932  1.00  0.00     0.183 C
HETATM    2  C8  UNL     1      41.215  30.062  19.701  1.00  0.00     0.217 C
HETATM    3  C9  UNL     1      42.536  29.602  19.124  1.00  0.00     0.071 C
HETATM    4  C10 UNL     1      42.599  30.094  17.688  1.00  0.00     0.216 C
HETATM    5  C11 UNL     1      41.488  29.412  16.921  1.00  0.00     0.179 C
HETATM    6  C12 UNL     1      40.169  29.920  17.509  1.00  0.00     0.179 C
ENDROOT
BRANCH   1   7
HETATM    7  O1  UNL     1      38.872  29.504  19.496  1.00  0.00    -0.381 OA
BRANCH   7   8
HETATM    8  C6  UNL     1      38.437  30.771  19.757  1.00  0.00     0.177 C
BRANCH   8   9
HETATM    9  C5  UNL     1      37.024  30.582  20.462  1.00  0.00     0.066 C
BRANCH   9  10
HETATM   10  C4  UNL     1      36.597  29.201  20.238  1.00  0.00     0.013 C
BRANCH  10  11
HETATM   11  C3  UNL     1      35.731  28.474  21.183  1.00  0.00     0.033 C
BRANCH  11  12
HETATM   12  C2  UNL     1      36.396  27.336  21.881  1.00  0.00     0.179 C
HETATM   13  C1  UNL     1      37.587  26.826  21.051  1.00  0.00     0.039 C
BRANCH  12  14
HETATM   14  N1  UNL     1      36.856  27.628  23.175  1.00  0.00    -0.075 N
ATOM     15  H13 UNL     1      36.216  27.308  23.901  1.00  0.00     0.274 HD
ATOM     16  H12 UNL     1      37.662  27.063  23.443  1.00  0.00     0.274 HD
ATOM     17  H11 UNL     1      37.044  28.630  23.229  1.00  0.00     0.274 HD
ENDBRANCH  12  14
ENDBRANCH  11  12
ENDBRANCH  10  11
ENDBRANCH   9  10
BRANCH   9  18
HETATM   18  C13 UNL     1      37.307  30.937  21.919  1.00  0.00     0.322 C
BRANCH  18  19
HETATM   19  N4  UNL     1      37.512  32.315  22.113  1.00  0.00    -0.053 N
ATOM     20  H43 UNL     1      36.768  32.859  21.678  1.00  0.00     0.277 HD
ATOM     21  H42 UNL     1      37.357  32.573  23.088  1.00  0.00     0.277 HD
ATOM     22  H41 UNL     1      38.428  32.626  21.794  1.00  0.00     0.277 HD
ENDBRANCH  18  19
BRANCH  18  23
HETATM   23  O4  UNL     1      38.461  30.220  22.294  1.00  0.00    -0.369 OA
ATOM     24  H4  UNL     1      38.624  30.423  23.207  1.00  0.00     0.212 HD
ENDBRANCH  18  23
ENDBRANCH   9  18
ENDBRANCH   8   9
ENDBRANCH   7   8
ENDBRANCH   1   7
BRANCH   2  25
HETATM   25  N2  UNL     1      41.149  29.762  21.118  1.00  0.00    -0.072 N
ATOM     26  H23 UNL     1      41.482  28.818  21.310  1.00  0.00     0.274 HD
ATOM     27  H22 UNL     1      41.849  30.291  21.639  1.00  0.00     0.274 HD
ATOM     28  H21 UNL     1      40.216  29.909  21.502  1.00  0.00     0.274 HD
ENDBRANCH   2  25
BRANCH   6  29
HETATM   29  O3  UNL     1      39.157  29.383  16.726  1.00  0.00    -0.390 OA
ATOM     30  H3  UNL     1      39.460  29.171  15.851  1.00  0.00     0.210 HD
ENDBRANCH   6  29
BRANCH   5  31
HETATM   31  O2  UNL     1      41.504  28.039  17.116  1.00  0.00    -0.391 OA
ATOM     32  H2  UNL     1      40.629  27.696  17.247  1.00  0.00     0.210 HD
ENDBRANCH   5  31
BRANCH   4  33
HETATM   33  N3  UNL     1      43.897  29.859  17.134  1.00  0.00    -0.072 N
ATOM     34  H33 UNL     1      44.589  30.514  17.498  1.00  0.00     0.274 HD
ATOM     35  H32 UNL     1      44.308  28.994  17.484  1.00  0.00     0.274 HD
ATOM     36  H31 UNL     1      43.858  29.875  16.115  1.00  0.00     0.274 HD
ENDBRANCH   4  33
TORSDOF 14
ENDMDL