MODEL 1
REMARK VINA RESULT: -7.467836966      0.000      0.000
REMARK  11 active torsions:
REMARK  status: ('A' for Active; 'I' for Inactive)
REMARK    1  A    between atoms: N1_1  and  C1_4
REMARK    2  A    between atoms: C3_9  and  N4_10
REMARK    3  A    between atoms: N4_10  and  C4_12
REMARK    4  A    between atoms: C4_12  and  C5_13
REMARK    5  A    between atoms: C5_13  and  O1_14
REMARK    6  A    between atoms: C5_13  and  C6_16
REMARK    7  A    between atoms: C6_16  and  C7_17
REMARK    8  A    between atoms: C7_17  and  N5_18
REMARK    9  A    between atoms: C7_17  and  C8_22
REMARK   10  A    between atoms: C8_22  and  S1_23
REMARK   11  A    between atoms: S1_23  and  N6_24
ROOT
HETATM    1  C4  UNL     1      41.759  29.672  19.262  1.00  0.00     0.151 C
ENDROOT
BRANCH   1   2
HETATM    2  N4  UNL     1      40.762  30.114  20.194  1.00  0.00    -0.380 N
ATOM      3  H4  UNL     1      41.013  30.906  20.787  1.00  0.00     0.160 HD
BRANCH   2   4
HETATM    4  C3  UNL     1      39.483  29.577  20.378  1.00  0.00     0.139 A
HETATM    5  C2  UNL     1      38.409  30.303  19.843  1.00  0.00     0.163 A
HETATM    6  N2  UNL     1      37.135  29.892  19.965  1.00  0.00    -0.177 N
HETATM    7  N3  UNL     1      38.706  31.507  19.156  1.00  0.00    -0.080 NA
HETATM    8  C1  UNL     1      36.900  28.744  20.626  1.00  0.00     0.680 A
ATOM      9  H2  UNL     1      36.368  30.435  19.568  1.00  0.00     0.185 HD
HETATM   10  N7  UNL     1      37.892  28.031  21.145  1.00  0.00    -0.154 N
HETATM   11  C9  UNL     1      39.202  28.418  21.041  1.00  0.00     0.289 A
ATOM     12  H7  UNL     1      37.672  27.165  21.637  1.00  0.00     0.187 HD
HETATM   13  O3  UNL     1      40.100  27.706  21.552  1.00  0.00    -0.265 OA
BRANCH   8  14
HETATM   14  N1  UNL     1      35.679  28.343  20.747  1.00  0.00    -0.234 N
ATOM     15  H12 UNL     1      34.930  29.019  20.898  1.00  0.00     0.174 HD
ATOM     16  H11 UNL     1      35.488  27.342  20.689  1.00  0.00     0.174 HD
ENDBRANCH   8  14
ENDBRANCH   2   4
ENDBRANCH   1   2
BRANCH   1  17
HETATM   17  C5  UNL     1      41.474  29.974  17.810  1.00  0.00     0.137 C
BRANCH  17  18
HETATM   18  O1  UNL     1      41.546  31.388  17.741  1.00  0.00    -0.394 OA
ATOM     19  H1  UNL     1      41.000  31.676  18.463  1.00  0.00     0.210 HD
ENDBRANCH  17  18
BRANCH  17  20
HETATM   20  C6  UNL     1      42.630  29.381  17.041  1.00  0.00     0.067 C
BRANCH  20  21
HETATM   21  C7  UNL     1      42.315  28.697  15.780  1.00  0.00     0.199 C
BRANCH  21  22
HETATM   22  N5  UNL     1      41.066  27.951  15.924  1.00  0.00    -0.074 N
ATOM     23  H53 UNL     1      41.221  26.944  15.950  1.00  0.00     0.274 HD
ATOM     24  H52 UNL     1      40.657  28.061  16.853  1.00  0.00     0.274 HD
ATOM     25  H51 UNL     1      40.417  28.221  15.184  1.00  0.00     0.274 HD
ENDBRANCH  21  22
BRANCH  21  26
HETATM   26  C8  UNL     1      43.333  27.809  15.190  1.00  0.00     0.164 C
BRANCH  26  27
HETATM   27  S1  UNL     1      42.981  27.632  13.457  1.00  0.00     0.109 S
HETATM   28  O2  UNL     1      43.110  29.064  12.634  1.00  0.00    -0.236 OA
BRANCH  27  29
HETATM   29  N6  UNL     1      41.567  26.764  13.114  1.00  0.00    -0.350 NA
ATOM     30  H62 UNL     1      40.714  27.322  13.166  1.00  0.00     0.166 HD
ATOM     31  H61 UNL     1      41.485  25.876  13.611  1.00  0.00     0.166 HD
ENDBRANCH  27  29
ENDBRANCH  26  27
ENDBRANCH  21  26
ENDBRANCH  20  21
ENDBRANCH  17  20
ENDBRANCH   1  17
TORSDOF 11
ENDMDL