MODEL 1
REMARK VINA RESULT: -7.092147932      0.000      0.000
REMARK  14 active torsions:
REMARK  status: ('A' for Active; 'I' for Inactive)
REMARK    1  A    between atoms: O1_2  and  C2_3
REMARK    2  A    between atoms: C4_5  and  N1_6
REMARK    3  A    between atoms: N1_6  and  C5_8
REMARK    4  A    between atoms: C5_8  and  O2_9
REMARK    5  A    between atoms: C5_8  and  C6_11
REMARK    6  A    between atoms: C6_11  and  C7_12
REMARK    7  A    between atoms: C7_12  and  N2_13
REMARK    8  A    between atoms: C7_12  and  C8_17
REMARK    9  A    between atoms: C8_17  and  O3_18
REMARK   10  A    between atoms: C8_17  and  C9_20
REMARK   11  A    between atoms: C9_20  and  O4_21
REMARK   12  A    between atoms: C9_20  and  C10_23
REMARK   13  A    between atoms: C10_23  and  O5_24
REMARK   14  A    between atoms: C11_28  and  N4_29
ROOT
HETATM    1  C5  UNL     1      39.289  28.774  20.524  1.00  0.00     0.221 C
ENDROOT
BRANCH   1   2
HETATM    2  N1  UNL     1      38.046  29.424  20.786  1.00  0.00    -0.349 N
ATOM      3  H1  UNL     1      37.482  29.623  19.960  1.00  0.00     0.163 HD
BRANCH   2   4
HETATM    4  C4  UNL     1      37.536  29.791  21.882  1.00  0.00     0.122 A
HETATM    5  C3  UNL     1      37.712  31.135  22.213  1.00  0.00     0.105 A
HETATM    6  C2  UNL     1      37.196  31.616  23.376  1.00  0.00     0.160 A
HETATM    7  N5  UNL     1      36.522  30.804  24.197  1.00  0.00    -0.171 N
HETATM    8  C11 UNL     1      36.353  29.509  23.878  1.00  0.00     0.679 A
ATOM      9  H5  UNL     1      36.135  31.168  25.069  1.00  0.00     0.186 HD
HETATM   10  N3  UNL     1      36.857  28.994  22.721  1.00  0.00    -0.177 N
ATOM     11  H3  UNL     1      36.719  28.009  22.494  1.00  0.00     0.185 HD
BRANCH   6  12
HETATM   12  O1  UNL     1      37.341  32.950  23.756  1.00  0.00    -0.340 OA
HETATM   13  C1  UNL     1      37.529  34.000  22.833  1.00  0.00     0.211 C
ENDBRANCH   6  12
BRANCH   8  14
HETATM   14  N4  UNL     1      35.712  28.693  24.640  1.00  0.00    -0.234 N
ATOM     15  H42 UNL     1      35.843  27.683  24.586  1.00  0.00     0.174 HD
ATOM     16  H41 UNL     1      35.061  29.108  25.306  1.00  0.00     0.174 HD
ENDBRANCH   8  14
ENDBRANCH   2   4
ENDBRANCH   1   2
BRANCH   1  17
HETATM   17  O2  UNL     1      39.501  27.777  21.450  1.00  0.00    -0.377 OA
ATOM     18  H2  UNL     1      40.379  27.427  21.353  1.00  0.00     0.212 HD
ENDBRANCH   1  17
BRANCH   1  19
HETATM   19  C6  UNL     1      39.298  28.300  19.096  1.00  0.00     0.089 C
BRANCH  19  20
HETATM   20  C7  UNL     1      39.871  29.293  18.127  1.00  0.00     0.218 C
BRANCH  20  21
HETATM   21  N2  UNL     1      39.117  29.371  16.898  1.00  0.00    -0.072 N
ATOM     22  H23 UNL     1      39.676  29.056  16.106  1.00  0.00     0.274 HD
ATOM     23  H22 UNL     1      38.382  28.665  16.874  1.00  0.00     0.274 HD
ATOM     24  H21 UNL     1      38.736  30.302  16.729  1.00  0.00     0.274 HD
ENDBRANCH  20  21
BRANCH  20  25
HETATM   25  C8  UNL     1      41.313  28.944  17.899  1.00  0.00     0.179 C
BRANCH  25  26
HETATM   26  O3  UNL     1      41.354  27.744  17.193  1.00  0.00    -0.391 OA
ATOM     27  H3  UNL     1      40.992  27.903  16.329  1.00  0.00     0.210 HD
ENDBRANCH  25  26
BRANCH  25  28
HETATM   28  C9  UNL     1      42.073  30.006  17.150  1.00  0.00     0.172 C
BRANCH  28  29
HETATM   29  O4  UNL     1      41.799  29.964  15.785  1.00  0.00    -0.391 OA
ATOM     30  H4  UNL     1      40.866  29.897  15.619  1.00  0.00     0.210 HD
ENDBRANCH  28  29
BRANCH  28  31
HETATM   31  C10 UNL     1      43.550  29.933  17.331  1.00  0.00     0.198 C
BRANCH  31  32
HETATM   32  O5  UNL     1      44.037  28.915  16.515  1.00  0.00    -0.398 OA
ATOM     33  H5  UNL     1      44.721  29.278  15.965  1.00  0.00     0.209 HD
ENDBRANCH  31  32
ENDBRANCH  28  31
ENDBRANCH  25  28
ENDBRANCH  20  25
ENDBRANCH  19  20
ENDBRANCH   1  19
TORSDOF 14
ENDMDL