MODEL 1
REMARK VINA RESULT: -8.152022908      0.000      0.000
REMARK  9 active torsions:
REMARK  status: ('A' for Active; 'I' for Inactive)
REMARK    1  A    between atoms: C2_3  and  O1_4
REMARK    2  A    between atoms: C2_3  and  C3_6
REMARK    3  A    between atoms: C3_6  and  C4_7
REMARK    4  A    between atoms: C3_6  and  C5_10
REMARK    5  A    between atoms: C4_7  and  O2_8
REMARK    6  A    between atoms: C5_10  and  S1_11
REMARK    7  A    between atoms: S1_11  and  C6_12
REMARK    8  A    between atoms: C8_20  and  C9_21
REMARK    9  A    between atoms: C11_25  and  N6_26
ROOT
HETATM    1  N1  UNL     1      39.234  30.718  18.803  1.00  0.00    -0.195 NA
HETATM    2  C1  UNL     1      38.463  30.464  19.626  1.00  0.00     0.091 C
HETATM    3  C2  UNL     1      37.499  30.123  20.669  1.00  0.00     0.231 C
ENDROOT
BRANCH   3   4
HETATM    4  O1  UNL     1      36.199  30.452  20.285  1.00  0.00    -0.381 OA
ATOM      5  H1  UNL     1      35.574  29.809  20.597  1.00  0.00     0.211 HD
ENDBRANCH   3   4
BRANCH   3   6
HETATM    6  C3  UNL     1      37.870  30.875  21.930  1.00  0.00     0.061 C
BRANCH   6   7
HETATM    7  C4  UNL     1      36.671  31.065  22.801  1.00  0.00     0.173 C
BRANCH   7   8
HETATM    8  O2  UNL     1      36.173  32.342  22.806  1.00  0.00    -0.400 OA
ATOM      9  H2  UNL     1      35.706  32.577  23.598  1.00  0.00     0.209 HD
ENDBRANCH   7   8
ENDBRANCH   6   7
BRANCH   6  10
HETATM   10  C5  UNL     1      39.012  30.193  22.607  1.00  0.00     0.091 C
BRANCH  10  11
HETATM   11  S1  UNL     1      40.409  31.245  22.942  1.00  0.00    -0.108 SA
BRANCH  11  12
HETATM   12  C6  UNL     1      41.973  30.480  22.660  1.00  0.00     0.115 A
HETATM   13  N2  UNL     1      43.054  30.329  23.443  1.00  0.00    -0.290 N
HETATM   14  N3  UNL     1      44.005  29.680  22.798  1.00  0.00    -0.283 N
ATOM     15  H2  UNL     1      43.129  30.668  24.402  1.00  0.00     0.187 HD
HETATM   16  C7  UNL     1      43.566  29.387  21.565  1.00  0.00     0.151 A
ATOM     17  H3  UNL     1      44.922  29.442  23.175  1.00  0.00     0.188 HD
HETATM   18  N4  UNL     1      43.883  28.791  20.367  1.00  0.00    -0.325 N
HETATM   19  C13 UNL     1      42.309  29.872  21.455  1.00  0.00     0.115 A
HETATM   20  C8  UNL     1      42.861  28.892  19.522  1.00  0.00     0.123 A
ATOM     21  H4  UNL     1      44.772  28.338  20.157  1.00  0.00     0.169 HD
HETATM   22  N9  UNL     1      41.895  29.568  20.222  1.00  0.00    -0.336 N
ATOM     23  H9  UNL     1      40.977  29.808  19.847  1.00  0.00     0.168 HD
BRANCH  20  24
HETATM   24  C9  UNL     1      42.695  28.428  18.142  1.00  0.00     0.068 A
HETATM   25  C10 UNL     1      41.571  27.696  17.784  1.00  0.00     0.125 A
HETATM   26  N5  UNL     1      41.341  27.236  16.552  1.00  0.00    -0.201 N
HETATM   27  C11 UNL     1      42.243  27.490  15.593  1.00  0.00     0.677 A
ATOM     28  H5  UNL     1      40.497  26.703  16.344  1.00  0.00     0.183 HD
HETATM   29  N7  UNL     1      43.343  28.191  15.889  1.00  0.00    -0.176 N
HETATM   30  C12 UNL     1      43.595  28.671  17.149  1.00  0.00     0.130 A
ATOM     31  H7  UNL     1      44.020  28.376  15.149  1.00  0.00     0.186 HD
HETATM   32  N8  UNL     1      44.675  29.336  17.356  1.00  0.00    -0.384 N
ATOM     33  H82 UNL     1      44.863  29.693  18.293  1.00  0.00     0.157 HD
ATOM     34  H81 UNL     1      45.349  29.518  16.613  1.00  0.00     0.157 HD
BRANCH  27  35
HETATM   35  N6  UNL     1      42.069  27.063  14.366  1.00  0.00    -0.234 N
ATOM     36  H62 UNL     1      41.160  27.190  13.920  1.00  0.00     0.174 HD
ATOM     37  H61 UNL     1      42.824  26.608  13.853  1.00  0.00     0.174 HD
ENDBRANCH  27  35
ENDBRANCH  20  24
ENDBRANCH  11  12
ENDBRANCH  10  11
ENDBRANCH   6  10
ENDBRANCH   3   6
TORSDOF 9
ENDMDL