MODEL 4
REMARK VINA RESULT: -7.951687014      1.928      7.762
REMARK  10 active torsions:
REMARK  status: ('A' for Active; 'I' for Inactive)
REMARK    1  A    between atoms: C2_2  and  C3_3
REMARK    2  A    between atoms: C3_3  and  C4_4
REMARK    3  A    between atoms: C3_3  and  N2_7
REMARK    4  A    between atoms: N2_7  and  C6_10
REMARK    5  A    between atoms: C6_10  and  C7_11
REMARK    6  A    between atoms: C7_11  and  N3_12
REMARK    7  A    between atoms: N3_12  and  C8_14
REMARK    8  A    between atoms: C9_17  and  N5_18
REMARK    9  A    between atoms: C13_26  and  N7_27
REMARK   10  A    between atoms: C14_32  and  N9_33
ROOT
HETATM    1  C4  UNL     1      36.796  27.713  22.115  1.00  0.00     0.156 C
HETATM    2  C5  UNL     1      36.307  28.633  21.085  1.00  0.00     0.061 C
HETATM    3  N1  UNL     1      35.924  29.375  20.271  1.00  0.00    -0.197 NA
ENDROOT
BRANCH   1   4
HETATM    4  C3  UNL     1      37.286  28.538  23.292  1.00  0.00     0.198 C
BRANCH   4   5
HETATM    5  C2  UNL     1      36.117  28.636  24.249  1.00  0.00     0.029 C
HETATM    6  C1  UNL     1      36.396  29.812  25.155  1.00  0.00     0.007 C
ENDBRANCH   4   5
BRANCH   4   7
HETATM    7  N2  UNL     1      37.617  29.891  22.873  1.00  0.00    -0.069 N
ATOM      8  H22 UNL     1      37.206  30.116  21.967  1.00  0.00     0.277 HD
ATOM      9  H21 UNL     1      37.136  30.589  23.441  1.00  0.00     0.277 HD
BRANCH   7  10
HETATM   10  C6  UNL     1      39.054  30.100  22.875  1.00  0.00     0.253 C
BRANCH  10  11
HETATM   11  C7  UNL     1      39.463  31.243  21.990  1.00  0.00     0.165 C
BRANCH  11  12
HETATM   12  N3  UNL     1      38.844  31.053  20.713  1.00  0.00    -0.224 N
ATOM     13  H3  UNL     1      37.913  31.452  20.595  1.00  0.00     0.177 HD
BRANCH  12  14
HETATM   14  C8  UNL     1      39.326  30.444  19.713  1.00  0.00     0.681 A
HETATM   15  N4  UNL     1      38.640  29.847  18.726  1.00  0.00    -0.175 N
HETATM   16  C9  UNL     1      39.244  29.228  17.692  1.00  0.00     0.147 A
ATOM     17  H4  UNL     1      37.621  29.862  18.760  1.00  0.00     0.186 HD
HETATM   18  C10 UNL     1      40.625  29.180  17.603  1.00  0.00     0.147 A
HETATM   19  C11 UNL     1      41.326  29.787  18.609  1.00  0.00     0.155 A
HETATM   20  N11 UNL     1      41.513  28.663  16.742  1.00  0.00    -0.214 N
HETATM   21  N6  UNL     1      42.640  29.608  18.309  1.00  0.00    -0.322 N
HETATM   22  N12 UNL     1      40.686  30.393  19.620  1.00  0.00    -0.174 N
HETATM   23  C12 UNL     1      42.773  28.922  17.169  1.00  0.00     0.174 A
ATOM     24  H6  UNL     1      43.417  29.950  18.875  1.00  0.00     0.169 HD
HETATM   25  C13 UNL     1      43.878  28.497  16.457  1.00  0.00     0.161 A
HETATM   26  N8  UNL     1      43.684  27.813  15.317  1.00  0.00    -0.172 N
HETATM   27  C14 UNL     1      42.418  27.553  14.891  1.00  0.00     0.692 A
ATOM     28  H8  UNL     1      44.482  27.488  14.773  1.00  0.00     0.186 HD
HETATM   29  N10 UNL     1      41.357  27.987  15.617  1.00  0.00    -0.123 N
ATOM     30  H10 UNL     1      40.414  27.786  15.285  1.00  0.00     0.206 HD
ATOM     31  H12 UNL     1      41.241  30.834  20.352  1.00  0.00     0.186 HD
BRANCH  16  32
HETATM   32  N5  UNL     1      38.548  28.673  16.780  1.00  0.00    -0.383 N
ATOM     33  H52 UNL     1      37.549  28.535  16.936  1.00  0.00     0.157 HD
ATOM     34  H51 UNL     1      38.985  28.375  15.908  1.00  0.00     0.157 HD
ENDBRANCH  16  32
BRANCH  25  35
HETATM   35  N7  UNL     1      45.087  28.725  16.830  1.00  0.00    -0.382 N
ATOM     36  H72 UNL     1      45.235  29.223  17.708  1.00  0.00     0.157 HD
ATOM     37  H71 UNL     1      45.902  28.431  16.292  1.00  0.00     0.157 HD
ENDBRANCH  25  35
BRANCH  27  38
HETATM   38  N9  UNL     1      42.232  26.909  13.811  1.00  0.00    -0.233 N
ATOM     39  H92 UNL     1      41.859  27.385  12.989  1.00  0.00     0.174 HD
ATOM     40  H91 UNL     1      42.458  25.915  13.765  1.00  0.00     0.174 HD
ENDBRANCH  27  38
ENDBRANCH  12  14
ENDBRANCH  11  12
ENDBRANCH  10  11
ENDBRANCH   7  10
ENDBRANCH   4   7
ENDBRANCH   1   4
TORSDOF 10
ENDMDL