MODEL 1
REMARK VINA RESULT: -8.373242774      0.000      0.000
REMARK  11 active torsions:
REMARK  status: ('A' for Active; 'I' for Inactive)
REMARK    1  A    between atoms: N1_1  and  C1_4
REMARK    2  A    between atoms: C2_7  and  S1_8
REMARK    3  A    between atoms: S1_8  and  C3_9
REMARK    4  A    between atoms: C3_9  and  C4_10
REMARK    5  A    between atoms: C4_10  and  C5_11
REMARK    6  A    between atoms: C5_11  and  N3_12
REMARK    7  A    between atoms: C7_21  and  C8_22
REMARK    8  A    between atoms: C8_22  and  C9_23
REMARK    9  A    between atoms: C9_23  and  C10_24
REMARK   10  A    between atoms: C12_29  and  O1_30
REMARK   11  A    between atoms: C13_32  and  O2_33
ROOT
HETATM    1  C1  UNL     1      43.769  28.255  16.148  1.00  0.00     0.132 A
HETATM    2  N2  UNL     1      43.813  27.875  14.863  1.00  0.00    -0.321 N
ATOM      3  H2  UNL     1      44.679  27.990  14.337  1.00  0.00     0.169 HD
HETATM    4  C2  UNL     1      42.738  27.347  14.254  1.00  0.00     0.147 A
HETATM    5  N4  UNL     1      41.615  27.207  14.962  1.00  0.00    -0.321 N
ATOM      6  H4  UNL     1      40.800  26.805  14.497  1.00  0.00     0.169 HD
HETATM    7  C6  UNL     1      41.495  27.566  16.252  1.00  0.00     0.140 A
HETATM    8  N5  UNL     1      40.515  27.537  17.167  1.00  0.00    -0.327 N
ATOM      9  H5  UNL     1      39.573  27.185  16.995  1.00  0.00     0.169 HD
HETATM   10  C7  UNL     1      40.948  28.039  18.355  1.00  0.00     0.107 A
HETATM   11  N7  UNL     1      42.230  28.379  18.137  1.00  0.00    -0.336 N
ATOM     12  H7  UNL     1      42.846  28.790  18.839  1.00  0.00     0.168 HD
HETATM   13  C14 UNL     1      42.591  28.106  16.878  1.00  0.00     0.122 A
ENDROOT
BRANCH  10  14
HETATM   14  C8  UNL     1      40.183  28.175  19.588  1.00  0.00     0.046 C
BRANCH  14  15
HETATM   15  C9  UNL     1      38.894  27.915  19.609  1.00  0.00     0.012 C
BRANCH  15  16
HETATM   16  C10 UNL     1      38.119  27.641  20.824  1.00  0.00     0.239 C
HETATM   17  N6  UNL     1      38.499  28.443  21.952  1.00  0.00    -0.063 N
HETATM   18  C11 UNL     1      37.474  28.128  22.931  1.00  0.00     0.267 C
ATOM     19  H62 UNL     1      39.456  28.299  22.275  1.00  0.00     0.278 HD
ATOM     20  H61 UNL     1      38.608  29.438  21.753  1.00  0.00     0.278 HD
HETATM   21  C12 UNL     1      36.225  27.791  22.169  1.00  0.00     0.174 C
HETATM   22  C13 UNL     1      36.655  27.911  20.700  1.00  0.00     0.182 C
BRANCH  21  23
HETATM   23  O1  UNL     1      35.943  26.420  22.352  1.00  0.00    -0.391 OA
ATOM     24  H1  UNL     1      36.457  25.920  21.729  1.00  0.00     0.210 HD
ENDBRANCH  21  23
BRANCH  22  25
HETATM   25  O2  UNL     1      36.375  29.224  20.336  1.00  0.00    -0.391 OA
ATOM     26  H2  UNL     1      35.997  29.732  21.044  1.00  0.00     0.210 HD
ENDBRANCH  22  25
ENDBRANCH  15  16
ENDBRANCH  14  15
ENDBRANCH  10  14
BRANCH   1  27
HETATM   27  N1  UNL     1      44.786  28.765  16.756  1.00  0.00    -0.383 N
ATOM     28  H12 UNL     1      44.624  29.592  17.331  1.00  0.00     0.157 HD
ATOM     29  H11 UNL     1      45.724  28.373  16.679  1.00  0.00     0.157 HD
ENDBRANCH   1  27
BRANCH   4  30
HETATM   30  S1  UNL     1      42.889  26.868  12.540  1.00  0.00    -0.094 SA
BRANCH  30  31
HETATM   31  C3  UNL     1      41.401  25.985  12.071  1.00  0.00     0.084 C
BRANCH  31  32
HETATM   32  C4  UNL     1      41.373  24.573  12.621  1.00  0.00     0.038 C
BRANCH  32  33
HETATM   33  C5  UNL     1      40.052  23.902  12.383  1.00  0.00     0.230 C
BRANCH  33  34
HETATM   34  N3  UNL     1      40.195  22.505  12.760  1.00  0.00    -0.079 N
ATOM     35  H33 UNL     1      40.011  22.339  13.749  1.00  0.00     0.274 HD
ATOM     36  H32 UNL     1      39.453  21.915  12.385  1.00  0.00     0.274 HD
ATOM     37  H31 UNL     1      41.127  22.202  12.473  1.00  0.00     0.274 HD
ENDBRANCH  33  34
ENDBRANCH  32  33
ENDBRANCH  31  32
ENDBRANCH  30  31
ENDBRANCH   4  30
TORSDOF 11
ENDMDL