MODEL 3
REMARK VINA RESULT: -7.445218278      3.203      3.920
REMARK  9 active torsions:
REMARK  status: ('A' for Active; 'I' for Inactive)
REMARK    1  A    between atoms: C4_4  and  N1_5
REMARK    2  A    between atoms: N1_5  and  C5_7
REMARK    3  A    between atoms: C5_7  and  C6_8
REMARK    4  A    between atoms: C7_11  and  S1_12
REMARK    5  A    between atoms: S1_12  and  C8_13
REMARK    6  A    between atoms: C8_13  and  C9_14
REMARK    7  A    between atoms: C9_14  and  O1_15
REMARK    8  A    between atoms: C11_21  and  N5_22
REMARK    9  A    between atoms: C12_27  and  N7_28
ROOT
HETATM    1  C1  UNL     1      45.618  29.926  20.201  1.00  0.00     0.068 C
HETATM    2  C2  UNL     1      44.413  29.386  19.505  1.00  0.00     0.009 A
HETATM    3  C3  UNL     1      43.253  29.137  20.218  1.00  0.00     0.054 A
HETATM    4  C4  UNL     1      42.164  28.639  19.549  1.00  0.00     0.047 A
HETATM    5  C10 UNL     1      42.280  28.409  18.180  1.00  0.00     0.079 A
HETATM    6  C11 UNL     1      41.214  27.908  17.451  1.00  0.00     0.131 A
HETATM    7  N6  UNL     1      41.337  27.689  16.130  1.00  0.00    -0.176 N
ATOM      8  H6  UNL     1      40.535  27.319  15.619  1.00  0.00     0.186 HD
HETATM    9  C12 UNL     1      42.473  27.938  15.456  1.00  0.00     0.679 A
HETATM   10  N8  UNL     1      43.511  28.426  16.164  1.00  0.00    -0.176 N
ATOM     11  H8  UNL     1      44.384  28.623  15.675  1.00  0.00     0.186 HD
HETATM   12  C13 UNL     1      43.447  28.666  17.493  1.00  0.00     0.137 A
HETATM   13  N9  UNL     1      44.491  29.151  18.184  1.00  0.00    -0.345 N
ATOM     14  H9  UNL     1      45.364  29.348  17.694  1.00  0.00     0.167 HD
ENDROOT
BRANCH   4  15
HETATM   15  N1  UNL     1      41.050  28.379  20.127  1.00  0.00    -0.386 N
ATOM     16  H1  UNL     1      40.531  27.543  19.860  1.00  0.00     0.159 HD
BRANCH  15  17
HETATM   17  C5  UNL     1      40.524  29.235  21.134  1.00  0.00     0.171 C
BRANCH  17  18
HETATM   18  C6  UNL     1      40.124  30.608  20.637  1.00  0.00     0.314 C
HETATM   19  N2  UNL     1      38.742  30.697  20.290  1.00  0.00    -0.110 NA
HETATM   20  N3  UNL     1      38.123  31.631  21.100  1.00  0.00    -0.102 NA
HETATM   21  C7  UNL     1      39.008  31.837  22.252  1.00  0.00     0.357 C
HETATM   22  N4  UNL     1      40.329  31.529  21.736  1.00  0.00    -0.026 N
ATOM     23  H42 UNL     1      40.972  31.179  22.446  1.00  0.00     0.282 HD
ATOM     24  H41 UNL     1      40.869  32.356  21.479  1.00  0.00     0.282 HD
BRANCH  21  25
HETATM   25  S1  UNL     1      38.959  33.571  22.778  1.00  0.00    -0.117 SA
BRANCH  25  26
HETATM   26  C8  UNL     1      40.606  34.038  23.408  1.00  0.00     0.103 C
BRANCH  26  27
HETATM   27  C9  UNL     1      41.324  34.932  22.423  1.00  0.00     0.174 C
BRANCH  27  28
HETATM   28  O1  UNL     1      42.022  34.105  21.545  1.00  0.00    -0.400 OA
ATOM     29  H1  UNL     1      41.751  33.212  21.724  1.00  0.00     0.209 HD
ENDBRANCH  27  28
ENDBRANCH  26  27
ENDBRANCH  25  26
ENDBRANCH  21  25
ENDBRANCH  17  18
ENDBRANCH  15  17
ENDBRANCH   4  15
BRANCH   6  30
HETATM   30  N5  UNL     1      40.114  27.657  18.054  1.00  0.00    -0.384 N
ATOM     31  H52 UNL     1      39.893  28.109  18.942  1.00  0.00     0.157 HD
ATOM     32  H51 UNL     1      39.460  26.998  17.634  1.00  0.00     0.157 HD
ENDBRANCH   6  30
BRANCH   9  33
HETATM   33  N7  UNL     1      42.581  27.723  14.178  1.00  0.00    -0.234 N
ATOM     34  H72 UNL     1      43.323  28.163  13.634  1.00  0.00     0.174 HD
ATOM     35  H71 UNL     1      41.938  27.113  13.674  1.00  0.00     0.174 HD
ENDBRANCH   9  33
TORSDOF 9
ENDMDL