MODEL 1
REMARK VINA RESULT: -7.597043636      0.000      0.000
REMARK  10 active torsions:
REMARK  status: ('A' for Active; 'I' for Inactive)
REMARK    1  A    between atoms: C2_2  and  C3_3
REMARK    2  A    between atoms: C3_3  and  C4_4
REMARK    3  A    between atoms: C4_4  and  N1_5
REMARK    4  A    between atoms: C6_10  and  N2_11
REMARK    5  A    between atoms: C7_12  and  S1_13
REMARK    6  A    between atoms: S1_13  and  C8_14
REMARK    7  A    between atoms: C8_14  and  C9_15
REMARK    8  A    between atoms: C9_15  and  N3_16
REMARK    9  A    between atoms: C11_23  and  N5_24
REMARK   10  A    between atoms: C12_29  and  N7_30
ROOT
HETATM    1  N2  UNL     1      41.429  28.504  18.824  1.00  0.00    -0.305 N
HETATM    2  C7  UNL     1      42.378  29.095  19.589  1.00  0.00     0.149 A
HETATM    3  N4  UNL     1      43.529  29.164  18.901  1.00  0.00    -0.331 N
ATOM      4  H4  UNL     1      44.406  29.563  19.239  1.00  0.00     0.168 HD
HETATM    5  C10 UNL     1      43.326  28.614  17.681  1.00  0.00     0.124 A
HETATM    6  C11 UNL     1      44.131  28.414  16.580  1.00  0.00     0.145 A
HETATM    7  N6  UNL     1      43.616  27.823  15.488  1.00  0.00    -0.175 N
ATOM      8  H6  UNL     1      44.216  27.678  14.676  1.00  0.00     0.186 HD
HETATM    9  C12 UNL     1      42.331  27.415  15.433  1.00  0.00     0.679 A
HETATM   10  N8  UNL     1      41.541  27.606  16.500  1.00  0.00    -0.174 N
ATOM     11  H8  UNL     1      40.570  27.297  16.458  1.00  0.00     0.186 HD
HETATM   12  C13 UNL     1      41.993  28.192  17.624  1.00  0.00     0.156 A
ENDROOT
BRANCH   1  13
HETATM   13  C6  UNL     1      40.068  28.239  19.180  1.00  0.00     0.123 C
HETATM   14  C5  UNL     1      39.822  27.499  20.434  1.00  0.00     0.097 C
HETATM   15  C4  UNL     1      38.460  27.998  20.885  1.00  0.00     0.289 C
HETATM   16  N9  UNL     1      37.947  28.803  19.802  1.00  0.00    -0.038 N
HETATM   17  C14 UNL     1      39.151  29.409  19.207  1.00  0.00     0.261 C
ATOM     18  H92 UNL     1      37.363  28.293  19.140  1.00  0.00     0.280 HD
ATOM     19  H91 UNL     1      37.234  29.476  20.082  1.00  0.00     0.280 HD
BRANCH  15  20
HETATM   20  C3  UNL     1      37.599  26.784  21.149  1.00  0.00     0.095 C
BRANCH  20  21
HETATM   21  C2  UNL     1      36.157  27.059  21.054  1.00  0.00    -0.033 C
HETATM   22  C1  UNL     1      35.433  27.185  22.147  1.00  0.00     0.007 C
ENDBRANCH  20  21
ENDBRANCH  15  20
BRANCH  15  23
HETATM   23  N1  UNL     1      38.531  28.818  22.068  1.00  0.00    -0.044 N
ATOM     24  H13 UNL     1      37.860  29.586  22.042  1.00  0.00     0.277 HD
ATOM     25  H12 UNL     1      38.171  28.334  22.890  1.00  0.00     0.277 HD
ATOM     26  H11 UNL     1      39.486  29.148  22.206  1.00  0.00     0.277 HD
ENDBRANCH  15  23
ENDBRANCH   1  13
BRANCH   2  27
HETATM   27  S1  UNL     1      42.060  29.669  21.259  1.00  0.00    -0.092 SA
BRANCH  27  28
HETATM   28  C8  UNL     1      43.567  30.216  22.072  1.00  0.00     0.109 C
BRANCH  28  29
HETATM   29  C9  UNL     1      44.398  28.957  22.349  1.00  0.00     0.240 C
BRANCH  29  30
HETATM   30  N3  UNL     1      45.806  29.221  22.155  1.00  0.00    -0.079 N
ATOM     31  H33 UNL     1      45.968  30.158  21.787  1.00  0.00     0.274 HD
ATOM     32  H32 UNL     1      46.299  29.317  23.042  1.00  0.00     0.274 HD
ATOM     33  H31 UNL     1      46.229  28.504  21.564  1.00  0.00     0.274 HD
ENDBRANCH  29  30
ENDBRANCH  28  29
ENDBRANCH  27  28
ENDBRANCH   2  27
BRANCH   6  34
HETATM   34  N5  UNL     1      45.354  28.801  16.628  1.00  0.00    -0.383 N
ATOM     35  H52 UNL     1      46.039  28.346  17.233  1.00  0.00     0.157 HD
ATOM     36  H51 UNL     1      45.647  29.585  16.045  1.00  0.00     0.157 HD
ENDBRANCH   6  34
BRANCH   9  37
HETATM   37  N7  UNL     1      41.812  26.845  14.399  1.00  0.00    -0.234 N
ATOM     38  H72 UNL     1      42.415  26.243  13.838  1.00  0.00     0.174 HD
ATOM     39  H71 UNL     1      40.838  26.967  14.120  1.00  0.00     0.174 HD
ENDBRANCH   9  37
TORSDOF 10
ENDMDL