MODEL 4
REMARK VINA RESULT: -7.162868884      2.223      6.856
REMARK  10 active torsions:
REMARK  status: ('A' for Active; 'I' for Inactive)
REMARK    1  A    between atoms: C4_8  and  N3_9
REMARK    2  A    between atoms: C5_14  and  N5_15
REMARK    3  A    between atoms: C9_25  and  N8_26
REMARK    4  A    between atoms: C11_30  and  N9_31
REMARK    5  A    between atoms: N9_31  and  C12_34
REMARK    6  A    between atoms: C12_34  and  C13_35
REMARK    7  A    between atoms: C13_35  and  O1_36
REMARK    8  A    between atoms: O1_36  and  C14_37
REMARK    9  A    between atoms: C14_37  and  C15_38
REMARK   10  A    between atoms: C15_38  and  N10_39
ROOT
HETATM    1  C1  UNL     1      43.096  30.521  22.748  1.00  0.00     0.066 C
HETATM    2  C2  UNL     1      42.359  29.819  21.631  1.00  0.00     0.019 A
HETATM    3  N1  UNL     1      43.123  29.684  20.622  1.00  0.00    -0.346 N
ATOM      4  H1  UNL     1      44.056  30.067  20.765  1.00  0.00     0.167 HD
HETATM    5  C3  UNL     1      42.939  29.109  19.337  1.00  0.00     0.137 A
HETATM    6  N2  UNL     1      44.042  29.132  18.564  1.00  0.00    -0.176 N
ATOM      7  H2  UNL     1      44.895  29.543  18.943  1.00  0.00     0.186 HD
HETATM    8  C4  UNL     1      44.065  28.638  17.316  1.00  0.00     0.679 A
HETATM    9  N4  UNL     1      42.944  28.080  16.773  1.00  0.00    -0.176 N
ATOM     10  H4  UNL     1      42.949  27.701  15.825  1.00  0.00     0.186 HD
HETATM   11  C5  UNL     1      41.824  28.047  17.533  1.00  0.00     0.131 A
HETATM   12  C6  UNL     1      41.797  28.550  18.806  1.00  0.00     0.080 A
HETATM   13  C7  UNL     1      40.523  28.444  19.511  1.00  0.00     0.063 A
HETATM   14  N6  UNL     1      39.615  27.888  18.690  1.00  0.00    -0.351 N
ATOM     15  H6  UNL     1      39.864  27.614  17.738  1.00  0.00     0.166 HD
HETATM   16  C8  UNL     1      38.373  27.702  19.159  1.00  0.00     0.182 A
HETATM   17  N7  UNL     1      38.037  28.056  20.407  1.00  0.00    -0.338 N
ATOM     18  H7  UNL     1      37.079  27.895  20.721  1.00  0.00     0.168 HD
HETATM   19  C9  UNL     1      38.906  28.613  21.259  1.00  0.00     0.110 A
HETATM   20  C10 UNL     1      40.212  28.825  20.809  1.00  0.00     0.049 A
HETATM   21  C11 UNL     1      40.990  29.437  21.877  1.00  0.00     0.269 A
ENDROOT
BRANCH  21  22
HETATM   22  N9  UNL     1      40.197  30.505  22.469  1.00  0.00    -0.060 N
ATOM     23  H92 UNL     1      39.210  30.248  22.499  1.00  0.00     0.278 HD
ATOM     24  H91 UNL     1      40.383  30.582  23.469  1.00  0.00     0.278 HD
BRANCH  22  25
HETATM   25  C12 UNL     1      40.369  31.768  21.826  1.00  0.00     0.259 C
BRANCH  25  26
HETATM   26  C13 UNL     1      39.142  32.627  22.261  1.00  0.00     0.195 C
BRANCH  26  27
HETATM   27  O1  UNL     1      37.994  32.062  21.857  1.00  0.00    -0.388 OA
BRANCH  27  28
HETATM   28  C14 UNL     1      36.915  32.245  22.647  1.00  0.00     0.195 C
BRANCH  28  29
HETATM   29  C15 UNL     1      36.984  31.765  24.061  1.00  0.00     0.255 C
BRANCH  29  30
HETATM   30  N10 UNL     1      36.281  32.527  25.033  1.00  0.00    -0.077 N
ATOM     31 3H10 UNL     1      36.013  33.426  24.633  1.00  0.00     0.274 HD
ATOM     32 2H10 UNL     1      35.362  32.111  25.193  1.00  0.00     0.274 HD
ATOM     33 1H10 UNL     1      36.747  32.677  25.928  1.00  0.00     0.274 HD
ENDBRANCH  29  30
ENDBRANCH  28  29
ENDBRANCH  27  28
ENDBRANCH  26  27
ENDBRANCH  25  26
ENDBRANCH  22  25
ENDBRANCH  21  22
BRANCH  19  34
HETATM   34  N8  UNL     1      38.544  28.938  22.452  1.00  0.00    -0.385 N
ATOM     35  H82 UNL     1      39.213  29.298  23.133  1.00  0.00     0.157 HD
ATOM     36  H81 UNL     1      37.572  28.842  22.746  1.00  0.00     0.157 HD
ENDBRANCH  19  34
BRANCH  11  37
HETATM   37  N5  UNL     1      40.768  27.529  17.037  1.00  0.00    -0.384 N
ATOM     38  H52 UNL     1      39.902  28.069  17.022  1.00  0.00     0.157 HD
ATOM     39  H51 UNL     1      40.819  26.581  16.665  1.00  0.00     0.157 HD
ENDBRANCH  11  37
BRANCH   8  40
HETATM   40  N3  UNL     1      45.148  28.678  16.601  1.00  0.00    -0.234 N
ATOM     41  H32 UNL     1      45.147  28.227  15.686  1.00  0.00     0.174 HD
ATOM     42  H31 UNL     1      45.986  29.149  16.943  1.00  0.00     0.174 HD
ENDBRANCH   8  40
TORSDOF 10
ENDMDL