MODEL 2
REMARK VINA RESULT: -8.203411210      0.464      1.638
REMARK  9 active torsions:
REMARK  status: ('A' for Active; 'I' for Inactive)
REMARK    1  A    between atoms: C2_2  and  C3_3
REMARK    2  A    between atoms: C3_3  and  C4_4
REMARK    3  A    between atoms: C4_4  and  N1_5
REMARK    4  A    between atoms: C6_7  and  C7_8
REMARK    5  A    between atoms: C7_8  and  S1_9
REMARK    6  A    between atoms: S1_9  and  C8_10
REMARK    7  A    between atoms: C9_13  and  N3_14
REMARK    8  A    between atoms: C10_19  and  N5_20
REMARK    9  A    between atoms: C12_29  and  N8_30
REMARK       I    between atoms: N8_30  and  C13_32
REMARK       I    between atoms: C13_32  and  N9_33
REMARK       I    between atoms: C13_32  and  N10_37
ROOT
HETATM    1  N1  UNL     1      38.129  29.515  22.474  1.00  0.00    -0.193 N
HETATM    2  C5  UNL     1      38.918  28.932  21.496  1.00  0.00     0.122 A
HETATM    3  C6  UNL     1      38.563  27.771  20.923  1.00  0.00     0.036 A
HETATM    4  C11 UNL     1      37.374  27.190  21.343  1.00  0.00     0.268 A
HETATM    5  O1  UNL     1      37.021  26.095  20.788  1.00  0.00    -0.267 OA
HETATM    6  N7  UNL     1      36.625  27.769  22.296  1.00  0.00    -0.155 N
ATOM      7  H7  UNL     1      35.760  27.313  22.584  1.00  0.00     0.187 HD
HETATM    8  C12 UNL     1      36.981  28.948  22.895  1.00  0.00     0.686 A
ENDROOT
BRANCH   3   9
HETATM    9  C7  UNL     1      39.327  27.019  19.872  1.00  0.00     0.128 C
BRANCH   9  10
HETATM   10  S1  UNL     1      39.371  28.210  18.460  1.00  0.00    -0.088 SA
BRANCH  10  11
HETATM   11  C8  UNL     1      40.893  28.221  17.588  1.00  0.00     0.174 A
HETATM   12  N2  UNL     1      40.935  27.482  16.432  1.00  0.00    -0.170 N
HETATM   13  C9  UNL     1      42.015  27.492  15.667  1.00  0.00     0.692 A
ATOM     14  H2  UNL     1      40.127  26.921  16.161  1.00  0.00     0.186 HD
HETATM   15  N4  UNL     1      43.112  28.199  15.951  1.00  0.00    -0.023 N
HETATM   16  C10 UNL     1      43.073  28.925  17.090  1.00  0.00     0.692 A
ATOM     17  H4  UNL     1      43.932  28.191  15.343  1.00  0.00     0.203 HD
HETATM   18  N6  UNL     1      41.978  28.941  17.898  1.00  0.00    -0.170 N
ATOM     19  H6  UNL     1      41.984  29.507  18.746  1.00  0.00     0.186 HD
BRANCH  13  20
HETATM   20  N3  UNL     1      42.009  26.822  14.574  1.00  0.00    -0.234 N
ATOM     21  H32 UNL     1      42.226  25.827  14.630  1.00  0.00     0.174 HD
ATOM     22  H31 UNL     1      41.818  27.308  13.697  1.00  0.00     0.174 HD
ENDBRANCH  13  20
BRANCH  16  23
HETATM   23  N5  UNL     1      44.108  29.600  17.437  1.00  0.00    -0.234 N
ATOM     24  H52 UNL     1      44.925  29.596  16.826  1.00  0.00     0.174 HD
ATOM     25  H51 UNL     1      44.082  30.139  18.303  1.00  0.00     0.174 HD
ENDBRANCH  16  23
ENDBRANCH  10  11
ENDBRANCH   9  10
ENDBRANCH   3   9
BRANCH   1  26
HETATM   26  C4  UNL     1      38.587  30.771  22.961  1.00  0.00     0.147 C
BRANCH  26  27
HETATM   27  C3  UNL     1      38.811  31.842  21.953  1.00  0.00     0.020 C
BRANCH  27  28
HETATM   28  C2  UNL     1      38.287  33.145  22.576  1.00  0.00    -0.003 C
HETATM   29  C1  UNL     1      36.829  33.033  22.988  1.00  0.00     0.005 C
ENDBRANCH  27  28
ENDBRANCH  26  27
ENDBRANCH   1  26
BRANCH   8  30
HETATM   30  N8  UNL     1      36.354  29.482  23.833  1.00  0.00    -0.173 N
HETATM   31  C13 UNL     1      35.927  29.134  25.112  1.00  0.00     0.494 C
HETATM   32  N9  UNL     1      36.267  27.879  25.665  1.00  0.00    -0.032 N
HETATM   33  N10 UNL     1      36.646  30.108  26.034  1.00  0.00    -0.032 N
ATOM     34  H93 UNL     1      35.963  27.152  25.017  1.00  0.00     0.278 HD
ATOM     35  H92 UNL     1      37.281  27.777  25.628  1.00  0.00     0.278 HD
ATOM     36  H91 UNL     1      35.953  27.624  26.601  1.00  0.00     0.278 HD
ATOM     37 3H10 UNL     1      37.660  30.114  25.922  1.00  0.00     0.278 HD
ATOM     38 2H10 UNL     1      36.499  31.090  25.799  1.00  0.00     0.278 HD
ATOM     39 1H10 UNL     1      36.332  29.853  26.970  1.00  0.00     0.278 HD
ATOM     40  H8  UNL     1      36.080  30.436  23.598  1.00  0.00     0.181 HD
ENDBRANCH   8  30
TORSDOF 9
ENDMDL