MODEL 3
REMARK VINA RESULT: -7.631795290      2.531      3.754
REMARK  12 active torsions:
REMARK  status: ('A' for Active; 'I' for Inactive)
REMARK    1  A    between atoms: C2_2  and  C3_3
REMARK    2  A    between atoms: C3_3  and  C4_4
REMARK    3  A    between atoms: C4_4  and  C5_5
REMARK    4  A    between atoms: C5_5  and  N1_6
REMARK    5  A    between atoms: N1_6  and  C6_8
REMARK    6  A    between atoms: C8_12  and  N3_13
REMARK    7  A    between atoms: C9_18  and  N5_19
REMARK    8  A    between atoms: N7_25  and  C11_26
REMARK    9  A    between atoms: C12_28  and  C13_29
REMARK   10  A    between atoms: C13_29  and  O2_30
REMARK   11  A    between atoms: C14_32  and  O3_33
REMARK   12  A    between atoms: C15_35  and  O4_36
ROOT
HETATM    1  C6  UNL     1      41.055  28.578  20.256  1.00  0.00     0.684 A
HETATM    2  N2  UNL     1      40.640  28.244  19.015  1.00  0.00    -0.184 N
ATOM      3  H2  UNL     1      39.687  27.987  18.759  1.00  0.00     0.184 HD
HETATM    4  C7  UNL     1      41.683  28.305  18.175  1.00  0.00     0.138 A
HETATM    5  C8  UNL     1      41.801  28.064  16.822  1.00  0.00     0.146 A
HETATM    6  N4  UNL     1      43.020  28.221  16.276  1.00  0.00    -0.175 N
ATOM      7  H4  UNL     1      43.149  28.051  15.279  1.00  0.00     0.186 HD
HETATM    8  C9  UNL     1      44.084  28.602  17.035  1.00  0.00     0.679 A
HETATM    9  N6  UNL     1      43.951  28.834  18.363  1.00  0.00    -0.174 N
ATOM     10  H6  UNL     1      44.761  29.118  18.914  1.00  0.00     0.186 HD
HETATM   11  C10 UNL     1      42.766  28.692  18.951  1.00  0.00     0.172 A
HETATM   12  N7  UNL     1      42.371  28.858  20.228  1.00  0.00    -0.135 N
ENDROOT
BRANCH  12  13
HETATM   13  C11 UNL     1      43.158  29.257  21.385  1.00  0.00     0.279 C
HETATM   14  O1  UNL     1      44.441  29.593  21.053  1.00  0.00    -0.353 OA
HETATM   15  C12 UNL     1      44.864  30.639  21.825  1.00  0.00     0.179 C
HETATM   16  C14 UNL     1      43.706  31.247  22.526  1.00  0.00     0.182 C
HETATM   17  C15 UNL     1      42.538  30.421  22.110  1.00  0.00     0.199 C
BRANCH  15  18
HETATM   18  C13 UNL     1      45.882  30.218  22.884  1.00  0.00     0.198 C
BRANCH  18  19
HETATM   19  O2  UNL     1      46.836  29.453  22.255  1.00  0.00    -0.398 OA
ATOM     20  H2  UNL     1      47.451  29.165  22.919  1.00  0.00     0.209 HD
ENDBRANCH  18  19
ENDBRANCH  15  18
BRANCH  16  21
HETATM   21  O3  UNL     1      43.533  32.572  22.099  1.00  0.00    -0.390 OA
ATOM     22  H3  UNL     1      44.274  33.099  22.375  1.00  0.00     0.210 HD
ENDBRANCH  16  21
BRANCH  17  23
HETATM   23  O4  UNL     1      41.826  30.030  23.244  1.00  0.00    -0.388 OA
ATOM     24  H4  UNL     1      41.767  30.720  23.895  1.00  0.00     0.210 HD
ENDBRANCH  17  23
ENDBRANCH  12  13
BRANCH   1  25
HETATM   25  N1  UNL     1      40.328  28.630  21.321  1.00  0.00    -0.226 N
ATOM     26  H1  UNL     1      40.772  28.838  22.216  1.00  0.00     0.177 HD
BRANCH  25  27
HETATM   27  C5  UNL     1      38.898  28.402  21.281  1.00  0.00     0.138 C
BRANCH  27  28
HETATM   28  C4  UNL     1      38.525  27.004  21.656  1.00  0.00     0.020 C
BRANCH  28  29
HETATM   29  C3  UNL     1      37.367  26.526  20.836  1.00  0.00     0.001 C
BRANCH  29  30
HETATM   30  C2  UNL     1      36.035  26.975  21.397  1.00  0.00    -0.004 C
HETATM   31  C1  UNL     1      35.263  27.802  20.391  1.00  0.00     0.005 C
ENDBRANCH  29  30
ENDBRANCH  28  29
ENDBRANCH  27  28
ENDBRANCH  25  27
ENDBRANCH   1  25
BRANCH   5  32
HETATM   32  N3  UNL     1      40.807  27.702  16.082  1.00  0.00    -0.383 N
ATOM     33  H32 UNL     1      40.110  28.390  15.795  1.00  0.00     0.157 HD
ATOM     34  H31 UNL     1      40.674  26.743  15.760  1.00  0.00     0.157 HD
ENDBRANCH   5  32
BRANCH   8  35
HETATM   35  N5  UNL     1      45.253  28.752  16.513  1.00  0.00    -0.234 N
ATOM     36  H52 UNL     1      45.344  29.398  15.729  1.00  0.00     0.174 HD
ATOM     37  H51 UNL     1      46.059  28.242  16.874  1.00  0.00     0.174 HD
ENDBRANCH   8  35
TORSDOF 12
ENDMDL