MODEL 4
REMARK VINA RESULT: -9.123667132      0.886      2.129
REMARK  10 active torsions:
REMARK  status: ('A' for Active; 'I' for Inactive)
REMARK    1  A    between atoms: N1_1  and  C1_4
REMARK    2  A    between atoms: C2_7  and  N3_8
REMARK    3  A    between atoms: C3_13  and  N5_14
REMARK    4  A    between atoms: N5_14  and  N6_16
REMARK    5  A    between atoms: N6_16  and  C4_18
REMARK    6  A    between atoms: C4_18  and  C5_19
REMARK    7  A    between atoms: C6_22  and  C7_23
REMARK    8  A    between atoms: C7_23  and  N8_24
REMARK    9  A    between atoms: N8_24  and  C8_27
REMARK   10  A    between atoms: C8_27  and  C9_28
ROOT
HETATM    1  C4  UNL     1      43.162  28.595  16.536  1.00  0.00     0.224 C
ENDROOT
BRANCH   1   2
HETATM    2  N6  UNL     1      43.341  27.806  15.345  1.00  0.00    -0.315 N
ATOM      3  H6  UNL     1      43.997  27.025  15.339  1.00  0.00     0.181 HD
BRANCH   2   4
HETATM    4  N5  UNL     1      42.612  28.116  14.205  1.00  0.00    -0.135 N
ATOM      5  H5  UNL     1      42.211  29.046  14.079  1.00  0.00     0.205 HD
BRANCH   4   6
HETATM    6  C3  UNL     1      42.451  27.196  13.304  1.00  0.00     0.725 A
HETATM    7  N4  UNL     1      43.225  27.162  12.192  1.00  0.00    -0.020 N
HETATM    8  C2  UNL     1      43.055  26.213  11.272  1.00  0.00     0.705 A
ATOM      9  H4  UNL     1      43.947  27.870  12.058  1.00  0.00     0.203 HD
HETATM   10  N2  UNL     1      42.097  25.268  11.446  1.00  0.00    -0.022 N
HETATM   11  C1  UNL     1      41.310  25.268  12.535  1.00  0.00     0.705 A
ATOM     12  H2  UNL     1      41.972  24.545  10.738  1.00  0.00     0.203 HD
HETATM   13  N10 UNL     1      41.516  26.241  13.436  1.00  0.00    -0.020 N
ATOM     14  H10 UNL     1      40.928  26.256  14.269  1.00  0.00     0.203 HD
BRANCH   8  15
HETATM   15  N3  UNL     1      43.787  26.177  10.215  1.00  0.00    -0.234 N
ATOM     16  H32 UNL     1      44.386  25.375  10.018  1.00  0.00     0.174 HD
ATOM     17  H31 UNL     1      43.766  26.965   9.568  1.00  0.00     0.174 HD
ENDBRANCH   8  15
BRANCH  11  18
HETATM   18  N1  UNL     1      40.405  24.358  12.677  1.00  0.00    -0.234 N
ATOM     19  H12 UNL     1      39.449  24.469  12.342  1.00  0.00     0.174 HD
ATOM     20  H11 UNL     1      40.634  23.480  13.143  1.00  0.00     0.174 HD
ENDBRANCH  11  18
ENDBRANCH   4   6
ENDBRANCH   2   4
ENDBRANCH   1   2
BRANCH   1  21
HETATM   21  C5  UNL     1      41.775  28.523  17.053  1.00  0.00     0.142 A
HETATM   22  N7  UNL     1      41.356  27.870  18.126  1.00  0.00    -0.339 N
HETATM   23  C6  UNL     1      40.009  28.046  18.273  1.00  0.00     0.059 A
ATOM     24  H7  UNL     1      41.947  27.320  18.749  1.00  0.00     0.167 HD
HETATM   25  C15 UNL     1      39.657  28.853  17.204  1.00  0.00     0.170 A
HETATM   26  O1  UNL     1      40.746  29.104  16.515  1.00  0.00    -0.306 OA
BRANCH  23  27
HETATM   27  C7  UNL     1      39.118  27.501  19.329  1.00  0.00     0.291 C
BRANCH  27  28
HETATM   28  N8  UNL     1      37.797  28.055  19.112  1.00  0.00    -0.068 N
ATOM     29  H82 UNL     1      37.837  29.064  18.972  1.00  0.00     0.277 HD
ATOM     30  H81 UNL     1      37.425  27.781  18.202  1.00  0.00     0.277 HD
BRANCH  28  31
HETATM   31  C8  UNL     1      36.882  27.707  20.181  1.00  0.00     0.257 C
BRANCH  31  32
HETATM   32  C9  UNL     1      37.040  28.716  21.270  1.00  0.00     0.102 C
HETATM   33  C10 UNL     1      36.712  30.124  20.814  1.00  0.00     0.026 C
HETATM   34  C11 UNL     1      37.537  31.054  21.714  1.00  0.00     0.002 C
HETATM   35  C12 UNL     1      37.004  30.954  23.114  1.00  0.00     0.002 C
HETATM   36  C13 UNL     1      37.661  29.861  23.928  1.00  0.00     0.019 C
HETATM   37  C14 UNL     1      37.021  28.515  23.676  1.00  0.00     0.114 C
HETATM   38  N9  UNL     1      36.285  28.465  22.454  1.00  0.00    -0.415 N
ATOM     39  H9  UNL     1      35.285  28.263  22.429  1.00  0.00     0.153 HD
ENDBRANCH  31  32
ENDBRANCH  28  31
ENDBRANCH  27  28
ENDBRANCH  23  27
ENDBRANCH   1  21
TORSDOF 10
ENDMDL