MODEL 4
REMARK VINA RESULT: -8.793085359      1.440      1.758
REMARK  9 active torsions:
REMARK  status: ('A' for Active; 'I' for Inactive)
REMARK    1  A    between atoms: C2_2  and  C4_4
REMARK    2  A    between atoms: C8_17  and  N5_18
REMARK    3  A    between atoms: C9_20  and  C10_21
REMARK    4  A    between atoms: C10_21  and  C11_22
REMARK    5  A    between atoms: C11_22  and  C12_23
REMARK    6  A    between atoms: C12_23  and  N6_24
REMARK    7  A    between atoms: N6_24  and  C13_26
REMARK    8  A    between atoms: C14_27  and  O1_28
REMARK    9  A    between atoms: N9_34  and  O2_35
ROOT
HETATM    1  C4  UNL     1      43.331  28.835  19.204  1.00  0.00     0.087 A
HETATM    2  N1  UNL     1      43.877  28.734  17.985  1.00  0.00    -0.329 N
ATOM      3  H1  UNL     1      44.851  29.009  17.858  1.00  0.00     0.168 HD
HETATM    4  C5  UNL     1      43.184  28.283  16.916  1.00  0.00     0.153 A
HETATM    5  N2  UNL     1      43.498  28.093  15.618  1.00  0.00    -0.174 N
ATOM      6  H2  UNL     1      44.414  28.288  15.215  1.00  0.00     0.186 HD
HETATM    7  C6  UNL     1      42.460  27.619  14.929  1.00  0.00     0.678 A
HETATM    8  N3  UNL     1      42.355  27.307  13.671  1.00  0.00    -0.234 N
ATOM      9  H31 UNL     1      41.560  26.944  13.144  1.00  0.00     0.174 HD
ATOM     10  H32 UNL     1      43.109  27.390  12.989  1.00  0.00     0.174 HD
HETATM   11  N4  UNL     1      41.449  27.507  15.842  1.00  0.00    -0.184 N
ATOM     12  H4  UNL     1      40.510  27.169  15.632  1.00  0.00     0.184 HD
HETATM   13  C7  UNL     1      41.867  27.906  17.058  1.00  0.00     0.137 A
HETATM   14  C8  UNL     1      41.276  28.001  18.317  1.00  0.00     0.138 A
HETATM   15  N10 UNL     1      42.065  28.471  19.334  1.00  0.00    -0.330 N
ATOM     16  H10 UNL     1      41.646  28.546  20.261  1.00  0.00     0.168 HD
ENDROOT
BRANCH  14  17
HETATM   17  N5  UNL     1      40.099  27.682  18.518  1.00  0.00    -0.354 N
HETATM   18  C9  UNL     1      38.847  28.152  18.776  1.00  0.00     0.062 C
ATOM     19  H5  UNL     1      40.044  26.665  18.471  1.00  0.00     0.166 HD
BRANCH  18  20
HETATM   20  C10 UNL     1      38.536  28.496  20.220  1.00  0.00     0.046 C
BRANCH  20  21
HETATM   21  C11 UNL     1      38.318  29.974  20.418  1.00  0.00     0.025 C
BRANCH  21  22
HETATM   22  C12 UNL     1      37.271  30.263  21.438  1.00  0.00     0.121 C
BRANCH  22  23
HETATM   23  N6  UNL     1      37.812  30.063  22.767  1.00  0.00    -0.369 N
ATOM     24  H6  UNL     1      38.795  30.286  22.930  1.00  0.00     0.161 HD
BRANCH  23  25
HETATM   25  C13 UNL     1      37.123  29.624  23.742  1.00  0.00     0.202 A
HETATM   26  C14 UNL     1      37.024  28.297  24.090  1.00  0.00     0.205 A
HETATM   27  N7  UNL     1      36.212  28.253  25.161  1.00  0.00    -0.260 N
HETATM   28  N8  UNL     1      35.825  29.471  25.471  1.00  0.00    -0.212 N
ATOM     29  H7  UNL     1      35.939  27.406  25.658  1.00  0.00     0.191 HD
HETATM   30  N9  UNL     1      36.375  30.319  24.611  1.00  0.00    -0.127 N
ATOM     31  H8  UNL     1      35.206  29.722  26.241  1.00  0.00     0.211 HD
BRANCH  26  32
HETATM   32  O1  UNL     1      37.615  27.192  23.494  1.00  0.00    -0.342 OA
ATOM     33  H1  UNL     1      38.046  26.451  23.904  1.00  0.00     0.219 HD
ENDBRANCH  26  32
BRANCH  30  34
HETATM   34  O2  UNL     1      36.172  31.669  24.656  1.00  0.00    -0.265 OA
ATOM     35  H2  UNL     1      36.573  32.302  25.239  1.00  0.00     0.247 HD
ENDBRANCH  30  34
ENDBRANCH  23  25
ENDBRANCH  22  23
ENDBRANCH  21  22
ENDBRANCH  20  21
ENDBRANCH  18  20
ENDBRANCH  14  17
BRANCH   1  36
HETATM   36  C2  UNL     1      44.126  29.342  20.379  1.00  0.00     0.045 C
HETATM   37  C1  UNL     1      44.262  28.244  21.425  1.00  0.00     0.017 C
HETATM   38  C3  UNL     1      45.470  29.861  19.959  1.00  0.00     0.017 C
ENDBRANCH   1  36
TORSDOF 9
ENDMDL