MODEL 1
REMARK VINA RESULT: -7.887795123      0.000      0.000
REMARK  11 active torsions:
REMARK  status: ('A' for Active; 'I' for Inactive)
REMARK    1  A    between atoms: C3_8  and  C4_9
REMARK    2  A    between atoms: C4_9  and  O2_10
REMARK    3  A    between atoms: C4_9  and  C5_12
REMARK    4  A    between atoms: C6_13  and  C7_14
REMARK    5  A    between atoms: C8_15  and  C9_16
REMARK    6  A    between atoms: C10_17  and  C11_18
REMARK    7  A    between atoms: N3_19  and  N4_21
REMARK    8  A    between atoms: N4_21  and  C12_23
REMARK    9  A    between atoms: C12_23  and  C14_25
REMARK   10  A    between atoms: C14_25  and  O3_26
REMARK   11  A    between atoms: C14_25  and  C15_28
ROOT
HETATM    1  C9  UNL     1      34.350   8.714  14.074  1.00  0.00     0.001 C
HETATM    2  C10 UNL     1      35.197   9.656  14.435  1.00  0.00     0.019 C
ENDROOT
BRANCH   1   3
HETATM    3  C8  UNL     1      33.128   9.081  13.386  1.00  0.00     0.000 C
HETATM    4  C7  UNL     1      32.033   9.356  14.115  1.00  0.00    -0.000 C
BRANCH   4   5
HETATM    5  C6  UNL     1      30.817   9.722  13.418  1.00  0.00    -0.001 C
HETATM    6  C5  UNL     1      29.747   8.996  13.440  1.00  0.00     0.011 C
BRANCH   6   7
HETATM    7  C4  UNL     1      29.640   7.731  14.167  1.00  0.00     0.195 C
BRANCH   7   8
HETATM    8  C3  UNL     1      29.179   6.628  13.269  1.00  0.00     0.090 A
HETATM    9  C2  UNL     1      30.006   5.756  12.637  1.00  0.00     0.058 A
HETATM   10  C1  UNL     1      31.488   5.735  12.714  1.00  0.00     0.072 C
HETATM   11  N1  UNL     1      29.225   4.905  11.927  1.00  0.00    -0.244 N
HETATM   12  O1  UNL     1      28.004   5.267  12.137  1.00  0.00    -0.157 OA
ATOM     13  H1  UNL     1      29.540   4.132  11.341  1.00  0.00     0.196 HD
HETATM   14  N2  UNL     1      27.916   6.285  12.925  1.00  0.00    -0.241 N
ATOM     15  H2  UNL     1      27.058   6.744  13.231  1.00  0.00     0.196 HD
ENDBRANCH   7   8
BRANCH   7  16
HETATM   16  O2  UNL     1      28.914   7.803  15.349  1.00  0.00    -0.385 OA
ATOM     17  H2  UNL     1      28.932   8.669  15.740  1.00  0.00     0.210 HD
ENDBRANCH   7  16
ENDBRANCH   6   7
ENDBRANCH   4   5
ENDBRANCH   1   3
BRANCH   2  18
HETATM   18  C11 UNL     1      36.440   9.351  15.128  1.00  0.00     0.106 C
HETATM   19  N3  UNL     1      36.601   9.492  16.385  1.00  0.00    -0.316 N
ATOM     20  H3  UNL     1      37.509   9.253  16.783  1.00  0.00     0.185 HD
BRANCH  19  21
HETATM   21  N4  UNL     1      35.606   9.957  17.251  1.00  0.00    -0.330 N
ATOM     22  H4  UNL     1      35.312  10.932  17.196  1.00  0.00     0.180 HD
BRANCH  21  23
HETATM   23  C12 UNL     1      34.974   9.066  18.240  1.00  0.00     0.124 C
HETATM   24  C13 UNL     1      35.913   8.953  19.390  1.00  0.00     0.036 C
BRANCH  23  25
HETATM   25  C14 UNL     1      34.641   7.804  17.539  1.00  0.00     0.149 C
BRANCH  25  26
HETATM   26  O3  UNL     1      35.559   6.824  17.860  1.00  0.00    -0.393 OA
ATOM     27  H3  UNL     1      36.027   6.546  17.082  1.00  0.00     0.210 HD
ENDBRANCH  25  26
BRANCH  25  28
HETATM   28  C15 UNL     1      33.243   7.318  17.661  1.00  0.00    -0.023 C
HETATM   29  C16 UNL     1      32.759   6.460  16.525  1.00  0.00     0.017 C
HETATM   30  C17 UNL     1      32.349   8.571  17.658  1.00  0.00     0.017 C
HETATM   31  C18 UNL     1      32.992   6.648  18.993  1.00  0.00     0.017 C
ENDBRANCH  25  28
ENDBRANCH  23  25
ENDBRANCH  21  23
ENDBRANCH  19  21
ENDBRANCH   2  18
TORSDOF 11
ENDMDL