MODEL 5
REMARK VINA RESULT: -7.802090064      1.026      1.156
REMARK  8 active torsions:
REMARK  status: ('A' for Active; 'I' for Inactive)
REMARK    1  A    between atoms: C2_2  and  C3_3
REMARK    2  A    between atoms: C4_4  and  N1_5
REMARK    3  A    between atoms: N1_5  and  C5_7
REMARK    4  A    between atoms: C5_7  and  C6_8
REMARK    5  A    between atoms: C6_8  and  C8_10
REMARK    6  A    between atoms: C12_18  and  N4_19
REMARK    7  A    between atoms: N4_19  and  C13_21
REMARK    8  A    between atoms: C13_21  and  C14_22
ROOT
HETATM    1  C3  UNL     1      33.576   9.330  15.015  1.00  0.00     0.029 A
HETATM    2  C4  UNL     1      32.197   9.119  15.087  1.00  0.00     0.112 A
HETATM    3  N2  UNL     1      31.740   8.110  15.888  1.00  0.00    -0.332 N
ATOM      4  H2  UNL     1      30.733   7.956  15.939  1.00  0.00     0.168 HD
HETATM    5  C10 UNL     1      32.539   7.316  16.609  1.00  0.00     0.080 A
HETATM    6  C11 UNL     1      31.976   6.231  17.467  1.00  0.00     0.089 C
HETATM    7  N3  UNL     1      33.856   7.546  16.516  1.00  0.00    -0.332 N
ATOM      8  H3  UNL     1      34.487   6.953  17.055  1.00  0.00     0.168 HD
HETATM    9  C12 UNL     1      34.395   8.521  15.748  1.00  0.00     0.112 A
ENDROOT
BRANCH   9  10
HETATM   10  N4  UNL     1      35.809   8.642  15.730  1.00  0.00    -0.371 N
ATOM     11  H4  UNL     1      36.247   8.958  14.865  1.00  0.00     0.161 HD
BRANCH  10  12
HETATM   12  C13 UNL     1      36.671   8.349  16.852  1.00  0.00     0.185 C
BRANCH  12  13
HETATM   13  C14 UNL     1      36.767   9.392  17.889  1.00  0.00     0.379 C
HETATM   14  O1  UNL     1      35.482   9.826  18.210  1.00  0.00    -0.352 OA
HETATM   15  C15 UNL     1      35.156   9.272  19.443  1.00  0.00     0.236 C
HETATM   16  C16 UNL     1      36.491   9.501  20.170  1.00  0.00     0.446 C
HETATM   17  N5  UNL     1      36.674   8.632  21.284  1.00  0.00    -0.040 N
HETATM   18  N6  UNL     1      37.383   9.051  19.115  1.00  0.00     0.153 N
HETATM   19  C17 UNL     1      37.372   7.454  20.813  1.00  0.00     0.265 C
ATOM     20  H52 UNL     1      37.146   9.085  22.067  1.00  0.00     0.279 HD
ATOM     21  H51 UNL     1      35.801   8.411  21.762  1.00  0.00     0.279 HD
HETATM   22  C18 UNL     1      37.680   7.688  19.346  1.00  0.00     0.306 C
ENDBRANCH  12  13
ENDBRANCH  10  12
ENDBRANCH   9  10
BRANCH   1  23
HETATM   23  C2  UNL     1      34.098  10.409  14.168  1.00  0.00     0.042 C
HETATM   24  C1  UNL     1      34.570   9.936  12.808  1.00  0.00     0.010 C
ENDBRANCH   1  23
BRANCH   2  25
HETATM   25  N1  UNL     1      31.278   9.904  14.356  1.00  0.00    -0.375 N
ATOM     26  H1  UNL     1      31.187  10.902  14.544  1.00  0.00     0.161 HD
BRANCH  25  27
HETATM   27  C5  UNL     1      30.474   9.280  13.343  1.00  0.00     0.125 C
BRANCH  27  28
HETATM   28  C6  UNL     1      30.582   9.910  11.994  1.00  0.00    -0.001 C
HETATM   29  C7  UNL     1      31.467   9.000  11.145  1.00  0.00     0.011 C
BRANCH  28  30
HETATM   30  C8  UNL     1      31.161  11.293  12.108  1.00  0.00     0.001 C
HETATM   31  C9  UNL     1      31.687  11.826  10.811  1.00  0.00     0.005 C
ENDBRANCH  28  30
ENDBRANCH  27  28
ENDBRANCH  25  27
ENDBRANCH   2  25
TORSDOF 8
ENDMDL