MODEL 4
REMARK VINA RESULT: -6.419877629      1.344      1.354
REMARK  10 active torsions:
REMARK  status: ('A' for Active; 'I' for Inactive)
REMARK    1  A    between atoms: C4_4  and  N1_5
REMARK    2  A    between atoms: N1_5  and  C5_7
REMARK    3  A    between atoms: C5_7  and  C6_8
REMARK    4  A    between atoms: C6_8  and  C7_9
REMARK    5  A    between atoms: C7_9  and  O1_10
REMARK    6  A    between atoms: N2_13  and  C9_14
REMARK    7  A    between atoms: C9_14  and  C10_15
REMARK    8  A    between atoms: C10_15  and  C11_16
REMARK    9  A    between atoms: C11_16  and  S1_17
REMARK   10  A    between atoms: S1_17  and  C12_18
ROOT
HETATM    1  C1  UNL     1      29.984   8.854  13.098  1.00  0.00     0.032 C
HETATM    2  C2  UNL     1      30.630   8.051  14.189  1.00  0.00     0.077 C
HETATM    3  C3  UNL     1      29.827   6.786  14.536  1.00  0.00     0.051 C
HETATM    4  C4  UNL     1      30.857   5.916  15.172  1.00  0.00     0.096 C
HETATM    5  C8  UNL     1      32.143   6.322  14.434  1.00  0.00     0.142 C
HETATM    6  N2  UNL     1      31.829   7.483  13.718  1.00  0.00    -0.406 N
ENDROOT
BRANCH   6   7
HETATM    7  C9  UNL     1      32.846   8.309  13.188  1.00  0.00     0.118 C
BRANCH   7   8
HETATM    8  C10 UNL     1      33.921   8.456  14.209  1.00  0.00     0.030 C
BRANCH   8   9
HETATM    9  C11 UNL     1      34.008   9.727  14.928  1.00  0.00     0.083 C
BRANCH   9  10
HETATM   10  S1  UNL     1      35.580  10.251  15.528  1.00  0.00    -0.103 SA
BRANCH  10  11
HETATM   11  C12 UNL     1      36.280   9.251  16.825  1.00  0.00     0.129 A
HETATM   12  N3  UNL     1      36.270   7.904  16.844  1.00  0.00    -0.287 N
HETATM   13  N4  UNL     1      36.759   7.281  17.835  1.00  0.00    -0.283 N
ATOM     14  H3  UNL     1      35.869   7.386  16.063  1.00  0.00     0.188 HD
HETATM   15  C13 UNL     1      37.279   7.971  18.848  1.00  0.00     0.159 A
ATOM     16  H4  UNL     1      36.754   6.262  17.855  1.00  0.00     0.188 HD
HETATM   17  S2  UNL     1      37.967   7.381  20.231  1.00  0.00    -0.051 SA
HETATM   18  S3  UNL     1      37.035   9.574  18.313  1.00  0.00    -0.033 SA
ENDBRANCH  10  11
ENDBRANCH   9  10
ENDBRANCH   8   9
ENDBRANCH   7   8
ENDBRANCH   6   7
BRANCH   4  19
HETATM   19  N1  UNL     1      31.061   6.172  16.551  1.00  0.00    -0.415 N
ATOM     20  H1  UNL     1      30.326   6.593  17.119  1.00  0.00     0.153 HD
BRANCH  19  21
HETATM   21  C5  UNL     1      32.311   5.828  17.118  1.00  0.00     0.116 C
BRANCH  21  22
HETATM   22  C6  UNL     1      32.653   6.635  18.358  1.00  0.00     0.045 C
BRANCH  22  23
HETATM   23  C7  UNL     1      32.699   8.099  17.929  1.00  0.00     0.165 C
BRANCH  23  24
HETATM   24  O1  UNL     1      31.404   8.625  17.992  1.00  0.00    -0.401 OA
ATOM     25  H1  UNL     1      30.783   7.914  17.889  1.00  0.00     0.209 HD
ENDBRANCH  23  24
ENDBRANCH  22  23
ENDBRANCH  21  22
ENDBRANCH  19  21
ENDBRANCH   4  19
TORSDOF 10
ENDMDL