MODEL 5
REMARK VINA RESULT: -8.006172712      2.640      4.686
REMARK  12 active torsions:
REMARK  status: ('A' for Active; 'I' for Inactive)
REMARK    1  A    between atoms: C2_2  and  C3_3
REMARK    2  A    between atoms: C3_3  and  C4_4
REMARK    3  A    between atoms: C4_4  and  C5_5
REMARK    4  A    between atoms: C5_5  and  C6_6
REMARK    5  A    between atoms: C6_6  and  C7_7
REMARK    6  A    between atoms: C7_7  and  C8_8
REMARK    7  A    between atoms: C8_8  and  C9_9
REMARK    8  A    between atoms: C9_9  and  C10_10
REMARK    9  A    between atoms: C10_10  and  C12_12
REMARK   10  A    between atoms: C15_17  and  O3_18
REMARK   11  A    between atoms: C16_20  and  O4_21
REMARK   12  A    between atoms: C18_25  and  O6_26
ROOT
HETATM    1  C12 UNL     1      32.876   7.245  17.551  1.00  0.00     0.183 C
HETATM    2  O1  UNL     1      33.569   6.698  18.673  1.00  0.00    -0.348 OA
HETATM    3  C13 UNL     1      34.601   7.440  19.113  1.00  0.00     0.291 C
HETATM    4  O2  UNL     1      35.387   6.728  20.050  1.00  0.00    -0.356 OA
HETATM    5  C14 UNL     1      36.053   7.679  20.816  1.00  0.00     0.205 C
HETATM    6  C15 UNL     1      36.513   8.836  19.965  1.00  0.00     0.173 C
HETATM    7  C16 UNL     1      36.782   8.378  18.550  1.00  0.00     0.182 C
HETATM    8  C17 UNL     1      35.536   7.744  17.962  1.00  0.00     0.211 C
HETATM    9  O5  UNL     1      34.878   8.559  17.092  1.00  0.00    -0.346 OA
HETATM   10  C18 UNL     1      33.490   8.524  17.155  1.00  0.00     0.286 C
ENDROOT
BRANCH   1  11
HETATM   11  C10 UNL     1      32.796   6.190  16.512  1.00  0.00     0.015 C
HETATM   12  C11 UNL     1      31.910   5.018  17.027  1.00  0.00     0.012 C
BRANCH  11  13
HETATM   13  C9  UNL     1      32.507   6.451  15.112  1.00  0.00     0.007 C
BRANCH  13  14
HETATM   14  C8  UNL     1      31.976   5.465  14.168  1.00  0.00     0.000 C
BRANCH  14  15
HETATM   15  C7  UNL     1      31.909   6.052  12.734  1.00  0.00     0.000 C
BRANCH  15  16
HETATM   16  C6  UNL     1      30.492   6.579  12.525  1.00  0.00     0.000 C
BRANCH  16  17
HETATM   17  C5  UNL     1      30.441   7.546  11.379  1.00  0.00     0.000 C
BRANCH  17  18
HETATM   18  C4  UNL     1      30.856   8.931  11.783  1.00  0.00     0.000 C
BRANCH  18  19
HETATM   19  C3  UNL     1      30.273   9.302  13.094  1.00  0.00    -0.000 C
BRANCH  19  20
HETATM   20  C2  UNL     1      30.435  10.765  13.437  1.00  0.00    -0.005 C
HETATM   21  C1  UNL     1      31.023  11.586  12.340  1.00  0.00     0.005 C
ENDBRANCH  19  20
ENDBRANCH  18  19
ENDBRANCH  17  18
ENDBRANCH  16  17
ENDBRANCH  15  16
ENDBRANCH  14  15
ENDBRANCH  13  14
ENDBRANCH  11  13
ENDBRANCH   1  11
BRANCH  10  22
HETATM   22  O6  UNL     1      33.026   9.532  18.065  1.00  0.00    -0.369 OA
ATOM     23  H6  UNL     1      32.345  10.027  17.626  1.00  0.00     0.212 HD
ENDBRANCH  10  22
BRANCH   7  24
HETATM   24  O4  UNL     1      37.745   7.351  18.637  1.00  0.00    -0.390 OA
ATOM     25  H4  UNL     1      37.272   6.531  18.564  1.00  0.00     0.210 HD
ENDBRANCH   7  24
BRANCH   6  26
HETATM   26  O3  UNL     1      37.734   9.356  20.441  1.00  0.00    -0.391 OA
ATOM     27  H3  UNL     1      37.662  10.288  20.613  1.00  0.00     0.210 HD
ENDBRANCH   6  26
TORSDOF 12
ENDMDL