MODEL 5
REMARK VINA RESULT: -7.021365578      1.435      2.063
REMARK  12 active torsions:
REMARK  status: ('A' for Active; 'I' for Inactive)
REMARK    1  A    between atoms: C2_2  and  C4_4
REMARK    2  A    between atoms: C4_4  and  C5_5
REMARK    3  A    between atoms: C5_5  and  N1_6
REMARK    4  A    between atoms: N1_6  and  C6_8
REMARK    5  A    between atoms: C6_8  and  C7_9
REMARK    6  A    between atoms: C7_9  and  C8_10
REMARK    7  A    between atoms: C8_10  and  N2_11
REMARK    8  A    between atoms: N2_11  and  C9_13
REMARK    9  A    between atoms: C10_14  and  N3_15
REMARK   10  A    between atoms: N3_15  and  O1_17
REMARK   11  A    between atoms: C11_19  and  N4_20
REMARK   12  A    between atoms: N4_20  and  C12_22
ROOT
HETATM    1  C9  UNL     1      33.097   7.976  15.744  1.00  0.00     0.131 A
HETATM    2  C10 UNL     1      33.290   8.028  17.110  1.00  0.00     0.131 A
HETATM    3  C11 UNL     1      34.167   8.928  17.705  1.00  0.00     0.148 A
HETATM    4  N5  UNL     1      34.831   9.759  16.903  1.00  0.00    -0.279 N
ATOM      5  H5  UNL     1      35.480  10.429  17.316  1.00  0.00     0.189 HD
HETATM    6  N6  UNL     1      34.677   9.746  15.577  1.00  0.00    -0.259 N
HETATM    7  C16 UNL     1      35.457  10.705  14.784  1.00  0.00     0.181 C
HETATM    8  C17 UNL     1      33.841   8.890  14.983  1.00  0.00     0.290 A
HETATM    9  O2  UNL     1      33.686   8.869  13.729  1.00  0.00    -0.264 OA
ENDROOT
BRANCH   1  10
HETATM   10  N2  UNL     1      32.199   7.081  15.111  1.00  0.00    -0.383 N
ATOM     11  H2  UNL     1      32.568   6.206  14.740  1.00  0.00     0.159 HD
BRANCH  10  12
HETATM   12  C8  UNL     1      30.788   7.344  14.965  1.00  0.00     0.125 C
BRANCH  12  13
HETATM   13  C7  UNL     1      30.370   7.810  13.604  1.00  0.00     0.063 C
BRANCH  13  14
HETATM   14  C6  UNL     1      30.064   9.241  13.447  1.00  0.00     0.057 C
BRANCH  14  15
HETATM   15  N1  UNL     1      30.713  10.253  14.106  1.00  0.00    -0.402 N
ATOM     16  H1  UNL     1      30.681  10.229  15.126  1.00  0.00     0.158 HD
BRANCH  15  17
HETATM   17  C5  UNL     1      31.406  11.303  13.533  1.00  0.00     0.119 C
BRANCH  17  18
HETATM   18  C4  UNL     1      30.792  11.712  12.178  1.00  0.00     0.023 C
BRANCH  18  19
HETATM   19  C2  UNL     1      31.824  11.525  11.077  1.00  0.00    -0.021 C
HETATM   20  C1  UNL     1      31.705  12.610  10.053  1.00  0.00     0.009 C
HETATM   21  C3  UNL     1      31.636  10.173  10.394  1.00  0.00     0.009 C
ENDBRANCH  18  19
ENDBRANCH  17  18
ENDBRANCH  15  17
ENDBRANCH  14  15
ENDBRANCH  13  14
ENDBRANCH  12  13
ENDBRANCH  10  12
ENDBRANCH   1  10
BRANCH   2  22
HETATM   22  N3  UNL     1      32.583   7.108  17.968  1.00  0.00    -0.263 N
ATOM     23  H3  UNL     1      31.733   7.390  18.457  1.00  0.00     0.194 HD
BRANCH  22  24
HETATM   24  O1  UNL     1      33.044   5.957  18.091  1.00  0.00    -0.289 OA
ATOM     25  H1  UNL     1      33.965   5.827  17.898  1.00  0.00     0.244 HD
ENDBRANCH  22  24
ENDBRANCH   2  22
BRANCH   3  26
HETATM   26  N4  UNL     1      34.280   8.904  18.966  1.00  0.00    -0.365 N
ATOM     27  H4  UNL     1      33.459   9.245  19.467  1.00  0.00     0.162 HD
BRANCH  26  28
HETATM   28  C12 UNL     1      35.339   8.488  19.803  1.00  0.00     0.021 C
HETATM   29  C13 UNL     1      36.401   7.674  19.091  1.00  0.00     0.037 C
HETATM   30  C14 UNL     1      35.913   9.684  20.529  1.00  0.00     0.037 C
HETATM   31  C15 UNL     1      34.691   7.620  20.905  1.00  0.00     0.037 C
ENDBRANCH  26  28
ENDBRANCH   3  26
TORSDOF 12
ENDMDL