MODEL 1
REMARK VINA RESULT: -7.887836591      0.000      0.000
REMARK  11 active torsions:
REMARK  status: ('A' for Active; 'I' for Inactive)
REMARK    1  A    between atoms: C3_3  and  C4_4
REMARK    2  A    between atoms: C4_4  and  C5_5
REMARK    3  A    between atoms: C5_5  and  C6_6
REMARK    4  A    between atoms: C7_7  and  C8_8
REMARK    5  A    between atoms: C9_10  and  C10_11
REMARK    6  A    between atoms: C10_11  and  S1_12
REMARK    7  A    between atoms: S1_12  and  C11_13
REMARK    8  A    between atoms: C11_13  and  C12_14
REMARK    9  A    between atoms: C12_14  and  O2_15
REMARK   10  A    between atoms: C12_14  and  C13_17
REMARK   11  A    between atoms: C14_21  and  O6_23
ROOT
HETATM    1  C8  UNL     1      30.946   6.605  14.660  1.00  0.00     0.293 C
HETATM    2  O1  UNL     1      31.158   7.834  15.270  1.00  0.00    -0.327 OA
HETATM    3  C9  UNL     1      32.294   7.739  16.061  1.00  0.00     0.278 C
HETATM    4  O5  UNL     1      32.912   6.525  15.801  1.00  0.00    -0.301 OA
HETATM    5  C14 UNL     1      32.105   5.514  16.310  1.00  0.00     0.280 C
HETATM    6  C15 UNL     1      31.906   5.758  17.779  1.00  0.00     0.115 C
HETATM    7  O7  UNL     1      30.892   5.575  15.621  1.00  0.00    -0.299 OA
ENDROOT
BRANCH   3   8
HETATM    8  C10 UNL     1      33.247   8.893  15.814  1.00  0.00     0.135 C
BRANCH   8   9
HETATM    9  S1  UNL     1      34.927   8.380  16.235  1.00  0.00    -0.161 SA
BRANCH   9  10
HETATM   10  C11 UNL     1      35.217   8.692  18.013  1.00  0.00     0.116 C
BRANCH  10  11
HETATM   11  C12 UNL     1      36.130   7.589  18.524  1.00  0.00     0.228 C
BRANCH  11  12
HETATM   12  O2  UNL     1      36.390   6.672  17.535  1.00  0.00    -0.384 OA
ATOM     13  H2  UNL     1      37.248   6.281  17.653  1.00  0.00     0.210 HD
ENDBRANCH  11  12
BRANCH  11  14
HETATM   14  C13 UNL     1      37.344   8.242  19.079  1.00  0.00     0.203 C
HETATM   15  O3  UNL     1      37.506   9.474  19.108  1.00  0.00    -0.646 OA
HETATM   16  O4  UNL     1      38.322   7.378  19.580  1.00  0.00    -0.646 OA
ENDBRANCH  11  14
ENDBRANCH  10  11
ENDBRANCH   9  10
ENDBRANCH   8   9
ENDBRANCH   3   8
BRANCH   1  17
HETATM   17  C7  UNL     1      29.690   6.575  13.898  1.00  0.00     0.029 C
HETATM   18  C6  UNL     1      29.681   6.804  12.598  1.00  0.00    -0.025 C
BRANCH  18  19
HETATM   19  C5  UNL     1      30.851   7.104  11.764  1.00  0.00     0.031 C
BRANCH  19  20
HETATM   20  C4  UNL     1      30.710   8.503  11.205  1.00  0.00     0.030 C
BRANCH  20  21
HETATM   21  C3  UNL     1      31.311   9.449  12.175  1.00  0.00    -0.031 C
HETATM   22  C2  UNL     1      30.530  10.320  12.784  1.00  0.00    -0.035 C
HETATM   23  C1  UNL     1      31.121  11.265  13.751  1.00  0.00     0.036 C
ENDBRANCH  20  21
ENDBRANCH  19  20
ENDBRANCH  18  19
ENDBRANCH   1  17
BRANCH   5  24
HETATM   24  O6  UNL     1      32.639   4.249  16.058  1.00  0.00    -0.343 OA
ATOM     25  H6  UNL     1      31.962   3.585  16.005  1.00  0.00     0.215 HD
ENDBRANCH   5  24
TORSDOF 11
ENDMDL