MODEL 2
REMARK VINA RESULT: -7.848788813      1.702      4.641
REMARK  12 active torsions:
REMARK  status: ('A' for Active; 'I' for Inactive)
REMARK    1  A    between atoms: C2_2  and  C3_3
REMARK    2  A    between atoms: C3_3  and  C4_4
REMARK    3  A    between atoms: C3_3  and  C10_10
REMARK    4  A    between atoms: C4_4  and  C5_5
REMARK    5  A    between atoms: C5_5  and  C6_6
REMARK    6  A    between atoms: C10_10  and  C11_11
REMARK    7  A    between atoms: C11_11  and  O1_12
REMARK    8  A    between atoms: O1_12  and  N1_13
REMARK    9  A    between atoms: C13_17  and  C14_18
REMARK   10  A    between atoms: C14_18  and  O3_20
REMARK   11  A    between atoms: C16_22  and  O4_23
REMARK   12  A    between atoms: C18_26  and  O5_27
ROOT
HETATM    1  N1  UNL     1      34.160   9.725  14.735  1.00  0.00    -0.246 N
ATOM      2  H1  UNL     1      34.556  10.574  15.139  1.00  0.00     0.196 HD
HETATM    3  C12 UNL     1      33.811   8.799  15.533  1.00  0.00     0.168 C
HETATM    4  O2  UNL     1      33.268   7.625  15.069  1.00  0.00    -0.325 OA
HETATM    5  C13 UNL     1      32.294   6.955  15.832  1.00  0.00     0.187 C
HETATM    6  C16 UNL     1      32.686   6.879  17.269  1.00  0.00     0.153 C
HETATM    7  C17 UNL     1      33.990   7.576  17.593  1.00  0.00     0.074 C
HETATM    8  C18 UNL     1      33.987   8.979  16.992  1.00  0.00     0.197 C
ENDROOT
BRANCH   1   9
HETATM    9  O1  UNL     1      34.046   9.669  13.399  1.00  0.00    -0.279 OA
BRANCH   9  10
HETATM   10  C11 UNL     1      33.578  10.654  12.543  1.00  0.00     0.202 C
BRANCH  10  11
HETATM   11  C10 UNL     1      32.067  10.750  12.683  1.00  0.00     0.033 C
BRANCH  11  12
HETATM   12  C3  UNL     1      31.358  10.598  11.359  1.00  0.00    -0.013 C
BRANCH  12  13
HETATM   13  C2  UNL     1      32.165  11.297  10.287  1.00  0.00     0.000 C
HETATM   14  C1  UNL     1      31.645  12.685  10.001  1.00  0.00     0.005 C
ENDBRANCH  12  13
BRANCH  12  15
HETATM   15  C4  UNL     1      31.092   9.173  11.026  1.00  0.00     0.008 C
BRANCH  15  16
HETATM   16  C5  UNL     1      30.705   8.367  12.236  1.00  0.00     0.028 C
BRANCH  16  17
HETATM   17  C6  UNL     1      29.953   7.130  11.850  1.00  0.00    -0.025 C
HETATM   18  C7  UNL     1      28.974   6.710  12.627  1.00  0.00    -0.091 C
HETATM   19  C8  UNL     1      28.607   7.438  13.864  1.00  0.00     0.042 C
HETATM   20  C9  UNL     1      28.209   5.486  12.271  1.00  0.00     0.042 C
ENDBRANCH  16  17
ENDBRANCH  15  16
ENDBRANCH  12  15
ENDBRANCH  11  12
ENDBRANCH  10  11
ENDBRANCH   9  10
ENDBRANCH   1   9
BRANCH   8  21
HETATM   21  O5  UNL     1      32.912   9.680  17.544  1.00  0.00    -0.387 OA
ATOM     22  H5  UNL     1      32.729   9.384  18.428  1.00  0.00     0.210 HD
ENDBRANCH   8  21
BRANCH   5  23
HETATM   23  C14 UNL     1      32.038   5.570  15.261  1.00  0.00     0.146 C
HETATM   24  C15 UNL     1      32.335   5.491  13.786  1.00  0.00     0.042 C
BRANCH  23  25
HETATM   25  O3  UNL     1      30.695   5.205  15.521  1.00  0.00    -0.393 OA
ATOM     26  H3  UNL     1      30.133   5.953  15.359  1.00  0.00     0.210 HD
ENDBRANCH  23  25
ENDBRANCH   5  23
BRANCH   6  27
HETATM   27  O4  UNL     1      32.718   5.542  17.653  1.00  0.00    -0.393 OA
ATOM     28  H4  UNL     1      31.974   5.369  18.219  1.00  0.00     0.210 HD
ENDBRANCH   6  27
TORSDOF 12
ENDMDL