MODEL 1
REMARK VINA RESULT: -7.963165965      0.000      0.000
REMARK  10 active torsions:
REMARK  status: ('A' for Active; 'I' for Inactive)
REMARK    1  A    between atoms: C2_2  and  C4_4
REMARK    2  A    between atoms: C4_4  and  N1_5
REMARK    3  A    between atoms: N1_5  and  C5_7
REMARK    4  A    between atoms: C5_7  and  C6_8
REMARK    5  A    between atoms: C6_8  and  C8_10
REMARK    6  A    between atoms: C8_10  and  N2_11
REMARK    7  A    between atoms: N2_11  and  C9_13
REMARK    8  A    between atoms: C9_13  and  O1_14
REMARK    9  A    between atoms: C9_13  and  C10_16
REMARK   10  A    between atoms: N4_19  and  C11_20
ROOT
HETATM    1  C9  UNL     1      32.392   7.963  17.443  1.00  0.00     0.273 C
ENDROOT
BRANCH   1   2
HETATM    2  N2  UNL     1      32.763   6.881  18.294  1.00  0.00    -0.391 N
ATOM      3  H2  UNL     1      32.619   5.910  18.016  1.00  0.00     0.156 HD
BRANCH   2   4
HETATM    4  C8  UNL     1      33.344   7.220  19.551  1.00  0.00     0.126 C
BRANCH   4   5
HETATM    5  C6  UNL     1      34.844   7.549  19.457  1.00  0.00     0.037 C
HETATM    6  C7  UNL     1      35.516   6.637  20.440  1.00  0.00     0.017 C
BRANCH   5   7
HETATM    7  C5  UNL     1      35.005   8.996  19.775  1.00  0.00     0.061 C
BRANCH   7   8
HETATM    8  N1  UNL     1      35.645   9.849  18.876  1.00  0.00    -0.401 N
ATOM      9  H1  UNL     1      35.189  10.714  18.585  1.00  0.00     0.158 HD
BRANCH   8  10
HETATM   10  C4  UNL     1      36.925   9.522  18.362  1.00  0.00     0.122 C
BRANCH  10  11
HETATM   11  C2  UNL     1      36.763   9.506  16.826  1.00  0.00    -0.005 C
HETATM   12  C1  UNL     1      35.637  10.430  16.403  1.00  0.00     0.011 C
HETATM   13  C3  UNL     1      36.420   8.109  16.395  1.00  0.00     0.011 C
ENDBRANCH  10  11
ENDBRANCH   8  10
ENDBRANCH   7   8
ENDBRANCH   5   7
ENDBRANCH   4   5
ENDBRANCH   2   4
ENDBRANCH   1   2
BRANCH   1  14
HETATM   14  O1  UNL     1      31.403   8.700  18.139  1.00  0.00    -0.371 OA
ATOM     15  H1  UNL     1      31.416   9.579  17.777  1.00  0.00     0.212 HD
ENDBRANCH   1  14
BRANCH   1  16
HETATM   16  C10 UNL     1      31.698   7.480  16.190  1.00  0.00     0.119 A
HETATM   17  N3  UNL     1      31.366   8.196  15.126  1.00  0.00    -0.288 N
HETATM   18  N4  UNL     1      30.772   7.647  14.145  1.00  0.00    -0.246 N
ATOM     19  H3  UNL     1      31.587   9.192  15.093  1.00  0.00     0.187 HD
HETATM   20  C16 UNL     1      30.493   6.340  14.210  1.00  0.00     0.306 A
HETATM   21  O2  UNL     1      29.910   5.598  13.346  1.00  0.00    -0.258 OA
HETATM   22  S1  UNL     1      31.122   5.929  15.753  1.00  0.00    -0.008 SA
BRANCH  18  23
HETATM   23  C11 UNL     1      30.380   8.392  12.924  1.00  0.00     0.112 C
HETATM   24  C12 UNL     1      31.385   8.255  11.828  1.00  0.00     0.027 C
HETATM   25  C13 UNL     1      31.104   9.522  11.004  1.00  0.00     0.002 C
HETATM   26  C14 UNL     1      30.932  10.563  12.106  1.00  0.00     0.002 C
HETATM   27  C15 UNL     1      30.322   9.862  13.275  1.00  0.00     0.027 C
ENDBRANCH  18  23
ENDBRANCH   1  16
TORSDOF 10
ENDMDL