MODEL 1
REMARK VINA RESULT: -7.421414944      0.000      0.000
REMARK  12 active torsions:
REMARK  status: ('A' for Active; 'I' for Inactive)
REMARK    1  A    between atoms: C2_2  and  C4_4
REMARK    2  A    between atoms: C4_4  and  C5_5
REMARK    3  A    between atoms: C5_5  and  N1_6
REMARK    4  A    between atoms: C5_5  and  C15_25
REMARK    5  A    between atoms: N1_6  and  C6_8
REMARK    6  A    between atoms: C6_8  and  C7_9
REMARK    7  A    between atoms: C8_10  and  C9_11
REMARK    8  A    between atoms: C9_11  and  C12_14
REMARK    9  A    between atoms: C12_14  and  C13_15
REMARK   10  A    between atoms: N3_17  and  O1_19
REMARK   11  A    between atoms: N4_21  and  O2_23
REMARK   12  A    between atoms: C15_25  and  O4_27
ROOT
HETATM    1  C6  UNL     1      34.224   8.559  15.351  1.00  0.00     0.121 C
HETATM    2  N4  UNL     1      34.107   9.623  14.615  1.00  0.00    -0.251 N
ATOM      3  H4  UNL     1      33.287   9.692  14.014  1.00  0.00     0.196 HD
ENDROOT
BRANCH   1   4
HETATM    4  N1  UNL     1      35.377   8.508  16.168  1.00  0.00    -0.361 N
ATOM      5  H1  UNL     1      36.279   8.278  15.748  1.00  0.00     0.162 HD
BRANCH   4   6
HETATM    6  C5  UNL     1      35.303   8.782  17.627  1.00  0.00     0.186 C
BRANCH   6   7
HETATM    7  C4  UNL     1      35.444   7.489  18.327  1.00  0.00     0.068 C
BRANCH   7   8
HETATM    8  C2  UNL     1      34.398   7.177  19.303  1.00  0.00    -0.091 C
HETATM    9  C1  UNL     1      34.582   7.336  20.628  1.00  0.00     0.014 C
HETATM   10  C3  UNL     1      33.024   6.704  18.907  1.00  0.00     0.042 C
ENDBRANCH   7   8
ENDBRANCH   6   7
BRANCH   6  11
HETATM   11  C15 UNL     1      36.281   9.836  17.913  1.00  0.00     0.281 C
HETATM   12  O3  UNL     1      37.349   9.877  17.211  1.00  0.00    -0.263 OA
BRANCH  11  13
HETATM   13  O4  UNL     1      36.173  10.810  18.869  1.00  0.00    -0.325 OA
HETATM   14  C16 UNL     1      36.286  10.663  20.258  1.00  0.00     0.213 C
ENDBRANCH  11  13
ENDBRANCH   6  11
ENDBRANCH   4   6
ENDBRANCH   1   4
BRANCH   1  15
HETATM   15  C7  UNL     1      33.272   7.489  15.342  1.00  0.00     0.046 C
HETATM   16  C8  UNL     1      32.458   7.281  14.348  1.00  0.00    -0.014 C
BRANCH  16  17
HETATM   17  C9  UNL     1      31.462   6.167  14.330  1.00  0.00    -0.024 C
HETATM   18  C10 UNL     1      30.138   6.754  14.763  1.00  0.00     0.019 C
HETATM   19  C11 UNL     1      31.968   5.160  15.347  1.00  0.00     0.019 C
BRANCH  17  20
HETATM   20  C12 UNL     1      31.393   5.504  12.996  1.00  0.00     0.087 C
BRANCH  20  21
HETATM   21  C13 UNL     1      30.244   5.942  12.179  1.00  0.00     0.114 C
HETATM   22  N2  UNL     1      30.230   7.179  11.497  1.00  0.00    -0.086 NA
HETATM   23  N3  UNL     1      29.215   5.174  12.087  1.00  0.00    -0.259 N
ATOM     24  H3  UNL     1      29.206   4.279  12.576  1.00  0.00     0.195 HD
BRANCH  23  25
HETATM   25  O1  UNL     1      28.133   5.549  11.338  1.00  0.00    -0.289 OA
ATOM     26  H1  UNL     1      27.429   6.054  11.727  1.00  0.00     0.244 HD
ENDBRANCH  23  25
ENDBRANCH  20  21
ENDBRANCH  17  20
ENDBRANCH  16  17
ENDBRANCH   1  15
BRANCH   2  27
HETATM   27  O2  UNL     1      34.995  10.648  14.586  1.00  0.00    -0.284 OA
HETATM   28  C14 UNL     1      35.878  10.942  13.536  1.00  0.00     0.237 C
ENDBRANCH   2  27
TORSDOF 12
ENDMDL