MODEL 5
REMARK VINA RESULT: -7.070097395      2.659      4.007
REMARK  13 active torsions:
REMARK  status: ('A' for Active; 'I' for Inactive)
REMARK    1  A    between atoms: C2_2  and  C4_4
REMARK    2  A    between atoms: C4_4  and  C5_5
REMARK    3  A    between atoms: C5_5  and  N1_6
REMARK    4  A    between atoms: N1_6  and  C6_8
REMARK    5  A    between atoms: C8_11  and  C9_12
REMARK    6  A    between atoms: C9_12  and  C10_13
REMARK    7  A    between atoms: C10_13  and  O1_14
REMARK    8  A    between atoms: C10_13  and  C11_16
REMARK    9  A    between atoms: C11_16  and  N2_17
REMARK   10  A    between atoms: N2_17  and  O2_19
REMARK   11  A    between atoms: N3_21  and  C13_22
REMARK   12  A    between atoms: C14_23  and  C16_26
REMARK   13  A    between atoms: C16_26  and  O3_27
ROOT
HETATM    1  C13 UNL     1      33.634   7.477  15.528  1.00  0.00     0.119 C
HETATM    2  C14 UNL     1      32.890   7.576  16.578  1.00  0.00     0.061 C
HETATM    3  C15 UNL     1      32.341   6.414  17.184  1.00  0.00     0.098 C
HETATM    4  N4  UNL     1      31.898   5.454  17.684  1.00  0.00    -0.192 NA
ENDROOT
BRANCH   2   5
HETATM    5  C16 UNL     1      32.576   8.879  17.196  1.00  0.00     0.215 C
BRANCH   5   6
HETATM    6  O3  UNL     1      31.474   8.674  18.050  1.00  0.00    -0.396 OA
ATOM      7  H3  UNL     1      31.564   9.287  18.771  1.00  0.00     0.209 HD
ENDBRANCH   5   6
ENDBRANCH   2   5
BRANCH   1   8
HETATM    8  N3  UNL     1      34.231   8.622  14.852  1.00  0.00    -0.305 N
HETATM    9  C6  UNL     1      33.538   9.237  13.901  1.00  0.00     0.151 A
HETATM   10  S1  UNL     1      34.564  10.495  13.374  1.00  0.00    -0.064 SA
HETATM   11  C7  UNL     1      35.873  10.173  14.421  1.00  0.00     0.079 A
HETATM   12  C8  UNL     1      35.436   9.091  15.132  1.00  0.00     0.027 A
BRANCH   9  13
HETATM   13  N1  UNL     1      32.322   8.927  13.471  1.00  0.00    -0.370 N
ATOM     14  H1  UNL     1      31.530   9.029  14.106  1.00  0.00     0.161 HD
BRANCH  13  15
HETATM   15  C5  UNL     1      32.093   8.457  12.152  1.00  0.00     0.122 C
BRANCH  15  16
HETATM   16  C4  UNL     1      30.936   9.207  11.552  1.00  0.00     0.023 C
BRANCH  16  17
HETATM   17  C2  UNL     1      31.335  10.350  10.661  1.00  0.00    -0.021 C
HETATM   18  C1  UNL     1      32.744  10.084  10.102  1.00  0.00     0.009 C
HETATM   19  C3  UNL     1      31.430  11.683  11.401  1.00  0.00     0.009 C
ENDBRANCH  16  17
ENDBRANCH  15  16
ENDBRANCH  13  15
ENDBRANCH   9  13
BRANCH  12  20
HETATM   20  C9  UNL     1      36.361   8.500  16.200  1.00  0.00     0.091 C
BRANCH  20  21
HETATM   21  C10 UNL     1      36.462   9.427  17.389  1.00  0.00     0.139 C
BRANCH  21  22
HETATM   22  O1  UNL     1      37.770   9.894  17.479  1.00  0.00    -0.394 OA
ATOM     23  H1  UNL     1      37.785  10.806  17.214  1.00  0.00     0.210 HD
ENDBRANCH  21  22
BRANCH  21  24
HETATM   24  C11 UNL     1      36.031   8.810  18.673  1.00  0.00     0.151 C
BRANCH  24  25
HETATM   25  N2  UNL     1      36.569   7.452  18.789  1.00  0.00    -0.201 NA
HETATM   26  C12 UNL     1      35.930   6.839  19.964  1.00  0.00     0.143 C
BRANCH  25  27
HETATM   27  O2  UNL     1      37.881   7.449  19.022  1.00  0.00    -0.313 OA
ATOM     28  H2  UNL     1      38.146   6.718  19.569  1.00  0.00     0.237 HD
ENDBRANCH  25  27
ENDBRANCH  24  25
ENDBRANCH  21  24
ENDBRANCH  20  21
ENDBRANCH  12  20
ENDBRANCH   1   8
TORSDOF 13
ENDMDL