MODEL 2
REMARK VINA RESULT: -7.466674539      0.966      1.122
REMARK  13 active torsions:
REMARK  status: ('A' for Active; 'I' for Inactive)
REMARK    1  A    between atoms: C2_2  and  C3_3
REMARK    2  A    between atoms: C3_3  and  C4_4
REMARK    3  A    between atoms: C4_4  and  C5_5
REMARK    4  A    between atoms: C5_5  and  N1_6
REMARK    5  A    between atoms: N1_6  and  C6_8
REMARK    6  A    between atoms: C7_11  and  N3_12
REMARK    7  A    between atoms: C9_18  and  N5_19
REMARK    8  A    between atoms: C10_24  and  N7_25
REMARK    9  A    between atoms: N8_28  and  C11_29
REMARK   10  A    between atoms: C12_31  and  C13_32
REMARK   11  A    between atoms: C13_32  and  N9_33
REMARK   12  A    between atoms: C15_37  and  O2_38
REMARK   13  A    between atoms: C16_40  and  O3_41
ROOT
HETATM    1  C6  UNL     1      43.084  30.348  20.627  1.00  0.00     0.147 A
HETATM    2  N2  UNL     1      44.280  30.737  21.127  1.00  0.00    -0.175 N
ATOM      3  H2  UNL     1      44.316  31.146  22.060  1.00  0.00     0.186 HD
HETATM    4  C7  UNL     1      45.417  30.602  20.435  1.00  0.00     0.678 A
HETATM    5  N4  UNL     1      45.351  30.059  19.204  1.00  0.00    -0.186 N
ATOM      6  H4  UNL     1      46.204  29.945  18.657  1.00  0.00     0.184 HD
HETATM    7  C8  UNL     1      44.153  29.659  18.680  1.00  0.00     0.124 A
HETATM    8  C9  UNL     1      44.106  29.108  17.422  1.00  0.00     0.144 A
HETATM    9  N6  UNL     1      42.926  28.741  16.965  1.00  0.00    -0.174 N
ATOM     10  H6  UNL     1      42.869  28.331  16.033  1.00  0.00     0.186 HD
HETATM   11  C10 UNL     1      41.801  28.884  17.672  1.00  0.00     0.686 A
HETATM   12  N8  UNL     1      41.743  29.426  18.943  1.00  0.00    -0.122 N
HETATM   13  C17 UNL     1      42.967  29.795  19.389  1.00  0.00     0.134 A
ENDROOT
BRANCH  12  14
HETATM   14  C11 UNL     1      40.536  29.562  19.650  1.00  0.00     0.174 C
HETATM   15  O1  UNL     1      40.064  28.638  20.566  1.00  0.00    -0.326 OA
HETATM   16  C12 UNL     1      38.703  28.866  20.648  1.00  0.00     0.187 C
HETATM   17  C15 UNL     1      38.393  30.232  20.145  1.00  0.00     0.186 C
HETATM   18  C16 UNL     1      39.724  30.798  19.610  1.00  0.00     0.225 C
BRANCH  16  19
HETATM   19  C13 UNL     1      37.887  27.769  20.020  1.00  0.00     0.266 C
BRANCH  19  20
HETATM   20  N9  UNL     1      36.552  28.221  19.690  1.00  0.00    -0.076 N
HETATM   21  C14 UNL     1      35.662  27.802  20.778  1.00  0.00     0.267 C
ATOM     22  H92 UNL     1      36.507  29.223  19.503  1.00  0.00     0.276 HD
ATOM     23  H91 UNL     1      36.239  27.900  18.774  1.00  0.00     0.276 HD
ENDBRANCH  19  20
ENDBRANCH  16  19
BRANCH  17  24
HETATM   24  O2  UNL     1      37.845  31.065  21.112  1.00  0.00    -0.390 OA
ATOM     25  H2  UNL     1      37.867  30.693  21.987  1.00  0.00     0.210 HD
ENDBRANCH  17  24
BRANCH  18  26
HETATM   26  O3  UNL     1      39.513  31.293  18.296  1.00  0.00    -0.385 OA
ATOM     27  H3  UNL     1      38.721  30.960  17.889  1.00  0.00     0.210 HD
ENDBRANCH  18  26
ENDBRANCH  12  14
BRANCH  11  28
HETATM   28  N7  UNL     1      40.758  28.476  17.081  1.00  0.00    -0.234 N
ATOM     29  H72 UNL     1      40.022  29.123  16.794  1.00  0.00     0.174 HD
ATOM     30  H71 UNL     1      40.729  27.469  16.927  1.00  0.00     0.174 HD
ENDBRANCH  11  28
BRANCH   1  31
HETATM   31  N1  UNL     1      42.105  30.528  21.357  1.00  0.00    -0.374 N
ATOM     32  H1  UNL     1      41.257  30.059  21.038  1.00  0.00     0.161 HD
BRANCH  31  33
HETATM   33  C5  UNL     1      41.943  31.273  22.565  1.00  0.00     0.121 C
BRANCH  33  34
HETATM   34  C4  UNL     1      41.163  32.551  22.352  1.00  0.00     0.020 C
BRANCH  34  35
HETATM   35  C3  UNL     1      42.143  33.706  22.359  1.00  0.00     0.001 C
BRANCH  35  36
HETATM   36  C2  UNL     1      41.468  35.017  22.666  1.00  0.00    -0.004 C
HETATM   37  C1  UNL     1      39.983  34.816  22.713  1.00  0.00     0.005 C
ENDBRANCH  35  36
ENDBRANCH  34  35
ENDBRANCH  33  34
ENDBRANCH  31  33
ENDBRANCH   1  31
BRANCH   8  38
HETATM   38  N5  UNL     1      45.180  28.955  16.711  1.00  0.00    -0.383 N
ATOM     39  H52 UNL     1      46.074  28.727  17.146  1.00  0.00     0.157 HD
ATOM     40  H51 UNL     1      45.164  29.058  15.696  1.00  0.00     0.157 HD
ENDBRANCH   8  38
BRANCH   4  41
HETATM   41  N3  UNL     1      46.563  30.960  20.879  1.00  0.00    -0.234 N
ATOM     42  H32 UNL     1      47.109  31.624  20.331  1.00  0.00     0.174 HD
ATOM     43  H31 UNL     1      46.961  30.616  21.754  1.00  0.00     0.174 HD
ENDBRANCH   4  41
TORSDOF 13
ENDMDL