MODEL 3
REMARK VINA RESULT: -8.286167609      3.223      5.643
REMARK  11 active torsions:
REMARK  status: ('A' for Active; 'I' for Inactive)
REMARK       I    between atoms: C1_4  and  N3_6
REMARK    1  A    between atoms: N3_6  and  C2_8
REMARK    2  A    between atoms: C5_11  and  N4_12
REMARK    3  A    between atoms: C6_16  and  O1_17
REMARK    4  A    between atoms: O1_17  and  C7_18
REMARK    5  A    between atoms: C7_18  and  C8_19
REMARK    6  A    between atoms: C7_18  and  C9_22
REMARK    7  A    between atoms: C8_19  and  O2_20
REMARK    8  A    between atoms: C9_22  and  S1_23
REMARK    9  A    between atoms: S1_23  and  C10_24
REMARK   10  A    between atoms: C12_28  and  N6_29
REMARK   11  A    between atoms: C13_34  and  N8_35
ROOT
HETATM    1  C7  UNL     1      42.327  28.493  18.840  1.00  0.00     0.155 C
ENDROOT
BRANCH   1   2
HETATM    2  O1  UNL     1      41.551  28.523  19.957  1.00  0.00    -0.376 OA
BRANCH   2   3
HETATM    3  C6  UNL     1      40.411  29.289  19.909  1.00  0.00     0.154 C
HETATM    4  C5  UNL     1      39.208  28.468  20.235  1.00  0.00     0.212 C
HETATM    5  C4  UNL     1      37.919  29.251  20.045  1.00  0.00     0.037 C
HETATM    6  C3  UNL     1      38.262  30.727  20.108  1.00  0.00     0.027 C
HETATM    7  C2  UNL     1      39.151  30.973  21.277  1.00  0.00     0.086 C
HETATM    8  C15 UNL     1      40.514  30.377  21.029  1.00  0.00     0.059 C
BRANCH   4   9
HETATM    9  N4  UNL     1      39.136  27.259  19.497  1.00  0.00    -0.073 N
ATOM     10  H43 UNL     1      38.958  27.421  18.506  1.00  0.00     0.274 HD
ATOM     11  H42 UNL     1      40.045  26.807  19.408  1.00  0.00     0.274 HD
ATOM     12  H41 UNL     1      38.439  26.646  19.919  1.00  0.00     0.274 HD
ENDBRANCH   4   9
BRANCH   7  13
HETATM   13  N3  UNL     1      39.274  32.375  21.569  1.00  0.00    -0.360 N
HETATM   14  C1  UNL     1      38.364  33.130  22.329  1.00  0.00     0.182 C
HETATM   15  N1  UNL     1      38.878  34.104  23.042  1.00  0.00    -0.374 N
HETATM   16  N2  UNL     1      36.965  32.949  22.408  1.00  0.00    -0.064 NA
ATOM     17  H12 UNL     1      38.218  34.652  23.594  1.00  0.00     0.158 HD
ATOM     18  H11 UNL     1      39.888  34.234  22.985  1.00  0.00     0.158 HD
ATOM     19  H3  UNL     1      40.088  32.862  21.193  1.00  0.00     0.162 HD
ENDBRANCH   7  13
ENDBRANCH   2   3
ENDBRANCH   1   2
BRANCH   1  20
HETATM   20  C8  UNL     1      43.728  28.950  18.867  1.00  0.00     0.196 C
BRANCH  20  21
HETATM   21  O2  UNL     1      44.657  27.939  19.222  1.00  0.00    -0.398 OA
ATOM     22  H2  UNL     1      45.142  27.586  18.486  1.00  0.00     0.209 HD
ENDBRANCH  20  21
ENDBRANCH   1  20
BRANCH   1  23
HETATM   23  C9  UNL     1      41.567  29.107  17.693  1.00  0.00     0.117 C
BRANCH  23  24
HETATM   24  S1  UNL     1      42.603  29.626  16.366  1.00  0.00    -0.084 SA
BRANCH  24  25
HETATM   25  C10 UNL     1      42.699  28.720  14.900  1.00  0.00     0.189 A
HETATM   26  N5  UNL     1      41.975  27.647  14.519  1.00  0.00    -0.324 N
HETATM   27  C11 UNL     1      42.347  27.224  13.304  1.00  0.00     0.131 A
ATOM     28  H5  UNL     1      41.242  27.216  15.081  1.00  0.00     0.169 HD
HETATM   29  C12 UNL     1      41.954  26.202  12.463  1.00  0.00     0.146 A
HETATM   30  C14 UNL     1      43.355  28.091  12.929  1.00  0.00     0.196 A
HETATM   31  N7  UNL     1      42.530  26.018  11.262  1.00  0.00    -0.175 N
HETATM   32  C13 UNL     1      43.525  26.876  10.896  1.00  0.00     0.679 A
ATOM     33  H7  UNL     1      42.233  25.262  10.645  1.00  0.00     0.186 HD
HETATM   34  N9  UNL     1      43.913  27.873  11.710  1.00  0.00    -0.168 N
ATOM     35  H9  UNL     1      44.661  28.492  11.399  1.00  0.00     0.186 HD
HETATM   36  O3  UNL     1      43.521  28.938  13.888  1.00  0.00    -0.268 OA
BRANCH  29  37
HETATM   37  N6  UNL     1      41.010  25.428  12.870  1.00  0.00    -0.383 N
ATOM     38  H62 UNL     1      40.197  25.804  13.357  1.00  0.00     0.157 HD
ATOM     39  H61 UNL     1      41.110  24.430  12.689  1.00  0.00     0.157 HD
ENDBRANCH  29  37
BRANCH  32  40
HETATM   40  N8  UNL     1      44.091  26.710   9.738  1.00  0.00    -0.234 N
ATOM     41  H82 UNL     1      44.197  25.777   9.341  1.00  0.00     0.174 HD
ATOM     42  H81 UNL     1      44.426  27.534   9.238  1.00  0.00     0.174 HD
ENDBRANCH  32  40
ENDBRANCH  24  25
ENDBRANCH  23  24
ENDBRANCH   1  23
TORSDOF 11
ENDMDL