MODEL 3
REMARK VINA RESULT: -6.911665817      1.265      2.088
REMARK  11 active torsions:
REMARK  status: ('A' for Active; 'I' for Inactive)
REMARK    1  A    between atoms: S1_2  and  C2_3
REMARK    2  A    between atoms: C2_3  and  C3_4
REMARK    3  A    between atoms: C5_6  and  N1_7
REMARK       I    between atoms: N1_7  and  C6_9
REMARK    4  A    between atoms: C7_14  and  N4_15
REMARK    5  A    between atoms: C8_16  and  N5_17
REMARK    6  A    between atoms: C9_22  and  C10_23
REMARK    7  A    between atoms: C10_23  and  O1_24
REMARK    8  A    between atoms: O1_24  and  C11_25
REMARK    9  A    between atoms: C11_25  and  C12_26
REMARK   10  A    between atoms: C12_26  and  O2_27
REMARK   11  A    between atoms: C16_36  and  N9_37
ROOT
HETATM    1  C3  UNL     1      37.895  28.989  22.587  1.00  0.00     0.031 C
HETATM    2  C4  UNL     1      38.813  30.170  22.836  1.00  0.00     0.062 C
HETATM    3  C5  UNL     1      38.613  31.251  21.791  1.00  0.00     0.013 C
HETATM    4  C7  UNL     1      38.960  30.769  20.412  1.00  0.00     0.157 C
HETATM    5  C15 UNL     1      37.931  29.649  20.240  1.00  0.00     0.065 C
HETATM    6  C16 UNL     1      38.150  28.527  21.195  1.00  0.00     0.191 C
ENDROOT
BRANCH   4   7
HETATM    7  N4  UNL     1      40.273  30.436  20.076  1.00  0.00    -0.154 N
HETATM    8  C8  UNL     1      40.623  29.823  18.927  1.00  0.00     0.680 A
HETATM    9  N6  UNL     1      41.872  29.471  18.588  1.00  0.00    -0.191 N
HETATM   10  C9  UNL     1      42.929  29.696  19.377  1.00  0.00     0.082 A
ATOM     11  H6  UNL     1      42.022  29.012  17.689  1.00  0.00     0.184 HD
HETATM   12  C13 UNL     1      42.604  30.325  20.567  1.00  0.00     0.119 A
HETATM   13  N7  UNL     1      43.135  30.799  21.710  1.00  0.00    -0.294 N
HETATM   14  C14 UNL     1      41.318  30.699  20.939  1.00  0.00     0.169 A
HETATM   15  N8  UNL     1      41.914  31.151  22.058  1.00  0.00    -0.282 N
ATOM     16  H7  UNL     1      44.067  30.857  22.123  1.00  0.00     0.187 HD
ATOM     17  H8  UNL     1      41.547  31.611  22.891  1.00  0.00     0.188 HD
BRANCH   8  18
HETATM   18  N5  UNL     1      39.687  29.568  18.058  1.00  0.00    -0.234 N
ATOM     19  H52 UNL     1      39.406  30.336  17.448  1.00  0.00     0.174 HD
ATOM     20  H51 UNL     1      39.281  28.632  18.050  1.00  0.00     0.174 HD
ENDBRANCH   8  18
BRANCH  10  21
HETATM   21  C10 UNL     1      44.337  29.424  19.038  1.00  0.00     0.227 C
BRANCH  21  22
HETATM   22  O1  UNL     1      45.178  30.426  19.184  1.00  0.00    -0.383 OA
BRANCH  22  23
HETATM   23  C11 UNL     1      46.208  30.537  19.993  1.00  0.00     0.194 C
BRANCH  23  24
HETATM   24  C12 UNL     1      46.210  31.150  21.332  1.00  0.00     0.190 C
BRANCH  24  25
HETATM   25  O2  UNL     1      45.873  32.536  21.135  1.00  0.00    -0.399 OA
ATOM     26  H2  UNL     1      46.055  32.970  21.960  1.00  0.00     0.209 HD
ENDBRANCH  24  25
ENDBRANCH  23  24
ENDBRANCH  22  23
ENDBRANCH  21  22
ENDBRANCH  10  21
ENDBRANCH   4   7
BRANCH   3  27
HETATM   27  N1  UNL     1      39.000  32.483  22.272  1.00  0.00    -0.336 N
HETATM   28  C6  UNL     1      38.184  33.637  22.466  1.00  0.00     0.185 C
HETATM   29  N2  UNL     1      38.695  34.849  22.381  1.00  0.00    -0.374 N
HETATM   30  N3  UNL     1      36.793  33.589  22.763  1.00  0.00    -0.064 NA
ATOM     31  H22 UNL     1      39.692  34.884  22.168  1.00  0.00     0.158 HD
ATOM     32  H21 UNL     1      38.111  35.675  22.519  1.00  0.00     0.158 HD
ATOM     33  H1  UNL     1      39.985  32.581  22.518  1.00  0.00     0.168 HD
ENDBRANCH   3  27
BRANCH   6  34
HETATM   34  N9  UNL     1      37.308  27.420  20.764  1.00  0.00    -0.075 N
ATOM     35  H93 UNL     1      37.725  26.529  21.035  1.00  0.00     0.274 HD
ATOM     36  H92 UNL     1      36.453  27.388  21.319  1.00  0.00     0.274 HD
ATOM     37  H91 UNL     1      37.088  27.421  19.769  1.00  0.00     0.274 HD
ENDBRANCH   6  34
BRANCH   1  38
HETATM   38  C2  UNL     1      36.503  29.231  23.011  1.00  0.00     0.080 C
BRANCH  38  39
HETATM   39  S1  UNL     1      36.455  30.110  24.586  1.00  0.00    -0.173 SA
HETATM   40  C1  UNL     1      37.475  29.290  25.814  1.00  0.00     0.089 C
ENDBRANCH  38  39
ENDBRANCH   1  38
TORSDOF 11
ENDMDL