MODEL 3
REMARK VINA RESULT: -8.306404150      1.984      3.045
REMARK  12 active torsions:
REMARK  status: ('A' for Active; 'I' for Inactive)
REMARK    1  A    between atoms: N1_1  and  C1_4
REMARK    2  A    between atoms: C2_7  and  N3_8
REMARK    3  A    between atoms: C6_16  and  N6_17
REMARK    4  A    between atoms: N6_17  and  N7_18
REMARK    5  A    between atoms: N6_17  and  C7_21
REMARK    6  A    between atoms: C7_21  and  C8_22
REMARK    7  A    between atoms: C8_22  and  N8_23
REMARK    8  A    between atoms: N8_23  and  C9_24
REMARK    9  A    between atoms: N8_23  and  C11_30
REMARK   10  A    between atoms: C9_24  and  C10_25
REMARK   11  A    between atoms: C10_25  and  N9_26
REMARK   12  A    between atoms: C14_33  and  O1_34
ROOT
HETATM    1  C1  UNL     1      43.106  28.791  15.316  1.00  0.00     0.679 A
HETATM    2  N2  UNL     1      44.265  28.881  15.988  1.00  0.00    -0.176 N
ATOM      3  H2  UNL     1      45.151  28.744  15.500  1.00  0.00     0.186 HD
HETATM    4  C2  UNL     1      44.257  29.152  17.310  1.00  0.00     0.130 A
HETATM    5  C3  UNL     1      43.057  29.335  17.968  1.00  0.00     0.079 A
HETATM    6  C4  UNL     1      42.966  29.611  19.313  1.00  0.00     0.092 A
HETATM    7  N4  UNL     1      44.194  29.709  20.030  1.00  0.00    -0.099 NA
HETATM    8  C5  UNL     1      41.737  29.785  19.932  1.00  0.00     0.117 A
HETATM    9  N5  UNL     1      41.697  30.060  21.322  1.00  0.00    -0.096 NA
HETATM   10  C6  UNL     1      40.574  29.686  19.210  1.00  0.00     0.150 A
HETATM   11  N10 UNL     1      40.678  29.413  17.884  1.00  0.00    -0.325 N
ATOM     12  H10 UNL     1      39.827  29.334  17.328  1.00  0.00     0.169 HD
HETATM   13  C17 UNL     1      41.864  29.245  17.285  1.00  0.00     0.138 A
HETATM   14  N11 UNL     1      41.933  28.969  15.946  1.00  0.00    -0.176 N
ATOM     15  H11 UNL     1      41.068  28.895  15.411  1.00  0.00     0.186 HD
ENDROOT
BRANCH  10  16
HETATM   16  N6  UNL     1      39.266  29.851  19.792  1.00  0.00    -0.280 N
BRANCH  16  17
HETATM   17  N7  UNL     1      38.724  28.700  20.368  1.00  0.00    -0.341 N
ATOM     18  H72 UNL     1      38.253  28.003  19.792  1.00  0.00     0.177 HD
ATOM     19  H71 UNL     1      38.839  28.627  21.379  1.00  0.00     0.177 HD
ENDBRANCH  16  17
BRANCH  16  20
HETATM   20  C7  UNL     1      38.536  31.089  19.805  1.00  0.00     0.180 C
BRANCH  20  21
HETATM   21  C8  UNL     1      37.879  31.395  21.117  1.00  0.00     0.294 C
BRANCH  21  22
HETATM   22  N8  UNL     1      38.826  31.504  22.223  1.00  0.00     0.096 N
BRANCH  22  23
HETATM   23  C9  UNL     1      38.745  32.821  22.825  1.00  0.00     0.300 C
BRANCH  23  24
HETATM   24  C10 UNL     1      37.598  33.652  22.378  1.00  0.00     0.259 C
BRANCH  24  25
HETATM   25  N9  UNL     1      36.718  33.947  23.524  1.00  0.00    -0.078 N
ATOM     26  H93 UNL     1      37.200  33.838  24.416  1.00  0.00     0.274 HD
ATOM     27  H92 UNL     1      36.500  34.941  23.594  1.00  0.00     0.274 HD
ATOM     28  H91 UNL     1      35.877  33.373  23.471  1.00  0.00     0.274 HD
ENDBRANCH  24  25
ENDBRANCH  23  24
ENDBRANCH  22  23
BRANCH  22  29
HETATM   29  C11 UNL     1      38.514  30.486  23.226  1.00  0.00     0.223 C
HETATM   30  C12 UNL     1      38.799  31.003  24.619  1.00  0.00     0.038 C
HETATM   31  C13 UNL     1      38.151  30.180  25.677  1.00  0.00     0.034 C
HETATM   32  C14 UNL     1      37.565  28.890  25.145  1.00  0.00     0.118 C
HETATM   33  C15 UNL     1      36.532  29.173  24.102  1.00  0.00     0.034 C
HETATM   34  C16 UNL     1      37.036  30.214  23.127  1.00  0.00     0.038 C
BRANCH  32  35
HETATM   35  O1  UNL     1      36.944  28.253  26.218  1.00  0.00    -0.396 OA
ATOM     36  H1  UNL     1      37.549  27.593  26.536  1.00  0.00     0.210 HD
ENDBRANCH  32  35
ENDBRANCH  22  29
ENDBRANCH  21  22
ENDBRANCH  20  21
ENDBRANCH  16  20
ENDBRANCH  10  16
BRANCH   4  37
HETATM   37  N3  UNL     1      45.359  29.243  17.975  1.00  0.00    -0.384 N
ATOM     38  H32 UNL     1      46.208  28.831  17.587  1.00  0.00     0.157 HD
ATOM     39  H31 UNL     1      45.389  29.719  18.876  1.00  0.00     0.157 HD
ENDBRANCH   4  37
BRANCH   1  40
HETATM   40  N1  UNL     1      43.108  28.531  14.049  1.00  0.00    -0.234 N
ATOM     41  H12 UNL     1      42.688  29.200  13.403  1.00  0.00     0.174 HD
ATOM     42  H11 UNL     1      43.523  27.665  13.704  1.00  0.00     0.174 HD
ENDBRANCH   1  40
TORSDOF 12
ENDMDL