MODEL 4
REMARK VINA RESULT: -7.445994738      3.045      6.153
REMARK  16 active torsions:
REMARK  status: ('A' for Active; 'I' for Inactive)
REMARK    1  A    between atoms: C2_2  and  C3_3
REMARK    2  A    between atoms: C3_3  and  O1_4
REMARK    3  A    between atoms: C3_3  and  O2_6
REMARK    4  A    between atoms: C3_3  and  C4_8
REMARK    5  A    between atoms: C5_9  and  C6_10
REMARK    6  A    between atoms: C7_11  and  O3_12
REMARK    7  A    between atoms: C8_14  and  N1_15
REMARK    8  A    between atoms: C9_19  and  O4_20
REMARK    9  A    between atoms: C10_22  and  O5_23
REMARK   10  A    between atoms: C11_25  and  N2_26
REMARK   11  A    between atoms: N2_26  and  C12_28
REMARK   12  A    between atoms: C12_28  and  O6_29
REMARK   13  A    between atoms: C12_28  and  C13_31
REMARK   14  A    between atoms: C13_31  and  N3_32
REMARK   15  A    between atoms: C13_31  and  C14_36
REMARK   16  A    between atoms: C14_36  and  C15_37
ROOT
HETATM    1  C6  UNL     1      41.375  29.237  18.445  1.00  0.00     0.064 C
HETATM    2  C7  UNL     1      41.351  29.598  16.938  1.00  0.00     0.161 C
HETATM    3  C8  UNL     1      42.536  28.870  16.361  1.00  0.00     0.243 C
HETATM    4  C9  UNL     1      43.762  29.425  16.986  1.00  0.00     0.181 C
HETATM    5  C10 UNL     1      43.775  29.545  18.461  1.00  0.00     0.172 C
HETATM    6  C11 UNL     1      42.479  30.011  19.068  1.00  0.00     0.120 C
ENDROOT
BRANCH   6   7
HETATM    7  N2  UNL     1      42.453  29.859  20.498  1.00  0.00    -0.388 N
ATOM      8  H2  UNL     1      42.291  28.937  20.904  1.00  0.00     0.156 HD
BRANCH   7   9
HETATM    9  C12 UNL     1      42.644  30.953  21.338  1.00  0.00     0.244 C
BRANCH   9  10
HETATM   10  O6  UNL     1      42.109  32.168  20.815  1.00  0.00    -0.375 OA
ATOM     11  H6  UNL     1      41.608  32.664  21.452  1.00  0.00     0.212 HD
ENDBRANCH   9  10
BRANCH   9  12
HETATM   12  C13 UNL     1      41.880  30.795  22.671  1.00  0.00     0.231 C
BRANCH  12  13
HETATM   13  N3  UNL     1      42.761  30.575  23.758  1.00  0.00    -0.071 N
ATOM     14  H33 UNL     1      43.667  30.234  23.439  1.00  0.00     0.274 HD
ATOM     15  H32 UNL     1      43.061  31.455  24.178  1.00  0.00     0.274 HD
ATOM     16  H31 UNL     1      42.354  29.951  24.454  1.00  0.00     0.274 HD
ENDBRANCH  12  13
BRANCH  12  17
HETATM   17  C14 UNL     1      40.946  31.932  22.935  1.00  0.00     0.042 C
BRANCH  17  18
HETATM   18  C15 UNL     1      39.552  31.474  23.166  1.00  0.00    -0.012 C
HETATM   19  C16 UNL     1      39.329  30.450  24.221  1.00  0.00     0.005 C
HETATM   20  C17 UNL     1      38.027  30.675  24.980  1.00  0.00     0.000 C
HETATM   21  C18 UNL     1      36.887  31.108  24.125  1.00  0.00     0.000 C
HETATM   22  C19 UNL     1      37.217  32.113  23.068  1.00  0.00     0.000 C
HETATM   23  C20 UNL     1      38.610  32.666  23.385  1.00  0.00     0.005 C
ENDBRANCH  17  18
ENDBRANCH  12  17
ENDBRANCH   9  12
ENDBRANCH   7   9
ENDBRANCH   6   7
BRANCH   1  24
HETATM   24  C5  UNL     1      40.015  29.459  18.978  1.00  0.00    -0.016 C
HETATM   25  C4  UNL     1      39.225  28.697  19.641  1.00  0.00     0.041 C
BRANCH  25  26
HETATM   26  C3  UNL     1      37.882  29.172  20.064  1.00  0.00     0.198 C
BRANCH  26  27
HETATM   27  C2  UNL     1      37.687  28.731  21.489  1.00  0.00     0.035 C
HETATM   28  C1  UNL     1      37.547  27.458  21.809  1.00  0.00     0.013 C
ENDBRANCH  26  27
BRANCH  26  29
HETATM   29  O1  UNL     1      36.853  28.595  19.318  1.00  0.00    -0.359 OA
ATOM     30  H1  UNL     1      36.096  29.162  19.407  1.00  0.00     0.213 HD
ENDBRANCH  26  29
BRANCH  26  31
HETATM   31  O2  UNL     1      37.799  30.560  19.970  1.00  0.00    -0.359 OA
ATOM     32  H2  UNL     1      36.942  30.819  19.653  1.00  0.00     0.213 HD
ENDBRANCH  26  31
ENDBRANCH  25  26
ENDBRANCH   1  24
BRANCH   5  33
HETATM   33  O5  UNL     1      44.842  30.392  18.774  1.00  0.00    -0.391 OA
ATOM     34  H5  UNL     1      45.095  30.184  19.666  1.00  0.00     0.210 HD
ENDBRANCH   5  33
BRANCH   2  35
HETATM   35  O3  UNL     1      40.144  29.251  16.374  1.00  0.00    -0.393 OA
ATOM     36  H3  UNL     1      40.042  29.659  15.522  1.00  0.00     0.210 HD
ENDBRANCH   2  35
BRANCH   4  37
HETATM   37  O4  UNL     1      44.833  28.575  16.618  1.00  0.00    -0.391 OA
ATOM     38  H4  UNL     1      44.828  28.519  15.670  1.00  0.00     0.210 HD
ENDBRANCH   4  37
BRANCH   3  39
HETATM   39  N1  UNL     1      42.392  27.464  16.584  1.00  0.00    -0.070 N
ATOM     40  H13 UNL     1      43.292  26.997  16.693  1.00  0.00     0.274 HD
ATOM     41  H12 UNL     1      42.008  27.259  17.507  1.00  0.00     0.274 HD
ATOM     42  H11 UNL     1      41.834  27.053  15.835  1.00  0.00     0.274 HD
ENDBRANCH   3  39
TORSDOF 16
ENDMDL