MODEL 1
REMARK VINA RESULT: -7.770286115      0.000      0.000
REMARK  12 active torsions:
REMARK  status: ('A' for Active; 'I' for Inactive)
REMARK    1  A    between atoms: O1_2  and  C2_3
REMARK    2  A    between atoms: C2_3  and  C3_4
REMARK    3  A    between atoms: C3_4  and  N1_5
REMARK    4  A    between atoms: N1_5  and  C4_7
REMARK    5  A    between atoms: C5_10  and  N3_11
REMARK    6  A    between atoms: C7_17  and  C8_18
REMARK    7  A    between atoms: C8_18  and  C9_19
REMARK    8  A    between atoms: C9_19  and  N5_20
REMARK    9  A    between atoms: N5_20  and  C10_22
REMARK   10  A    between atoms: C15_31  and  C16_32
REMARK   11  A    between atoms: C16_32  and  N8_33
REMARK   12  A    between atoms: C16_32  and  N9_37
ROOT
HETATM    1  C4  UNL     1      39.868  32.282  21.840  1.00  0.00     0.135 A
HETATM    2  N2  UNL     1      38.910  32.775  22.646  1.00  0.00    -0.176 N
ATOM      3  H2  UNL     1      39.148  33.551  23.263  1.00  0.00     0.186 HD
HETATM    4  C5  UNL     1      37.637  32.288  22.679  1.00  0.00     0.677 A
HETATM    5  N4  UNL     1      37.259  31.272  21.898  1.00  0.00    -0.191 N
ATOM      6  H4  UNL     1      36.306  30.910  21.926  1.00  0.00     0.184 HD
HETATM    7  C6  UNL     1      38.197  30.739  21.063  1.00  0.00     0.071 A
HETATM    8  C7  UNL     1      37.857  29.678  20.231  1.00  0.00    -0.028 A
HETATM    9  C14 UNL     1      38.798  29.125  19.387  1.00  0.00     0.022 A
HETATM   10  C15 UNL     1      40.093  29.594  19.331  1.00  0.00     0.025 A
HETATM   11  C17 UNL     1      40.433  30.645  20.152  1.00  0.00     0.072 A
HETATM   12  N10 UNL     1      41.738  31.145  20.118  1.00  0.00    -0.101 NA
HETATM   13  C18 UNL     1      39.479  31.204  21.007  1.00  0.00     0.061 A
ENDROOT
BRANCH   8  14
HETATM   14  C8  UNL     1      36.454  29.191  20.264  1.00  0.00     0.061 C
BRANCH  14  15
HETATM   15  C9  UNL     1      36.392  27.768  20.811  1.00  0.00     0.142 C
BRANCH  15  16
HETATM   16  N5  UNL     1      35.729  27.750  22.095  1.00  0.00    -0.226 N
ATOM     17  H5  UNL     1      34.775  27.395  22.160  1.00  0.00     0.177 HD
BRANCH  16  18
HETATM   18  C10 UNL     1      36.390  28.223  23.281  1.00  0.00     0.669 C
HETATM   19  N6  UNL     1      37.663  28.114  23.424  1.00  0.00    -0.227 N
HETATM   20  C11 UNL     1      38.325  28.585  24.607  1.00  0.00     0.139 C
ATOM     21  H6  UNL     1      38.214  27.684  22.681  1.00  0.00     0.177 HD
HETATM   22  C12 UNL     1      37.681  29.731  25.304  1.00  0.00     0.040 C
HETATM   23  C13 UNL     1      36.210  29.879  25.092  1.00  0.00     0.139 C
HETATM   24  N7  UNL     1      35.638  28.820  24.307  1.00  0.00    -0.227 N
ATOM     25  H7  UNL     1      34.687  28.503  24.495  1.00  0.00     0.177 HD
ENDBRANCH  16  18
ENDBRANCH  15  16
ENDBRANCH  14  15
ENDBRANCH   8  14
BRANCH  10  26
HETATM   26  C16 UNL     1      41.125  29.025  18.439  1.00  0.00     0.413 C
BRANCH  26  27
HETATM   27  N8  UNL     1      40.568  28.212  17.397  1.00  0.00    -0.046 N
ATOM     28  H83 UNL     1      39.629  27.899  17.639  1.00  0.00     0.277 HD
ATOM     29  H82 UNL     1      40.347  28.773  16.573  1.00  0.00     0.277 HD
ATOM     30  H81 UNL     1      41.165  27.423  17.152  1.00  0.00     0.277 HD
ENDBRANCH  26  27
BRANCH  26  31
HETATM   31  N9  UNL     1      42.183  28.363  19.169  1.00  0.00    -0.046 N
ATOM     32  H93 UNL     1      42.568  28.972  19.891  1.00  0.00     0.277 HD
ATOM     33  H92 UNL     1      41.811  27.622  19.762  1.00  0.00     0.277 HD
ATOM     34  H91 UNL     1      42.917  28.009  18.556  1.00  0.00     0.277 HD
ENDBRANCH  26  31
ENDBRANCH  10  26
BRANCH   4  35
HETATM   35  N3  UNL     1      36.801  32.844  23.496  1.00  0.00    -0.234 N
ATOM     36  H32 UNL     1      35.991  33.357  23.146  1.00  0.00     0.174 HD
ATOM     37  H31 UNL     1      36.981  32.750  24.495  1.00  0.00     0.174 HD
ENDBRANCH   4  35
BRANCH   1  38
HETATM   38  N1  UNL     1      41.042  32.657  21.734  1.00  0.00    -0.353 N
ATOM     39  H1  UNL     1      41.428  32.282  20.867  1.00  0.00     0.166 HD
BRANCH  38  40
HETATM   40  C3  UNL     1      42.013  33.395  22.362  1.00  0.00     0.088 C
BRANCH  40  41
HETATM   41  C2  UNL     1      42.033  34.883  22.252  1.00  0.00     0.211 C
BRANCH  41  42
HETATM   42  O1  UNL     1      40.692  35.308  22.440  1.00  0.00    -0.391 OA
HETATM   43  C1  UNL     1      40.567  35.861  23.714  1.00  0.00     0.201 C
ENDBRANCH  41  42
ENDBRANCH  40  41
ENDBRANCH  38  40
ENDBRANCH   1  38
TORSDOF 12
ENDMDL