MODEL 4
REMARK VINA RESULT: -7.990630355      2.244      6.856
REMARK  12 active torsions:
REMARK  status: ('A' for Active; 'I' for Inactive)
REMARK    1  A    between atoms: C3_5  and  N2_6
REMARK    2  A    between atoms: N2_6  and  C4_8
REMARK    3  A    between atoms: C4_8  and  C5_9
REMARK    4  A    between atoms: C5_9  and  N3_10
REMARK    5  A    between atoms: N3_10  and  C6_12
REMARK    6  A    between atoms: C6_12  and  C7_13
REMARK    7  A    between atoms: C7_13  and  C8_14
REMARK    8  A    between atoms: C8_14  and  N4_15
REMARK    9  A    between atoms: N4_15  and  C9_17
REMARK   10  A    between atoms: C11_21  and  N6_22
REMARK   11  A    between atoms: C12_27  and  N8_28
REMARK   12  A    between atoms: C15_41  and  O1_42
ROOT
HETATM    1  C7  UNL     1      35.968  27.778  21.944  1.00  0.00     0.039 C
ENDROOT
BRANCH   1   2
HETATM    2  C6  UNL     1      36.376  27.675  20.509  1.00  0.00     0.115 C
BRANCH   2   3
HETATM    3  N3  UNL     1      36.593  28.942  19.861  1.00  0.00    -0.420 N
ATOM      4  H3  UNL     1      35.828  29.500  19.480  1.00  0.00     0.153 HD
BRANCH   3   5
HETATM    5  C5  UNL     1      37.951  29.360  19.793  1.00  0.00     0.134 C
BRANCH   5   6
HETATM    6  C4  UNL     1      38.893  28.151  19.707  1.00  0.00     0.157 C
BRANCH   6   7
HETATM    7  N2  UNL     1      39.538  28.213  18.430  1.00  0.00    -0.225 N
ATOM      8  H2  UNL     1      38.967  27.973  17.620  1.00  0.00     0.177 HD
BRANCH   7   9
HETATM    9  C3  UNL     1      40.752  28.537  18.197  1.00  0.00     0.675 C
HETATM   10  N1  UNL     1      41.307  28.259  16.899  1.00  0.00    -0.219 N
HETATM   11  C2  UNL     1      42.258  29.229  16.417  1.00  0.00     0.131 C
ATOM     12  H1  UNL     1      41.047  27.435  16.358  1.00  0.00     0.178 HD
HETATM   13  C1  UNL     1      42.725  28.734  15.061  1.00  0.00     0.036 C
HETATM   14  C15 UNL     1      43.401  29.360  17.378  1.00  0.00     0.208 C
HETATM   15  C14 UNL     1      42.932  29.479  18.764  1.00  0.00     0.122 C
HETATM   16  N10 UNL     1      41.611  29.176  19.168  1.00  0.00    -0.179 N
HETATM   17  N11 UNL     1      43.739  29.882  19.728  1.00  0.00    -0.386 N
ATOM     18  H10 UNL     1      41.278  29.400  20.106  1.00  0.00     0.185 HD
ATOM     19 2H11 UNL     1      43.413  29.964  20.690  1.00  0.00     0.157 HD
ATOM     20 1H11 UNL     1      44.692  30.101  19.436  1.00  0.00     0.157 HD
BRANCH  14  21
HETATM   21  O1  UNL     1      44.189  30.488  17.083  1.00  0.00    -0.386 OA
ATOM     22  H1  UNL     1      44.632  30.811  17.858  1.00  0.00     0.210 HD
ENDBRANCH  14  21
ENDBRANCH   7   9
ENDBRANCH   6   7
ENDBRANCH   5   6
ENDBRANCH   3   5
ENDBRANCH   2   3
ENDBRANCH   1   2
BRANCH   1  23
HETATM   23  C8  UNL     1      37.140  28.192  22.826  1.00  0.00     0.123 C
BRANCH  23  24
HETATM   24  N4  UNL     1      36.777  29.377  23.572  1.00  0.00    -0.370 N
ATOM     25  H4  UNL     1      35.994  29.364  24.224  1.00  0.00     0.161 HD
BRANCH  24  26
HETATM   26  C9  UNL     1      37.482  30.470  23.387  1.00  0.00     0.147 A
HETATM   27  N5  UNL     1      36.989  31.692  23.224  1.00  0.00    -0.331 N
HETATM   28  C10 UNL     1      37.835  32.693  23.047  1.00  0.00     0.113 A
ATOM     29  H5  UNL     1      35.982  31.855  23.234  1.00  0.00     0.168 HD
HETATM   30  C11 UNL     1      37.539  34.062  22.856  1.00  0.00     0.144 A
HETATM   31  C13 UNL     1      39.166  32.399  23.046  1.00  0.00     0.124 A
HETATM   32  N7  UNL     1      38.503  34.953  22.693  1.00  0.00    -0.175 N
HETATM   33  C12 UNL     1      39.799  34.640  22.696  1.00  0.00     0.678 A
ATOM     34  H7  UNL     1      38.241  35.930  22.559  1.00  0.00     0.186 HD
HETATM   35  N9  UNL     1      40.139  33.354  22.873  1.00  0.00    -0.183 N
ATOM     36  H9  UNL     1      41.123  33.084  22.880  1.00  0.00     0.185 HD
HETATM   37  S1  UNL     1      39.163  30.707  23.296  1.00  0.00    -0.034 SA
BRANCH  30  38
HETATM   38  N6  UNL     1      36.319  34.488  22.840  1.00  0.00    -0.383 N
ATOM     39  H62 UNL     1      36.165  35.491  22.943  1.00  0.00     0.157 HD
ATOM     40  H61 UNL     1      35.534  33.845  22.732  1.00  0.00     0.157 HD
ENDBRANCH  30  38
BRANCH  33  41
HETATM   41  N8  UNL     1      40.675  35.546  22.539  1.00  0.00    -0.234 N
ATOM     42  H82 UNL     1      41.571  35.352  22.093  1.00  0.00     0.174 HD
ATOM     43  H81 UNL     1      40.495  36.495  22.865  1.00  0.00     0.174 HD
ENDBRANCH  33  41
ENDBRANCH  24  26
ENDBRANCH  23  24
ENDBRANCH   1  23
TORSDOF 12
ENDMDL