MODEL 3
REMARK VINA RESULT: -8.177047366      1.073      1.265
REMARK  9 active torsions:
REMARK  status: ('A' for Active; 'I' for Inactive)
REMARK    1  A    between atoms: C2_2  and  N1_3
REMARK    2  A    between atoms: C2_2  and  C3_7
REMARK    3  A    between atoms: C3_7  and  N2_8
REMARK    4  A    between atoms: C3_7  and  C4_12
REMARK       I    between atoms: C4_12  and  N3_14
REMARK    5  A    between atoms: N3_14  and  C5_16
REMARK    6  A    between atoms: C5_16  and  C6_17
REMARK    7  A    between atoms: C6_17  and  C7_18
REMARK    8  A    between atoms: C7_18  and  C8_19
REMARK    9  A    between atoms: C8_19  and  C9_20
ROOT
HETATM    1  C9  UNL     1      41.552  30.558  19.681  1.00  0.00     0.192 C
HETATM    2  N4  UNL     1      40.218  30.050  19.664  1.00  0.00    -0.399 N
ATOM      3  H4  UNL     1      39.440  30.590  19.285  1.00  0.00     0.155 HD
HETATM    4  C10 UNL     1      40.037  28.750  20.206  1.00  0.00     0.143 C
HETATM    5  C11 UNL     1      38.631  28.280  19.806  1.00  0.00     0.251 C
HETATM    6  N5  UNL     1      37.931  27.702  20.907  1.00  0.00    -0.072 N
ATOM      7  H51 UNL     1      38.582  27.415  21.637  1.00  0.00     0.277 HD
ATOM      8  H52 UNL     1      37.547  26.792  20.651  1.00  0.00     0.277 HD
HETATM    9  C12 UNL     1      36.895  28.559  21.454  1.00  0.00     0.259 C
HETATM   10  C13 UNL     1      36.755  28.392  22.947  1.00  0.00     0.259 C
HETATM   11  N6  UNL     1      36.469  29.629  23.630  1.00  0.00    -0.074 N
ATOM     12  H61 UNL     1      35.483  29.704  23.879  1.00  0.00     0.277 HD
ATOM     13  H62 UNL     1      36.530  30.430  23.001  1.00  0.00     0.277 HD
HETATM   14  C14 UNL     1      37.341  29.790  24.804  1.00  0.00     0.232 C
HETATM   15  C15 UNL     1      38.760  30.007  24.368  1.00  0.00     0.027 C
HETATM   16  C16 UNL     1      39.284  31.369  24.659  1.00  0.00     0.002 C
HETATM   17  C17 UNL     1      38.848  32.434  23.718  1.00  0.00     0.002 C
HETATM   18  C18 UNL     1      39.157  32.170  22.286  1.00  0.00     0.021 C
HETATM   19  C19 UNL     1      40.601  32.206  21.935  1.00  0.00     0.139 C
HETATM   20  N7  UNL     1      41.283  30.963  22.000  1.00  0.00    -0.339 N
ATOM     21  H7  UNL     1      41.139  30.312  22.771  1.00  0.00     0.179 HD
HETATM   22  N8  UNL     1      42.142  30.684  20.973  1.00  0.00    -0.318 N
ATOM     23  H8  UNL     1      43.145  30.574  21.122  1.00  0.00     0.182 HD
ENDROOT
BRANCH   1  24
HETATM   24  C8  UNL     1      42.386  29.777  18.708  1.00  0.00     0.048 C
BRANCH  24  25
HETATM   25  C7  UNL     1      42.080  30.076  17.269  1.00  0.00     0.005 C
BRANCH  25  26
HETATM   26  C6  UNL     1      41.978  28.779  16.465  1.00  0.00     0.020 C
BRANCH  26  27
HETATM   27  C5  UNL     1      42.862  28.828  15.248  1.00  0.00     0.122 C
BRANCH  27  28
HETATM   28  N3  UNL     1      42.440  27.863  14.265  1.00  0.00    -0.359 N
HETATM   29  C4  UNL     1      42.702  27.967  12.876  1.00  0.00     0.250 C
HETATM   30  O1  UNL     1      43.345  28.954  12.457  1.00  0.00    -0.271 OA
ATOM     31  H3  UNL     1      41.917  27.050  14.591  1.00  0.00     0.162 HD
BRANCH  29  32
HETATM   32  C3  UNL     1      42.228  26.934  11.907  1.00  0.00     0.304 C
BRANCH  32  33
HETATM   33  C2  UNL     1      41.369  25.956  12.670  1.00  0.00     0.219 C
HETATM   34  C1  UNL     1      40.174  25.503  11.877  1.00  0.00     0.042 C
BRANCH  33  35
HETATM   35  N1  UNL     1      42.163  24.794  13.025  1.00  0.00    -0.073 N
ATOM     36  H13 UNL     1      43.109  24.839  12.647  1.00  0.00     0.274 HD
ATOM     37  H12 UNL     1      42.407  24.777  14.015  1.00  0.00     0.274 HD
ATOM     38  H11 UNL     1      41.665  23.954  12.732  1.00  0.00     0.274 HD
ENDBRANCH  33  35
ENDBRANCH  32  33
BRANCH  32  39
HETATM   39  N2  UNL     1      43.374  26.313  11.310  1.00  0.00    -0.064 N
ATOM     40  H23 UNL     1      43.165  25.991  10.365  1.00  0.00     0.275 HD
ATOM     41  H22 UNL     1      44.093  27.003  11.093  1.00  0.00     0.275 HD
ATOM     42  H21 UNL     1      43.752  25.556  11.880  1.00  0.00     0.275 HD
ENDBRANCH  32  39
ENDBRANCH  29  32
ENDBRANCH  27  28
ENDBRANCH  26  27
ENDBRANCH  25  26
ENDBRANCH  24  25
ENDBRANCH   1  24
TORSDOF 9
ENDMDL