MODEL 2
REMARK VINA RESULT: -7.841487993      3.250      7.074
REMARK  13 active torsions:
REMARK  status: ('A' for Active; 'I' for Inactive)
REMARK    1  A    between atoms: C2_2  and  C3_3
REMARK    2  A    between atoms: C3_3  and  C4_4
REMARK    3  A    between atoms: C4_4  and  C5_5
REMARK    4  A    between atoms: C5_5  and  C6_6
REMARK    5  A    between atoms: C6_6  and  N1_7
REMARK    6  A    between atoms: N1_7  and  C7_9
REMARK    7  A    between atoms: C8_12  and  N3_13
REMARK    8  A    between atoms: C10_17  and  N4_18
REMARK    9  A    between atoms: N8_30  and  C13_31
REMARK   10  A    between atoms: C14_33  and  C15_34
REMARK   11  A    between atoms: C15_34  and  O2_35
REMARK   12  A    between atoms: C16_37  and  O3_38
REMARK   13  A    between atoms: C17_40  and  O4_41
ROOT
HETATM    1  C7  UNL     1      39.967  30.317  20.283  1.00  0.00     0.693 A
HETATM    2  N2  UNL     1      39.548  29.497  19.344  1.00  0.00    -0.175 N
ATOM      3  H2  UNL     1      38.548  29.311  19.252  1.00  0.00     0.186 HD
HETATM    4  C8  UNL     1      40.410  28.896  18.500  1.00  0.00     0.132 A
HETATM    5  C9  UNL     1      41.758  29.176  18.660  1.00  0.00     0.098 A
HETATM    6  C10 UNL     1      42.670  28.583  17.829  1.00  0.00     0.132 A
HETATM    7  N5  UNL     1      43.985  28.845  17.978  1.00  0.00    -0.176 N
ATOM      8  H5  UNL     1      44.665  28.405  17.358  1.00  0.00     0.186 HD
HETATM    9  C11 UNL     1      44.397  29.683  18.939  1.00  0.00     0.679 A
HETATM   10  N6  UNL     1      45.654  29.951  19.102  1.00  0.00    -0.234 N
ATOM     11  H61 UNL     1      45.968  30.589  19.834  1.00  0.00     0.174 HD
ATOM     12  H62 UNL     1      46.340  29.514  18.487  1.00  0.00     0.174 HD
HETATM   13  N7  UNL     1      43.475  30.271  19.766  1.00  0.00    -0.175 N
ATOM     14  H7  UNL     1      43.808  30.905  20.492  1.00  0.00     0.186 HD
HETATM   15  C12 UNL     1      42.169  30.053  19.668  1.00  0.00     0.164 A
HETATM   16  N8  UNL     1      41.303  30.639  20.494  1.00  0.00    -0.111 N
ENDROOT
BRANCH  16  17
HETATM   17  C13 UNL     1      41.682  31.522  21.508  1.00  0.00     0.175 C
HETATM   18  O1  UNL     1      42.426  32.646  21.219  1.00  0.00    -0.326 OA
HETATM   19  C14 UNL     1      42.799  33.185  22.411  1.00  0.00     0.185 C
HETATM   20  C16 UNL     1      42.644  32.186  23.502  1.00  0.00     0.186 C
HETATM   21  C17 UNL     1      42.049  30.963  22.832  1.00  0.00     0.225 C
BRANCH  19  22
HETATM   22  C15 UNL     1      42.005  34.461  22.642  1.00  0.00     0.199 C
BRANCH  22  23
HETATM   23  O2  UNL     1      42.212  35.375  21.606  1.00  0.00    -0.398 OA
ATOM     24  H2  UNL     1      41.455  35.420  21.034  1.00  0.00     0.209 HD
ENDBRANCH  22  23
ENDBRANCH  19  22
BRANCH  20  25
HETATM   25  O3  UNL     1      41.718  32.660  24.417  1.00  0.00    -0.390 OA
ATOM     26  H3  UNL     1      41.742  32.110  25.191  1.00  0.00     0.210 HD
ENDBRANCH  20  25
BRANCH  21  27
HETATM   27  O4  UNL     1      42.925  29.940  22.920  1.00  0.00    -0.385 OA
ATOM     28  H4  UNL     1      42.690  29.148  23.387  1.00  0.00     0.210 HD
ENDBRANCH  21  27
ENDBRANCH  16  17
BRANCH   1  29
HETATM   29  N1  UNL     1      39.149  30.884  21.094  1.00  0.00    -0.205 N
ATOM     30  H1  UNL     1      39.532  31.653  21.644  1.00  0.00     0.183 HD
BRANCH  29  31
HETATM   31  C6  UNL     1      37.792  30.583  21.325  1.00  0.00     0.079 C
BRANCH  31  32
HETATM   32  C5  UNL     1      37.539  30.007  22.718  1.00  0.00     0.045 C
BRANCH  32  33
HETATM   33  C4  UNL     1      36.799  28.722  22.574  1.00  0.00     0.005 C
BRANCH  33  34
HETATM   34  C3  UNL     1      37.615  27.634  21.934  1.00  0.00     0.000 C
BRANCH  34  35
HETATM   35  C2  UNL     1      36.917  26.982  20.778  1.00  0.00    -0.005 C
HETATM   36  C1  UNL     1      35.631  27.743  20.520  1.00  0.00     0.005 C
ENDBRANCH  34  35
ENDBRANCH  33  34
ENDBRANCH  32  33
ENDBRANCH  31  32
ENDBRANCH  29  31
ENDBRANCH   1  29
BRANCH   4  37
HETATM   37  N3  UNL     1      39.988  28.095  17.588  1.00  0.00    -0.384 N
ATOM     38  H32 UNL     1      38.993  27.951  17.417  1.00  0.00     0.157 HD
ATOM     39  H31 UNL     1      40.644  27.578  17.003  1.00  0.00     0.157 HD
ENDBRANCH   4  37
BRANCH   6  40
HETATM   40  N4  UNL     1      42.226  27.785  16.912  1.00  0.00    -0.384 N
ATOM     41  H42 UNL     1      41.239  27.746  16.657  1.00  0.00     0.157 HD
ATOM     42  H41 UNL     1      42.896  27.177  16.442  1.00  0.00     0.157 HD
ENDBRANCH   6  40
TORSDOF 13
ENDMDL