MODEL 3
REMARK VINA RESULT: -7.131338126      2.260      4.608
REMARK  12 active torsions:
REMARK  status: ('A' for Active; 'I' for Inactive)
REMARK    1  A    between atoms: C5_10  and  N3_11
REMARK    2  A    between atoms: N3_11  and  C6_13
REMARK    3  A    between atoms: C6_13  and  C7_14
REMARK    4  A    between atoms: C7_14  and  N4_15
REMARK    5  A    between atoms: C8_21  and  N6_22
REMARK    6  A    between atoms: N6_22  and  C9_24
REMARK    7  A    between atoms: C9_24  and  C10_25
REMARK    8  A    between atoms: C10_25  and  C11_26
REMARK    9  A    between atoms: C11_26  and  C12_27
REMARK   10  A    between atoms: C12_27  and  N7_28
REMARK   11  A    between atoms: N7_28  and  C13_30
REMARK   12  A    between atoms: C14_35  and  N10_36
ROOT
HETATM    1  C1  UNL     1      42.995  30.458  16.980  1.00  0.00     0.035 C
HETATM    2  C2  UNL     1      42.966  29.150  17.752  1.00  0.00     0.065 C
HETATM    3  S1  UNL     1      44.461  28.939  18.748  1.00  0.00    -0.080 SA
HETATM    4  C3  UNL     1      42.778  28.040  16.764  1.00  0.00     0.147 C
HETATM    5  N1  UNL     1      41.349  28.025  16.573  1.00  0.00    -0.373 N
ATOM      6  H1  UNL     1      40.847  27.756  15.727  1.00  0.00     0.161 HD
HETATM    7  C4  UNL     1      40.781  28.461  17.801  1.00  0.00     0.128 A
HETATM    8  N2  UNL     1      39.546  28.341  18.354  1.00  0.00    -0.176 N
ATOM      9  H2  UNL     1      38.824  27.847  17.831  1.00  0.00     0.186 HD
HETATM   10  C5  UNL     1      39.234  28.843  19.559  1.00  0.00     0.681 A
HETATM   11  N5  UNL     1      40.187  29.499  20.255  1.00  0.00    -0.176 N
ATOM     12  H5  UNL     1      39.951  29.882  21.171  1.00  0.00     0.186 HD
HETATM   13  C8  UNL     1      41.434  29.666  19.788  1.00  0.00     0.128 A
HETATM   14  C15 UNL     1      41.731  29.138  18.542  1.00  0.00     0.051 A
ENDROOT
BRANCH  13  15
HETATM   15  N6  UNL     1      42.368  30.285  20.419  1.00  0.00    -0.375 N
ATOM     16  H6  UNL     1      43.275  30.475  19.992  1.00  0.00     0.161 HD
BRANCH  15  17
HETATM   17  C9  UNL     1      42.055  30.698  21.776  1.00  0.00     0.121 C
BRANCH  17  18
HETATM   18  C10 UNL     1      41.798  32.165  21.918  1.00  0.00     0.021 C
BRANCH  18  19
HETATM   19  C11 UNL     1      40.728  32.400  22.937  1.00  0.00     0.022 C
BRANCH  19  20
HETATM   20  C12 UNL     1      39.501  33.009  22.265  1.00  0.00     0.138 C
BRANCH  20  21
HETATM   21  N7  UNL     1      38.494  32.024  22.028  1.00  0.00    -0.224 N
ATOM     22  H7  UNL     1      38.336  31.743  21.060  1.00  0.00     0.177 HD
BRANCH  21  23
HETATM   23  C13 UNL     1      37.766  31.456  22.936  1.00  0.00     0.707 A
HETATM   24  N8  UNL     1      36.958  32.112  23.782  1.00  0.00    -0.117 N
HETATM   25  N9  UNL     1      36.378  31.222  24.558  1.00  0.00    -0.118 N
ATOM     26  H8  UNL     1      36.818  33.122  23.817  1.00  0.00     0.206 HD
HETATM   27  C14 UNL     1      36.796  29.992  24.230  1.00  0.00     0.705 A
ATOM     28  H9  UNL     1      35.710  31.436  25.299  1.00  0.00     0.206 HD
HETATM   29  N11 UNL     1      37.657  30.155  23.223  1.00  0.00    -0.020 N
ATOM     30  H11 UNL     1      38.154  29.403  22.746  1.00  0.00     0.203 HD
BRANCH  27  31
HETATM   31  N10 UNL     1      36.416  28.895  24.803  1.00  0.00    -0.233 N
ATOM     32 2H10 UNL     1      36.981  28.099  25.098  1.00  0.00     0.174 HD
ATOM     33 1H10 UNL     1      35.454  28.663  25.052  1.00  0.00     0.174 HD
ENDBRANCH  27  31
ENDBRANCH  21  23
ENDBRANCH  20  21
ENDBRANCH  19  20
ENDBRANCH  18  19
ENDBRANCH  17  18
ENDBRANCH  15  17
ENDBRANCH  13  15
BRANCH  10  34
HETATM   34  N3  UNL     1      37.921  28.699  20.115  1.00  0.00    -0.224 N
ATOM     35  H3  UNL     1      37.238  29.450  20.014  1.00  0.00     0.177 HD
BRANCH  34  36
HETATM   36  C6  UNL     1      37.569  27.491  20.817  1.00  0.00     0.165 C
BRANCH  36  37
HETATM   37  C7  UNL     1      36.108  27.422  21.124  1.00  0.00     0.249 C
BRANCH  37  38
HETATM   38  N4  UNL     1      35.294  28.066  20.108  1.00  0.00    -0.078 N
ATOM     39  H43 UNL     1      34.721  28.807  20.513  1.00  0.00     0.274 HD
ATOM     40  H42 UNL     1      35.868  28.628  19.480  1.00  0.00     0.274 HD
ATOM     41  H41 UNL     1      34.721  27.403  19.587  1.00  0.00     0.274 HD
ENDBRANCH  37  38
ENDBRANCH  36  37
ENDBRANCH  34  36
ENDBRANCH  10  34
TORSDOF 12
ENDMDL