MODEL 2
REMARK VINA RESULT: -7.242047343      2.398      3.497
REMARK  3 active torsions:
REMARK  status: ('A' for Active; 'I' for Inactive)
REMARK    1  A    between atoms: C2_2  and  N1_4
REMARK    2  A    between atoms: C2_2  and  C13_21
REMARK       I    between atoms: N1_4  and  C4_6
REMARK       I    between atoms: C4_6  and  N3_10
REMARK    3  A    between atoms: N3_10  and  C5_12
ROOT
HETATM    1  N1  UNL     1      22.092  42.285  23.036  1.00  0.00    -0.209 N
ATOM      2  H1  UNL     1      22.727  41.770  22.427  1.00  0.00     0.178 HD
HETATM    3  C4  UNL     1      21.761  41.680  24.266  1.00  0.00     0.673 C
HETATM    4  N2  UNL     1      20.625  41.023  24.266  1.00  0.00    -0.235 N
ATOM      5  H21 UNL     1      20.386  40.585  25.156  1.00  0.00     0.174 HD
ATOM      6  H22 UNL     1      20.023  40.980  23.444  1.00  0.00     0.174 HD
HETATM    7  N3  UNL     1      22.592  41.738  25.402  1.00  0.00    -0.192 N
ATOM      8  H3  UNL     1      23.553  41.405  25.319  1.00  0.00     0.184 HD
ENDROOT
BRANCH   1   9
HETATM    9  C2  UNL     1      21.632  43.531  22.565  1.00  0.00     0.137 C
HETATM   10  C1  UNL     1      21.737  43.608  21.043  1.00  0.00     0.048 C
HETATM   11  C3  UNL     1      20.099  43.620  22.817  1.00  0.00     0.048 C
BRANCH   9  12
HETATM   12  C13 UNL     1      22.252  44.755  23.168  1.00  0.00     0.412 C
HETATM   13  F1  UNL     1      23.442  44.579  23.788  1.00  0.00    -0.168 F
HETATM   14  F2  UNL     1      22.430  45.757  22.211  1.00  0.00    -0.168 F
HETATM   15  F3  UNL     1      21.392  45.332  24.113  1.00  0.00    -0.168 F
ENDBRANCH   9  12
ENDBRANCH   1   9
BRANCH   7  16
HETATM   16  C5  UNL     1      22.156  42.243  26.664  1.00  0.00     0.050 A
HETATM   17  C6  UNL     1      22.617  41.619  27.798  1.00  0.00     0.031 A
HETATM   18  C7  UNL     1      22.178  42.144  29.024  1.00  0.00     0.022 A
HETATM   19  C8  UNL     1      21.327  43.232  29.047  1.00  0.00     0.015 A
HETATM   20  S1  UNL     1      20.602  44.124  30.307  1.00  0.00    -0.101 SA
HETATM   21  C11 UNL     1      20.865  43.856  27.925  1.00  0.00    -0.017 A
HETATM   22  C9  UNL     1      19.734  45.261  29.383  1.00  0.00     0.051 A
HETATM   23  C10 UNL     1      20.034  44.914  28.100  1.00  0.00     0.020 A
HETATM   24  C12 UNL     1      21.297  43.338  26.695  1.00  0.00     0.043 A
ENDBRANCH   7  16
TORSDOF 3
ENDMDL