MODEL 3
REMARK VINA RESULT: -6.353493518      2.910      5.098
REMARK  3 active torsions:
REMARK  status: ('A' for Active; 'I' for Inactive)
REMARK    1  A    between atoms: C4_6  and  C5_7
REMARK    2  A    between atoms: C11_13  and  O1_14
REMARK    3  A    between atoms: C11_13  and  C12_16
ROOT
HETATM    1  C5  UNL     1      20.470  41.970  26.739  1.00  0.00     0.020 C
HETATM    2  C6  UNL     1      20.975  41.986  25.575  1.00  0.00    -0.036 C
HETATM    3  C7  UNL     1      20.090  41.235  24.546  1.00  0.00     0.037 C
HETATM    4  C8  UNL     1      19.591  42.300  23.606  1.00  0.00     0.004 C
HETATM    5  C9  UNL     1      20.763  42.890  22.835  1.00  0.00     0.004 C
HETATM    6  C10 UNL     1      22.050  42.415  23.407  1.00  0.00     0.052 C
HETATM    7  C11 UNL     1      22.143  42.548  24.931  1.00  0.00     0.179 C
ENDROOT
BRANCH   1   8
HETATM    8  C4  UNL     1      20.872  42.503  28.062  1.00  0.00    -0.000 A
HETATM    9  C3  UNL     1      21.723  41.822  28.898  1.00  0.00     0.085 A
HETATM   10  S1  UNL     1      21.856  42.846  30.264  1.00  0.00    -0.082 SA
HETATM   11 CL1  UNL     1      22.483  40.230  28.665  1.00  0.00    -0.075 Cl
HETATM   12  C2  UNL     1      20.837  44.103  29.751  1.00  0.00    -0.013 A
HETATM   13  C1  UNL     1      20.473  45.379  30.480  1.00  0.00     0.057 C
HETATM   14  C13 UNL     1      20.416  43.693  28.522  1.00  0.00    -0.037 A
HETATM   15  C14 UNL     1      19.465  44.572  27.718  1.00  0.00     0.050 C
ENDBRANCH   1   8
BRANCH   7  16
HETATM   16  O1  UNL     1      23.283  41.752  25.233  1.00  0.00    -0.376 OA
ATOM     17  H1  UNL     1      23.364  41.056  24.591  1.00  0.00     0.211 HD
ENDBRANCH   7  16
BRANCH   7  18
HETATM   18  C12 UNL     1      22.529  43.959  25.186  1.00  0.00     0.422 C
HETATM   19  F1  UNL     1      21.308  44.687  25.059  1.00  0.00    -0.167 F
HETATM   20  F2  UNL     1      23.337  44.575  24.292  1.00  0.00    -0.167 F
HETATM   21  F3  UNL     1      22.980  44.227  26.458  1.00  0.00    -0.167 F
ENDBRANCH   7  18
TORSDOF 3
ENDMDL