MODEL 4
REMARK VINA RESULT: -6.418849555      5.072      7.405
REMARK  2 active torsions:
REMARK  status: ('A' for Active; 'I' for Inactive)
REMARK    1  A    between atoms: C2_2  and  C4_4
REMARK    2  A    between atoms: C9_11  and  C10_12
ROOT
HETATM    1  C4  UNL     1      21.090  43.774  31.007  1.00  0.00     0.010 A
HETATM    2  C5  UNL     1      21.738  42.606  31.467  1.00  0.00     0.049 A
HETATM    3  C6  UNL     1      22.290  41.678  30.616  1.00  0.00     0.010 A
HETATM    4  C7  UNL     1      22.208  41.900  29.246  1.00  0.00     0.149 A
HETATM    5  F1  UNL     1      22.763  40.965  28.415  1.00  0.00    -0.203 F
HETATM    6  C8  UNL     1      21.582  43.032  28.784  1.00  0.00     0.101 A
HETATM    7  N1  UNL     1      21.531  43.212  27.356  1.00  0.00    -0.098 NA
HETATM    8  C9  UNL     1      21.010  43.987  29.639  1.00  0.00     0.087 A
HETATM    9  C11 UNL     1      22.964  40.475  31.102  1.00  0.00     0.051 C
HETATM   10  C12 UNL     1      23.525  40.517  32.472  1.00  0.00     0.013 C
HETATM   11  C13 UNL     1      25.049  40.686  32.367  1.00  0.00     0.012 C
HETATM   12  C14 UNL     1      22.914  41.477  33.422  1.00  0.00     0.026 C
HETATM   13  C15 UNL     1      22.275  40.730  34.585  1.00  0.00     0.038 C
HETATM   14  C16 UNL     1      23.990  42.342  34.028  1.00  0.00     0.038 C
HETATM   15  N2  UNL     1      21.908  42.362  32.842  1.00  0.00    -0.380 N
ATOM     16  H2  UNL     1      21.279  42.844  33.485  1.00  0.00     0.160 HD
ENDROOT
BRANCH   8  17
HETATM   17  C10 UNL     1      20.289  45.067  29.063  1.00  0.00     0.420 C
HETATM   18  F2  UNL     1      21.020  46.273  29.311  1.00  0.00    -0.166 F
HETATM   19  F3  UNL     1      19.849  45.147  27.819  1.00  0.00    -0.166 F
HETATM   20  F4  UNL     1      19.142  45.330  29.857  1.00  0.00    -0.166 F
ENDBRANCH   8  17
BRANCH   1  21
HETATM   21  C2  UNL     1      20.476  44.674  31.950  1.00  0.00    -0.074 C
HETATM   22  C1  UNL     1      21.486  45.632  32.612  1.00  0.00     0.044 C
HETATM   23  C3  UNL     1      19.306  44.376  32.785  1.00  0.00     0.044 C
ENDBRANCH   1  21
TORSDOF 2
ENDMDL