MODEL 2
REMARK VINA RESULT: -8.402916701      2.507      3.741
REMARK  2 active torsions:
REMARK  status: ('A' for Active; 'I' for Inactive)
REMARK    1  A    between atoms: C6_6  and  N1_7
REMARK       I    between atoms: N2_9  and  C7_11
REMARK    2  A    between atoms: C8_16  and  C9_17
ROOT
HETATM    1  C1  UNL     1      21.797  45.514  21.600  1.00  0.00     0.016 C
HETATM    2  C2  UNL     1      21.908  44.338  22.524  1.00  0.00     0.058 C
HETATM    3  C3  UNL     1      21.338  44.625  23.871  1.00  0.00     0.049 C
HETATM    4  C4  UNL     1      21.766  43.652  24.874  1.00  0.00    -0.049 A
HETATM    5  C5  UNL     1      21.491  44.023  26.170  1.00  0.00     0.039 A
HETATM    6  C6  UNL     1      21.823  43.231  27.268  1.00  0.00     0.063 A
HETATM    7  C8  UNL     1      22.454  42.021  27.068  1.00  0.00     0.076 A
HETATM    8  C10 UNL     1      22.724  41.661  25.776  1.00  0.00     0.026 A
HETATM    9  C11 UNL     1      22.398  42.445  24.663  1.00  0.00    -0.051 A
HETATM   10  C12 UNL     1      22.831  41.757  23.468  1.00  0.00     0.045 C
HETATM   11  C13 UNL     1      22.067  41.901  22.223  1.00  0.00     0.084 C
HETATM   12  C14 UNL     1      21.233  43.105  22.027  1.00  0.00     0.247 C
HETATM   13  F4  UNL     1      19.990  42.905  22.603  1.00  0.00    -0.206 F
HETATM   14  F5  UNL     1      21.034  43.276  20.649  1.00  0.00    -0.206 F
ENDROOT
BRANCH   6  15
HETATM   15  N1  UNL     1      21.529  43.633  28.599  1.00  0.00    -0.298 N
HETATM   16  N2  UNL     1      20.380  44.162  28.792  1.00  0.00    -0.273 N
HETATM   17  C7  UNL     1      19.954  44.605  30.062  1.00  0.00     0.200 C
ATOM     18  H2  UNL     1      19.747  44.267  27.998  1.00  0.00     0.189 HD
HETATM   19  N3  UNL     1      20.628  44.456  31.151  1.00  0.00    -0.372 N
HETATM   20  N4  UNL     1      18.696  45.264  30.152  1.00  0.00    -0.062 NA
ATOM     21  H32 UNL     1      21.530  43.984  31.086  1.00  0.00     0.158 HD
ATOM     22  H31 UNL     1      20.321  44.777  32.069  1.00  0.00     0.158 HD
ATOM     23  H1  UNL     1      22.198  43.507  29.359  1.00  0.00     0.187 HD
ENDBRANCH   6  15
BRANCH   7  24
HETATM   24  C9  UNL     1      22.801  41.192  28.245  1.00  0.00     0.419 C
HETATM   25  F1  UNL     1      23.297  41.976  29.292  1.00  0.00    -0.166 F
HETATM   26  F2  UNL     1      21.718  40.466  28.710  1.00  0.00    -0.166 F
HETATM   27  F3  UNL     1      23.800  40.281  27.956  1.00  0.00    -0.166 F
ENDBRANCH   7  24
TORSDOF 2
ENDMDL