MODEL 5
REMARK VINA RESULT: -7.783493625      3.128      6.302
REMARK  3 active torsions:
REMARK  status: ('A' for Active; 'I' for Inactive)
REMARK    1  A    between atoms: C1_2  and  C2_5
REMARK    2  A    between atoms: C2_5  and  N1_6
REMARK    3  A    between atoms: N1_6  and  C3_8
ROOT
HETATM    1  C2  UNL     1      21.336  43.314  27.818  1.00  0.00     0.204 C
HETATM    2  C9  UNL     1      20.771  42.427  26.761  1.00  0.00     0.068 C
HETATM    3  C10 UNL     1      21.414  42.416  25.440  1.00  0.00    -0.001 C
HETATM    4  C11 UNL     1      20.416  42.817  24.341  1.00  0.00     0.005 C
HETATM    5  C12 UNL     1      20.990  42.236  23.068  1.00  0.00     0.000 C
HETATM    6  C13 UNL     1      22.330  42.836  22.742  1.00  0.00     0.001 C
HETATM    7  C14 UNL     1      22.940  43.625  23.849  1.00  0.00     0.010 C
HETATM    8  C15 UNL     1      22.668  43.147  25.233  1.00  0.00     0.028 C
HETATM    9  C16 UNL     1      22.778  44.326  26.158  1.00  0.00     0.063 C
HETATM   10  N2  UNL     1      22.556  43.942  27.488  1.00  0.00    -0.369 N
ATOM     11  H2  UNL     1      23.262  44.113  28.204  1.00  0.00     0.161 HD
ENDROOT
BRANCH   1  12
HETATM   12  C1  UNL     1      20.316  44.462  28.024  1.00  0.00     0.431 C
HETATM   13  F1  UNL     1      19.823  44.904  26.828  1.00  0.00    -0.167 F
HETATM   14  F2  UNL     1      20.963  45.483  28.723  1.00  0.00    -0.167 F
HETATM   15  F3  UNL     1      19.270  44.082  28.815  1.00  0.00    -0.167 F
ENDBRANCH   1  12
BRANCH   1  16
HETATM   16  N1  UNL     1      21.435  42.716  29.133  1.00  0.00    -0.355 N
ATOM     17  H1  UNL     1      20.641  42.867  29.754  1.00  0.00     0.162 HD
BRANCH  16  18
HETATM   18  C3  UNL     1      22.494  41.950  29.660  1.00  0.00     0.052 A
HETATM   19  C4  UNL     1      23.432  41.332  28.858  1.00  0.00     0.031 A
HETATM   20  C5  UNL     1      24.466  40.587  29.426  1.00  0.00     0.002 A
HETATM   21  C6  UNL     1      24.564  40.461  30.794  1.00  0.00     0.002 A
HETATM   22  C7  UNL     1      23.615  41.088  31.568  1.00  0.00     0.026 A
HETATM   23  C8  UNL     1      22.581  41.830  31.050  1.00  0.00     0.060 A
HETATM   24 CL1  UNL     1      21.400  42.606  32.121  1.00  0.00    -0.082 Cl
ENDBRANCH  16  18
ENDBRANCH   1  16
TORSDOF 3
ENDMDL