MODEL 4
REMARK VINA RESULT: -6.566842882      1.649      3.057
REMARK  3 active torsions:
REMARK  status: ('A' for Active; 'I' for Inactive)
REMARK    1  A    between atoms: C2_2  and  C5_5
REMARK    2  A    between atoms: C7_12  and  C8_13
REMARK    3  A    between atoms: C9_15  and  C10_16
ROOT
HETATM    1  C5  UNL     1      22.108  42.360  29.794  1.00  0.00     0.047 A
HETATM    2  N1  UNL     1      21.689  42.826  30.992  1.00  0.00    -0.334 N
ATOM      3  H1  UNL     1      21.949  42.415  31.888  1.00  0.00     0.168 HD
HETATM    4  C6  UNL     1      20.897  43.888  30.859  1.00  0.00     0.176 A
HETATM    5  S1  UNL     1      20.146  44.796  32.002  1.00  0.00    -0.041 SA
HETATM    6  N2  UNL     1      20.818  44.089  29.537  1.00  0.00    -0.330 N
ATOM      7  H2  UNL     1      20.278  44.836  29.101  1.00  0.00     0.168 HD
HETATM    8  C7  UNL     1      21.537  43.186  28.860  1.00  0.00     0.078 A
ENDROOT
BRANCH   8   9
HETATM    9  C8  UNL     1      21.649  43.128  27.391  1.00  0.00     0.073 A
HETATM   10  S2  UNL     1      20.996  42.075  26.242  1.00  0.00    -0.080 SA
HETATM   11  C9  UNL     1      21.754  42.649  24.828  1.00  0.00     0.092 A
HETATM   12  C11 UNL     1      22.522  43.662  25.280  1.00  0.00     0.067 A
HETATM   13  C12 UNL     1      22.468  43.916  26.623  1.00  0.00     0.137 A
HETATM   14  F4  UNL     1      23.249  44.969  27.122  1.00  0.00    -0.205 F
BRANCH  11  15
HETATM   15  C10 UNL     1      21.629  42.156  23.422  1.00  0.00     0.423 C
HETATM   16  F1  UNL     1      22.805  42.446  22.754  1.00  0.00    -0.166 F
HETATM   17  F2  UNL     1      21.453  40.785  23.468  1.00  0.00    -0.166 F
HETATM   18  F3  UNL     1      20.582  42.742  22.732  1.00  0.00    -0.166 F
ENDBRANCH  11  15
ENDBRANCH   8   9
BRANCH   1  19
HETATM   19  C2  UNL     1      22.985  41.201  29.607  1.00  0.00    -0.006 C
HETATM   20  C1  UNL     1      23.427  40.776  31.042  1.00  0.00     0.021 C
HETATM   21  C3  UNL     1      22.192  39.975  29.128  1.00  0.00     0.021 C
HETATM   22  C4  UNL     1      24.275  41.437  28.895  1.00  0.00     0.021 C
ENDBRANCH   1  19
TORSDOF 3
ENDMDL