MODEL 4
REMARK VINA RESULT: -7.108607490      6.831      9.844
REMARK  2 active torsions:
REMARK  status: ('A' for Active; 'I' for Inactive)
REMARK    1  A    between atoms: C10_11  and  N1_12
REMARK       I    between atoms: N2_14  and  C11_16
REMARK       I    between atoms: C11_16  and  N4_20
REMARK    2  A    between atoms: N4_20  and  C12_22
ROOT
HETATM    1  C1  UNL     1      21.416  44.800  23.957  1.00  0.00     0.046 C
HETATM    2  C2  UNL     1      21.716  43.401  23.460  1.00  0.00     0.064 C
HETATM    3  C3  UNL     1      22.577  43.547  22.216  1.00  0.00     0.046 C
HETATM    4  C4  UNL     1      20.428  42.715  23.192  1.00  0.00     0.086 C
HETATM    5  C5  UNL     1      20.200  41.468  24.005  1.00  0.00     0.132 C
HETATM    6  C6  UNL     1      20.823  40.251  23.352  1.00  0.00     0.057 C
HETATM    7  F1  UNL     1      18.831  41.240  24.030  1.00  0.00    -0.238 F
HETATM    8  C7  UNL     1      20.666  41.567  25.389  1.00  0.00     0.014 A
HETATM    9  C8  UNL     1      19.992  41.019  26.454  1.00  0.00     0.015 A
HETATM   10  C9  UNL     1      20.507  41.162  27.726  1.00  0.00     0.031 A
HETATM   11  C10 UNL     1      21.682  41.839  27.986  1.00  0.00     0.051 A
HETATM   12  C13 UNL     1      22.349  42.386  26.901  1.00  0.00     0.068 A
HETATM   13  C14 UNL     1      21.858  42.257  25.620  1.00  0.00     0.081 A
HETATM   14  O1  UNL     1      22.479  42.781  24.507  1.00  0.00    -0.340 OA
ENDROOT
BRANCH  11  15
HETATM   15  N1  UNL     1      22.208  41.984  29.306  1.00  0.00    -0.287 N
HETATM   16  N2  UNL     1      22.910  41.031  29.760  1.00  0.00    -0.132 N
HETATM   17  C11 UNL     1      23.435  41.181  31.081  1.00  0.00     0.690 C
ATOM     18  H2  UNL     1      23.093  40.193  29.206  1.00  0.00     0.205 HD
HETATM   19  N3  UNL     1      22.605  41.476  32.013  1.00  0.00    -0.233 N
HETATM   20  N4  UNL     1      24.803  41.009  31.333  1.00  0.00    -0.167 N
ATOM     21  H32 UNL     1      21.609  41.601  31.829  1.00  0.00     0.174 HD
ATOM     22  H31 UNL     1      22.979  41.583  32.956  1.00  0.00     0.174 HD
ATOM     23  H4  UNL     1      25.483  41.705  31.026  1.00  0.00     0.183 HD
ATOM     24  H1  UNL     1      22.027  42.820  29.861  1.00  0.00     0.187 HD
BRANCH  20  25
HETATM   25  C12 UNL     1      25.228  39.818  32.039  1.00  0.00     0.472 C
HETATM   26  F2  UNL     1      26.488  39.500  31.624  1.00  0.00    -0.191 F
HETATM   27  F3  UNL     1      25.220  40.038  33.396  1.00  0.00    -0.191 F
ENDBRANCH  20  25
ENDBRANCH  11  15
TORSDOF 2
ENDMDL