MODEL 5
REMARK VINA RESULT: -6.093703725      5.272      7.029
REMARK  2 active torsions:
REMARK  status: ('A' for Active; 'I' for Inactive)
REMARK    1  A    between atoms: C3_5  and  C4_6
REMARK    2  A    between atoms: C7_15  and  C8_16
ROOT
HETATM    1  O1  UNL     1      22.309  44.579  25.671  1.00  0.00    -0.286 OA
HETATM    2  C1  UNL     1      21.764  43.804  24.822  1.00  0.00     0.208 A
HETATM    3  C2  UNL     1      21.860  44.205  23.508  1.00  0.00     0.107 A
HETATM    4 CL1  UNL     1      22.706  45.719  23.134  1.00  0.00    -0.079 Cl
HETATM    5  C3  UNL     1      21.360  43.543  22.424  1.00  0.00     0.116 A
HETATM    6  S1  UNL     1      20.541  42.070  22.817  1.00  0.00    -0.065 SA
HETATM    7  C5  UNL     1      20.519  41.732  24.480  1.00  0.00     0.089 A
HETATM    8  N1  UNL     1      20.012  40.774  25.267  1.00  0.00    -0.359 N
ATOM      9  H1  UNL     1      19.497  39.959  24.935  1.00  0.00     0.166 HD
HETATM   10  C6  UNL     1      20.281  41.042  26.559  1.00  0.00     0.097 A
HETATM   11  C7  UNL     1      20.994  42.226  26.587  1.00  0.00    -0.021 A
HETATM   12  C13 UNL     1      21.157  42.680  25.289  1.00  0.00     0.058 A
ENDROOT
BRANCH  11  13
HETATM   13  C8  UNL     1      21.492  42.833  27.834  1.00  0.00     0.021 C
HETATM   14  C9  UNL     1      20.340  43.432  28.669  1.00  0.00     0.009 C
HETATM   15  C10 UNL     1      21.160  43.806  29.912  1.00  0.00     0.001 C
HETATM   16  C11 UNL     1      21.883  42.495  30.159  1.00  0.00     0.001 C
HETATM   17  C12 UNL     1      21.920  41.758  28.842  1.00  0.00     0.009 C
ENDBRANCH  11  13
BRANCH   5  18
HETATM   18  C4  UNL     1      21.447  44.032  21.027  1.00  0.00     0.425 C
HETATM   19  F1  UNL     1      22.684  44.448  20.648  1.00  0.00    -0.165 F
HETATM   20  F2  UNL     1      21.034  42.981  20.199  1.00  0.00    -0.165 F
HETATM   21  F3  UNL     1      20.503  45.036  20.818  1.00  0.00    -0.165 F
ENDBRANCH   5  18
TORSDOF 2
ENDMDL