MODEL 3
REMARK VINA RESULT: -5.241303744      9.220     11.481
REMARK  3 active torsions:
REMARK  status: ('A' for Active; 'I' for Inactive)
REMARK    1  A    between atoms: O1_1  and  C1_3
REMARK    2  A    between atoms: C1_3  and  C2_4
REMARK    3  A    between atoms: C13_18  and  C14_20
ROOT
HETATM    1  C1  UNL     1      21.281  41.933  23.651  1.00  0.00     0.180 C
HETATM    2  C3  UNL     1      22.284  41.553  24.733  1.00  0.00     0.052 C
HETATM    3  C4  UNL     1      21.747  41.671  26.115  1.00  0.00     0.004 C
HETATM    4  C5  UNL     1      22.825  41.842  27.154  1.00  0.00     0.000 C
HETATM    5  C6  UNL     1      22.505  42.969  28.121  1.00  0.00     0.000 C
HETATM    6  C7  UNL     1      23.180  44.255  27.793  1.00  0.00     0.000 C
HETATM    7  C8  UNL     1      22.487  45.012  26.650  1.00  0.00     0.000 C
HETATM    8  C9  UNL     1      23.356  45.012  25.463  1.00  0.00     0.000 C
HETATM    9  C10 UNL     1      22.773  45.052  24.114  1.00  0.00     0.004 C
HETATM   10  C11 UNL     1      21.483  44.419  23.834  1.00  0.00     0.039 C
HETATM   11  C12 UNL     1      21.574  43.162  22.932  1.00  0.00    -0.022 C
HETATM   12  C13 UNL     1      21.893  43.414  21.687  1.00  0.00     0.009 C
HETATM   13  S1  UNL     1      22.044  42.077  20.508  1.00  0.00    -0.056 SA
ENDROOT
BRANCH   1  14
HETATM   14  O1  UNL     1      20.082  42.281  24.415  1.00  0.00    -0.376 OA
ATOM     15  H1  UNL     1      20.038  43.226  24.324  1.00  0.00     0.211 HD
ENDBRANCH   1  14
BRANCH   1  16
HETATM   16  C2  UNL     1      20.892  40.690  22.974  1.00  0.00     0.422 C
HETATM   17  F1  UNL     1      19.963  40.065  23.894  1.00  0.00    -0.167 F
HETATM   18  F2  UNL     1      21.885  39.689  22.972  1.00  0.00    -0.167 F
HETATM   19  F3  UNL     1      20.232  40.724  21.816  1.00  0.00    -0.167 F
ENDBRANCH   1  16
BRANCH  12  20
HETATM   20  C14 UNL     1      22.122  44.761  21.081  1.00  0.00     0.161 C
HETATM   21 CL1  UNL     1      20.534  45.563  20.759  1.00  0.00    -0.125 Cl
ENDBRANCH  12  20
TORSDOF 3
ENDMDL