MODEL 4
REMARK VINA RESULT: -7.495483606      2.709      7.121
REMARK  3 active torsions:
REMARK  status: ('A' for Active; 'I' for Inactive)
REMARK    1  A    between atoms: C2_2  and  N1_4
REMARK    2  A    between atoms: C2_2  and  C15_23
REMARK       I    between atoms: C4_6  and  N3_8
REMARK    3  A    between atoms: N4_10  and  C5_12
ROOT
HETATM    1  N1  UNL     1      20.869  43.520  27.065  1.00  0.00    -0.346 N
ATOM      2  H1  UNL     1      19.857  43.502  27.195  1.00  0.00     0.163 HD
HETATM    3  C4  UNL     1      21.260  44.041  25.983  1.00  0.00     0.203 C
HETATM    4  N2  UNL     1      20.266  44.531  25.088  1.00  0.00    -0.062 NA
HETATM    5  N3  UNL     1      22.610  44.141  25.661  1.00  0.00    -0.273 N
ATOM      6  H3  UNL     1      23.255  44.080  26.449  1.00  0.00     0.189 HD
HETATM    7  N4  UNL     1      23.140  44.293  24.546  1.00  0.00    -0.298 N
ATOM      8  H4  UNL     1      24.159  44.342  24.538  1.00  0.00     0.187 HD
ENDROOT
BRANCH   7   9
HETATM    9  C5  UNL     1      22.509  44.406  23.301  1.00  0.00     0.059 A
HETATM   10  C6  UNL     1      22.203  45.633  22.717  1.00  0.00     0.032 A
HETATM   11  C7  UNL     1      21.582  45.703  21.488  1.00  0.00     0.003 A
HETATM   12  C8  UNL     1      21.239  44.563  20.788  1.00  0.00     0.012 A
HETATM   13  C9  UNL     1      21.535  43.345  21.349  1.00  0.00    -0.024 A
HETATM   14  C10 UNL     1      21.207  42.172  20.678  1.00  0.00     0.015 A
HETATM   15  C14 UNL     1      22.165  43.278  22.597  1.00  0.00     0.005 A
HETATM   16  C11 UNL     1      21.484  40.927  21.204  1.00  0.00     0.043 A
HETATM   17  C12 UNL     1      22.114  40.873  22.450  1.00  0.00     0.117 A
HETATM   18  F1  UNL     1      22.419  39.694  23.033  1.00  0.00    -0.206 F
HETATM   19  C13 UNL     1      22.443  42.029  23.124  1.00  0.00     0.057 A
ENDBRANCH   7   9
BRANCH   1  20
HETATM   20  C2  UNL     1      21.627  42.953  28.135  1.00  0.00     0.123 C
HETATM   21  C1  UNL     1      23.049  43.505  28.041  1.00  0.00     0.047 C
HETATM   22  C3  UNL     1      21.126  43.237  29.511  1.00  0.00     0.047 C
BRANCH  20  23
HETATM   23  C15 UNL     1      21.666  41.435  27.917  1.00  0.00     0.411 C
HETATM   24  F2  UNL     1      22.082  40.784  29.060  1.00  0.00    -0.168 F
HETATM   25  F3  UNL     1      22.606  41.201  26.937  1.00  0.00    -0.168 F
HETATM   26  F4  UNL     1      20.442  40.975  27.478  1.00  0.00    -0.168 F
ENDBRANCH  20  23
ENDBRANCH   1  20
TORSDOF 3
ENDMDL