MODEL 4
REMARK VINA RESULT: -5.548894672      8.478     11.020
REMARK  13 active torsions:
REMARK  status: ('A' for Active; 'I' for Inactive)
REMARK    1  A    between atoms: C2_2  and  O1_3
REMARK    2  A    between atoms: O1_3  and  C3_4
REMARK    3  A    between atoms: C3_4  and  C4_6
REMARK    4  A    between atoms: C4_6  and  C5_8
REMARK    5  A    between atoms: C5_8  and  O4_9
REMARK    6  A    between atoms: O4_9  and  N1_10
REMARK    7  A    between atoms: N1_10  and  C6_12
REMARK    8  A    between atoms: C6_12  and  N2_14
REMARK    9  A    between atoms: N2_14  and  N3_16
REMARK   10  A    between atoms: N3_16  and  C7_18
REMARK   11  A    between atoms: C7_18  and  O5_19
REMARK   12  A    between atoms: N4_21  and  C8_23
REMARK   13  A    between atoms: C8_23  and  O6_25
ROOT
HETATM    1  C6  UNL     1      14.154  52.048 -49.042  1.00  0.00     0.210 C
HETATM    2  S1  UNL     1      15.194  53.270 -49.298  1.00  0.00    -0.037 SA
ENDROOT
BRANCH   1   3
HETATM    3  N1  UNL     1      14.000  50.955 -49.913  1.00  0.00    -0.239 N
ATOM      4  H1  UNL     1      14.854  50.420 -50.072  1.00  0.00     0.197 HD
BRANCH   3   5
HETATM    5  O4  UNL     1      12.951  50.505 -50.555  1.00  0.00    -0.270 OA
BRANCH   5   6
HETATM    6  C5  UNL     1      12.998  50.415 -51.894  1.00  0.00     0.290 C
BRANCH   6   7
HETATM    7  C4  UNL     1      12.856  48.964 -52.345  1.00  0.00     0.249 C
HETATM    8  O3  UNL     1      11.732  48.654 -52.786  1.00  0.00    -0.284 OA
BRANCH   7   9
HETATM    9  C3  UNL     1      13.981  48.060 -52.246  1.00  0.00     0.331 C
HETATM   10  O2  UNL     1      14.088  47.046 -53.026  1.00  0.00    -0.256 OA
BRANCH   9  11
HETATM   11  O1  UNL     1      15.015  48.195 -51.332  1.00  0.00    -0.316 OA
BRANCH  11  12
HETATM   12  C2  UNL     1      16.330  48.552 -51.787  1.00  0.00     0.175 C
HETATM   13  C1  UNL     1      17.249  47.449 -51.315  1.00  0.00     0.034 C
ENDBRANCH  11  12
ENDBRANCH   9  11
ENDBRANCH   7   9
ENDBRANCH   6   7
ENDBRANCH   5   6
ENDBRANCH   3   5
ENDBRANCH   1   3
BRANCH   1  14
HETATM   14  N2  UNL     1      13.369  52.107 -47.863  1.00  0.00    -0.272 N
ATOM     15  H2  UNL     1      13.229  52.984 -47.363  1.00  0.00     0.189 HD
BRANCH  14  16
HETATM   16  N3  UNL     1      12.781  50.884 -47.403  1.00  0.00    -0.263 N
ATOM     17  H3  UNL     1      11.903  50.549 -47.800  1.00  0.00     0.190 HD
BRANCH  16  18
HETATM   18  C7  UNL     1      13.429  50.158 -46.401  1.00  0.00     0.237 C
HETATM   19  N4  UNL     1      14.178  49.029 -46.539  1.00  0.00    -0.306 N
ATOM     20  H4  UNL     1      14.562  48.669 -45.666  1.00  0.00     0.171 HD
BRANCH  18  21
HETATM   21  O5  UNL     1      13.270  50.656 -45.209  1.00  0.00    -0.331 OA
ATOM     22  H5  UNL     1      12.543  50.275 -44.730  1.00  0.00     0.221 HD
ENDBRANCH  18  21
BRANCH  19  23
HETATM   23  C8  UNL     1      14.511  48.284 -47.660  1.00  0.00     0.114 C
HETATM   24  C9  UNL     1      15.727  47.481 -47.891  1.00  0.00     0.097 C
BRANCH  23  25
HETATM   25  O6  UNL     1      13.661  48.260 -48.676  1.00  0.00    -0.350 OA
ATOM     26  H6  UNL     1      13.766  48.902 -49.368  1.00  0.00     0.219 HD
ENDBRANCH  23  25
ENDBRANCH  19  23
ENDBRANCH  16  18
ENDBRANCH  14  16
ENDBRANCH   1  14
TORSDOF 13
ENDMDL