MODEL 1
REMARK VINA RESULT: -6.739021582      0.000      0.000
REMARK  7 active torsions:
REMARK  status: ('A' for Active; 'I' for Inactive)
REMARK    1  A    between atoms: N2_4  and  O1_5
REMARK    2  A    between atoms: N2_4  and  N3_7
REMARK       I    between atoms: N3_7  and  C1_9
REMARK       I    between atoms: C1_9  and  N8_23
REMARK    3  A    between atoms: N4_10  and  C2_12
REMARK    4  A    between atoms: C2_12  and  C3_13
REMARK    5  A    between atoms: C3_13  and  C4_14
REMARK    6  A    between atoms: C4_14  and  N5_15
REMARK       I    between atoms: N5_15  and  C5_17
REMARK    7  A    between atoms: N7_19  and  O2_21
ROOT
HETATM    1  N3  UNL     1      15.503  48.974 -49.110  1.00  0.00    -0.091 N
ATOM      2  H3  UNL     1      16.410  49.286 -48.762  1.00  0.00     0.210 HD
HETATM    3  C1  UNL     1      14.967  49.635 -50.237  1.00  0.00     0.695 C
HETATM    4  N4  UNL     1      14.623  50.880 -50.159  1.00  0.00    -0.225 N
ATOM      5  H4  UNL     1      14.242  51.311 -51.001  1.00  0.00     0.177 HD
HETATM    6  N8  UNL     1      14.789  48.963 -51.485  1.00  0.00    -0.190 N
HETATM    7  C6  UNL     1      14.560  47.627 -52.002  1.00  0.00     0.284 C
HETATM    8  S1  UNL     1      13.391  48.345 -53.136  1.00  0.00     0.178 S
HETATM    9  O3  UNL     1      12.127  48.747 -52.458  1.00  0.00    -0.225 OA
HETATM   10  O4  UNL     1      13.279  47.695 -54.454  1.00  0.00    -0.225 OA
HETATM   11  C7  UNL     1      14.766  49.421 -52.884  1.00  0.00     0.284 C
ENDROOT
BRANCH   1  12
HETATM   12  N2  UNL     1      14.882  47.930 -48.446  1.00  0.00    -0.087 N
HETATM   13  N1  UNL     1      15.554  47.172 -47.703  1.00  0.00    -0.303 N
ATOM     14  H12 UNL     1      15.096  46.403 -47.214  1.00  0.00     0.181 HD
ATOM     15  H11 UNL     1      16.555  47.333 -47.598  1.00  0.00     0.181 HD
BRANCH  12  16
HETATM   16  O1  UNL     1      13.544  47.714 -48.586  1.00  0.00    -0.253 OA
ATOM     17  H1  UNL     1      13.074  47.246 -47.905  1.00  0.00     0.248 HD
ENDBRANCH  12  16
ENDBRANCH   1  12
BRANCH   4  18
HETATM   18  C2  UNL     1      14.730  51.705 -48.998  1.00  0.00     0.139 C
BRANCH  18  19
HETATM   19  C3  UNL     1      13.360  52.075 -48.428  1.00  0.00     0.040 C
BRANCH  19  20
HETATM   20  C4  UNL     1      12.910  50.959 -47.520  1.00  0.00     0.124 C
BRANCH  20  21
HETATM   21  N5  UNL     1      11.869  50.156 -48.097  1.00  0.00    -0.363 N
HETATM   22  C5  UNL     1      10.623  49.912 -47.455  1.00  0.00     0.208 C
HETATM   23  N6  UNL     1      10.257  48.665 -46.901  1.00  0.00    -0.062 NA
HETATM   24  N7  UNL     1       9.792  50.894 -47.381  1.00  0.00    -0.241 N
ATOM     25  H7  UNL     1      10.066  51.790 -47.784  1.00  0.00     0.197 HD
ATOM     26  H5  UNL     1      12.031  49.738 -49.014  1.00  0.00     0.162 HD
BRANCH  24  27
HETATM   27  O2  UNL     1       8.561  50.798 -46.792  1.00  0.00    -0.287 OA
ATOM     28  H2  UNL     1       8.396  51.020 -45.883  1.00  0.00     0.244 HD
ENDBRANCH  24  27
ENDBRANCH  20  21
ENDBRANCH  19  20
ENDBRANCH  18  19
ENDBRANCH   4  18
TORSDOF 7
ENDMDL