MODEL 5
REMARK VINA RESULT: -6.195733666      3.166      5.410
REMARK  4 active torsions:
REMARK  status: ('A' for Active; 'I' for Inactive)
REMARK    1  A    between atoms: O1_3  and  C2_4
REMARK    2  A    between atoms: C2_4  and  C3_5
REMARK    3  A    between atoms: C3_5  and  C4_6
REMARK    4  A    between atoms: C4_6  and  N2_7
ROOT
HETATM    1  N1  UNL     1      15.116  48.556 -56.809  1.00  0.00    -0.164 NA
HETATM    2  C1  UNL     1      14.848  48.139 -55.747  1.00  0.00     0.228 C
HETATM    3  O1  UNL     1      14.561  47.653 -54.520  1.00  0.00    -0.283 OA
ENDROOT
BRANCH   3   4
HETATM    4  C2  UNL     1      13.377  47.992 -53.809  1.00  0.00     0.191 C
BRANCH   4   5
HETATM    5  C3  UNL     1      13.683  49.258 -53.039  1.00  0.00     0.043 C
BRANCH   5   6
HETATM    6  C4  UNL     1      13.424  49.057 -51.559  1.00  0.00     0.113 C
BRANCH   6   7
HETATM    7  N2  UNL     1      14.451  49.669 -50.751  1.00  0.00    -0.168 NA
HETATM    8  C5  UNL     1      15.299  48.625 -50.216  1.00  0.00     0.340 C
HETATM    9  N3  UNL     1      16.290  48.096 -51.075  1.00  0.00    -0.061 N
HETATM   10  C6  UNL     1      17.355  47.386 -50.391  1.00  0.00     0.261 C
ATOM     11  H32 UNL     1      15.865  47.501 -51.787  1.00  0.00     0.278 HD
ATOM     12  H31 UNL     1      16.675  48.830 -51.669  1.00  0.00     0.278 HD
HETATM   13  C7  UNL     1      17.247  47.590 -48.945  1.00  0.00     0.259 C
HETATM   14  N4  UNL     1      17.957  46.729 -48.036  1.00  0.00    -0.074 N
HETATM   15  C8  UNL     1      17.818  47.415 -46.734  1.00  0.00     0.232 C
ATOM     16  H42 UNL     1      17.641  45.759 -48.039  1.00  0.00     0.277 HD
ATOM     17  H41 UNL     1      18.919  46.528 -48.308  1.00  0.00     0.277 HD
HETATM   18  C9  UNL     1      16.414  47.710 -46.326  1.00  0.00     0.029 C
HETATM   19  C10 UNL     1      16.050  49.170 -46.303  1.00  0.00     0.022 C
HETATM   20  C11 UNL     1      14.715  49.501 -46.967  1.00  0.00     0.133 C
HETATM   21  N5  UNL     1      14.845  50.458 -48.026  1.00  0.00    -0.307 N
HETATM   22  S1  UNL     1      13.694  50.331 -49.296  1.00  0.00     0.300 S
ATOM     23  H5  UNL     1      15.576  51.169 -48.025  1.00  0.00     0.173 HD
HETATM   24  O2  UNL     1      12.487  49.561 -48.930  1.00  0.00    -0.188 OA
HETATM   25  O3  UNL     1      13.279  51.728 -49.666  1.00  0.00    -0.188 OA
ENDBRANCH   6   7
ENDBRANCH   5   6
ENDBRANCH   4   5
ENDBRANCH   3   4
TORSDOF 4
ENDMDL