MODEL 2
REMARK VINA RESULT: -6.160212168      1.328      1.548
REMARK  7 active torsions:
REMARK  status: ('A' for Active; 'I' for Inactive)
REMARK    1  A    between atoms: C4_6  and  C5_7
REMARK    2  A    between atoms: C5_7  and  N2_8
REMARK    3  A    between atoms: N2_8  and  C6_10
REMARK    4  A    between atoms: C6_10  and  N3_12
REMARK    5  A    between atoms: N3_12  and  C7_14
REMARK    6  A    between atoms: N4_15  and  N5_17
REMARK    7  A    between atoms: N5_17  and  C8_19
ROOT
HETATM    1  N3  UNL     1      14.283  49.383 -46.806  1.00  0.00    -0.328 N
ATOM      2  H3  UNL     1      13.643  49.115 -47.555  1.00  0.00     0.169 HD
ENDROOT
BRANCH   1   3
HETATM    3  C6  UNL     1      15.671  49.339 -47.068  1.00  0.00     0.172 C
HETATM    4  S1  UNL     1      16.696  48.584 -46.056  1.00  0.00    -0.041 SA
BRANCH   3   5
HETATM    5  N2  UNL     1      16.174  49.961 -48.228  1.00  0.00    -0.364 N
ATOM      6  H2  UNL     1      17.013  49.592 -48.676  1.00  0.00     0.162 HD
BRANCH   5   7
HETATM    7  C5  UNL     1      15.515  51.111 -48.786  1.00  0.00     0.155 C
BRANCH   7   8
HETATM    8  C4  UNL     1      14.689  50.780 -49.990  1.00  0.00     0.167 C
HETATM    9  O1  UNL     1      13.411  50.338 -49.659  1.00  0.00    -0.381 OA
HETATM   10  C3  UNL     1      12.863  49.784 -50.812  1.00  0.00     0.198 C
HETATM   11  C2  UNL     1      12.783  50.785 -51.940  1.00  0.00     0.298 C
HETATM   12  N1  UNL     1      13.314  52.076 -51.568  1.00  0.00     0.088 N
HETATM   13  C1  UNL     1      12.321  52.916 -50.933  1.00  0.00     0.310 C
HETATM   14  C11 UNL     1      14.544  52.011 -50.844  1.00  0.00     0.305 C
ENDBRANCH   7   8
ENDBRANCH   5   7
ENDBRANCH   3   5
ENDBRANCH   1   3
BRANCH   1  15
HETATM   15  C7  UNL     1      13.729  49.776 -45.568  1.00  0.00     0.199 C
HETATM   16  N4  UNL     1      12.464  49.696 -45.385  1.00  0.00    -0.293 N
ATOM     17  H4  UNL     1      12.057  49.978 -44.493  1.00  0.00     0.187 HD
BRANCH  16  18
HETATM   18  N5  UNL     1      11.649  49.225 -46.404  1.00  0.00    -0.271 N
ATOM     19  H5  UNL     1      11.714  48.251 -46.699  1.00  0.00     0.190 HD
BRANCH  18  20
HETATM   20  C8  UNL     1      10.711  50.109 -47.046  1.00  0.00     0.190 C
HETATM   21  N6  UNL     1       9.423  50.013 -46.976  1.00  0.00    -0.360 N
HETATM   22  C9  UNL     1       8.783  51.061 -47.737  1.00  0.00     0.142 C
ATOM     23  H6  UNL     1       8.924  49.291 -46.454  1.00  0.00     0.162 HD
HETATM   24  C10 UNL     1       9.889  51.984 -48.192  1.00  0.00     0.142 C
HETATM   25  N7  UNL     1      11.076  51.222 -47.852  1.00  0.00    -0.360 N
ATOM     26  H7  UNL     1      12.026  51.450 -48.145  1.00  0.00     0.162 HD
ENDBRANCH  18  20
ENDBRANCH  16  18
ENDBRANCH   1  15
TORSDOF 7
ENDMDL