MODEL 3
REMARK VINA RESULT: -6.335204803      1.441      1.735
REMARK  5 active torsions:
REMARK  status: ('A' for Active; 'I' for Inactive)
REMARK    1  A    between atoms: C2_2  and  C3_3
REMARK    2  A    between atoms: C2_2  and  C8_13
REMARK       I    between atoms: C3_3  and  N1_5
REMARK    3  A    between atoms: C9_14  and  S1_15
REMARK    4  A    between atoms: S1_15  and  N3_16
REMARK    5  A    between atoms: C10_27  and  N7_28
ROOT
HETATM    1  C8  UNL     1      13.308  50.931 -48.255  1.00  0.00     0.041 A
HETATM    2  C9  UNL     1      13.533  49.909 -47.355  1.00  0.00     0.175 A
HETATM    3  N4  UNL     1      12.486  49.450 -46.641  1.00  0.00    -0.274 N
ATOM      4  H4  UNL     1      12.635  48.695 -45.971  1.00  0.00     0.189 HD
HETATM    5  N5  UNL     1      11.266  49.952 -46.785  1.00  0.00    -0.240 N
ATOM      6  H5  UNL     1      10.506  49.571 -46.222  1.00  0.00     0.208 HD
HETATM    7  N6  UNL     1      11.007  50.920 -47.623  1.00  0.00    -0.271 N
ATOM      8  H6  UNL     1      10.062  51.292 -47.715  1.00  0.00     0.190 HD
HETATM    9  C10 UNL     1      12.035  51.424 -48.377  1.00  0.00     0.124 A
ENDROOT
BRANCH   1  10
HETATM   10  C2  UNL     1      14.418  51.372 -49.063  1.00  0.00     0.114 C
HETATM   11  C1  UNL     1      14.683  52.848 -48.843  1.00  0.00     0.025 C
BRANCH  10  12
HETATM   12  C3  UNL     1      14.046  51.320 -50.535  1.00  0.00     0.228 C
HETATM   13  O1  UNL     1      13.804  52.409 -51.105  1.00  0.00    -0.273 OA
HETATM   14  N1  UNL     1      13.975  50.119 -51.226  1.00  0.00    -0.348 N
HETATM   15  C4  UNL     1      13.631  50.200 -52.676  1.00  0.00     0.153 C
HETATM   16  C7  UNL     1      14.158  48.785 -50.761  1.00  0.00     0.153 C
HETATM   17  C5  UNL     1      14.774  49.472 -53.364  1.00  0.00     0.252 C
HETATM   18  N2  UNL     1      14.629  48.058 -53.056  1.00  0.00    -0.072 N
HETATM   19  C6  UNL     1      13.802  47.825 -51.913  1.00  0.00     0.252 C
ATOM     20  H22 UNL     1      14.289  47.539 -53.866  1.00  0.00     0.277 HD
ATOM     21  H21 UNL     1      15.540  47.612 -52.945  1.00  0.00     0.277 HD
ENDBRANCH  10  12
ENDBRANCH   1  10
BRANCH   2  22
HETATM   22  S1  UNL     1      15.057  49.261 -47.126  1.00  0.00     0.274 S
HETATM   23  O2  UNL     1      16.233  49.892 -47.733  1.00  0.00    -0.199 OA
HETATM   24  O3  UNL     1      15.100  47.637 -47.555  1.00  0.00    -0.199 OA
BRANCH  22  25
HETATM   25  N3  UNL     1      15.366  49.243 -45.572  1.00  0.00    -0.323 N
ATOM     26  H32 UNL     1      16.285  49.396 -45.156  1.00  0.00     0.169 HD
ATOM     27  H31 UNL     1      14.496  49.056 -45.073  1.00  0.00     0.169 HD
ENDBRANCH  22  25
ENDBRANCH   2  22
BRANCH   9  28
HETATM   28  N7  UNL     1      11.674  52.342 -49.196  1.00  0.00    -0.384 N
ATOM     29  H72 UNL     1      10.720  52.671 -49.050  1.00  0.00     0.157 HD
ATOM     30  H71 UNL     1      12.249  52.716 -49.952  1.00  0.00     0.157 HD
ENDBRANCH   9  28
TORSDOF 5
ENDMDL