MODEL 5
REMARK VINA RESULT: -6.420729504      3.053      4.818
REMARK  5 active torsions:
REMARK  status: ('A' for Active; 'I' for Inactive)
REMARK    1  A    between atoms: C2_2  and  N1_3
REMARK    2  A    between atoms: C3_10  and  C4_11
REMARK    3  A    between atoms: C4_11  and  C5_12
REMARK    4  A    between atoms: C5_12  and  N5_13
REMARK    5  A    between atoms: N5_13  and  C6_15
REMARK       I    between atoms: N7_19  and  C8_20
ROOT
HETATM    1  C4  UNL     1      12.191  51.633 -49.138  1.00  0.00     0.217 C
HETATM    2  C7  UNL     1      13.260  51.660 -48.106  1.00  0.00     0.174 C
HETATM    3  N7  UNL     1      14.089  50.431 -48.175  1.00  0.00    -0.348 N
HETATM    4  C8  UNL     1      14.380  49.631 -47.057  1.00  0.00     0.215 C
HETATM    5  C9  UNL     1      15.174  48.403 -47.127  1.00  0.00     0.117 C
HETATM    6  O1  UNL     1      13.948  49.958 -45.897  1.00  0.00    -0.274 OA
HETATM    7  C10 UNL     1      14.578  50.085 -49.485  1.00  0.00     0.153 C
HETATM    8  C11 UNL     1      13.352  49.897 -50.354  1.00  0.00     0.253 C
HETATM    9  N8  UNL     1      12.137  50.216 -49.636  1.00  0.00    -0.054 N
ATOM     10  H81 UNL     1      11.304  50.039 -50.196  1.00  0.00     0.278 HD
ATOM     11  H82 UNL     1      11.954  49.553 -48.882  1.00  0.00     0.278 HD
ENDROOT
BRANCH   1  12
HETATM   12  C3  UNL     1      12.449  52.398 -50.370  1.00  0.00     0.155 A
HETATM   13  N1  UNL     1      13.489  53.176 -50.671  1.00  0.00    -0.261 N
HETATM   14  N2  UNL     1      13.217  53.668 -51.900  1.00  0.00    -0.225 N
HETATM   15  N3  UNL     1      12.068  53.205 -52.322  1.00  0.00    -0.227 N
ATOM     16  H2  UNL     1      13.817  54.307 -52.422  1.00  0.00     0.210 HD
HETATM   17  N4  UNL     1      11.580  52.434 -51.420  1.00  0.00    -0.270 N
ATOM     18  H3  UNL     1      11.633  53.420 -53.219  1.00  0.00     0.210 HD
ATOM     19  H4  UNL     1      10.693  51.934 -51.478  1.00  0.00     0.190 HD
BRANCH  13  20
HETATM   20  C2  UNL     1      14.714  53.495 -49.977  1.00  0.00     0.148 C
HETATM   21  C1  UNL     1      15.932  53.312 -50.891  1.00  0.00     0.028 C
ENDBRANCH  13  20
ENDBRANCH   1  12
BRANCH   1  22
HETATM   22  C5  UNL     1      10.874  51.929 -48.543  1.00  0.00     0.170 C
BRANCH  22  23
HETATM   23  N5  UNL     1      10.410  51.147 -47.442  1.00  0.00    -0.367 N
ATOM     24  H5  UNL     1      10.510  51.644 -46.556  1.00  0.00     0.161 HD
BRANCH  23  25
HETATM   25  C6  UNL     1       9.866  49.902 -47.270  1.00  0.00     0.181 C
HETATM   26  N6  UNL     1       8.698  49.361 -47.845  1.00  0.00    -0.070 NA
HETATM   27  S1  UNL     1      10.635  48.822 -46.243  1.00  0.00    -0.044 SA
ENDBRANCH  23  25
ENDBRANCH  22  23
ENDBRANCH   1  22
TORSDOF 5
ENDMDL