MODEL 4
REMARK VINA RESULT: -5.765135215      2.835      4.376
REMARK  5 active torsions:
REMARK  status: ('A' for Active; 'I' for Inactive)
REMARK       I    between atoms: N3_6  and  C3_8
REMARK    1  A    between atoms: C5_12  and  C6_13
REMARK    2  A    between atoms: C6_13  and  C7_14
REMARK    3  A    between atoms: C6_13  and  C10_20
REMARK    4  A    between atoms: C10_20  and  N6_21
REMARK    5  A    between atoms: C10_20  and  C11_25
ROOT
HETATM    1  C6  UNL     1      15.842  48.323 -52.867  1.00  0.00     0.134 C
ENDROOT
BRANCH   1   2
HETATM    2  C5  UNL     1      16.826  49.107 -53.633  1.00  0.00     0.044 A
HETATM    3  N1  UNL     1      16.911  49.031 -54.971  1.00  0.00    -0.298 N
HETATM    4  C1  UNL     1      16.103  48.214 -55.879  1.00  0.00     0.177 C
HETATM    5  N2  UNL     1      17.879  49.839 -55.407  1.00  0.00    -0.283 N
HETATM    6  C2  UNL     1      18.428  50.443 -54.341  1.00  0.00     0.125 A
ATOM      7  H2  UNL     1      18.155  49.974 -56.379  1.00  0.00     0.188 HD
HETATM    8  N3  UNL     1      19.393  51.302 -54.308  1.00  0.00    -0.296 N
HETATM    9  C4  UNL     1      17.778  49.994 -53.227  1.00  0.00     0.077 A
HETATM   10  C3  UNL     1      20.064  51.767 -55.446  1.00  0.00     0.334 C
ATOM     11  H3  UNL     1      19.683  51.662 -53.399  1.00  0.00     0.171 HD
HETATM   12  N4  UNL     1      21.168  51.088 -55.993  1.00  0.00    -0.040 NA
HETATM   13  O1  UNL     1      19.681  52.836 -56.021  1.00  0.00    -0.251 OA
ENDBRANCH   1   2
BRANCH   1  14
HETATM   14  C7  UNL     1      16.489  47.978 -51.546  1.00  0.00     0.063 A
HETATM   15  N5  UNL     1      17.504  47.165 -51.294  1.00  0.00    -0.362 N
HETATM   16  C8  UNL     1      17.910  47.009 -50.076  1.00  0.00     0.096 A
ATOM     17  H5  UNL     1      17.963  46.665 -52.055  1.00  0.00     0.165 HD
HETATM   18  C9  UNL     1      17.261  47.701 -49.086  1.00  0.00     0.068 A
HETATM   19  S1  UNL     1      16.080  48.555 -49.992  1.00  0.00    -0.086 SA
ENDBRANCH   1  14
BRANCH   1  20
HETATM   20  C10 UNL     1      14.562  49.000 -52.549  1.00  0.00     0.288 C
BRANCH  20  21
HETATM   21  N6  UNL     1      14.462  50.378 -52.913  1.00  0.00    -0.066 N
ATOM     22  H63 UNL     1      15.364  50.709 -53.254  1.00  0.00     0.275 HD
ATOM     23  H62 UNL     1      13.898  50.470 -53.759  1.00  0.00     0.275 HD
ATOM     24  H61 UNL     1      14.111  51.013 -52.197  1.00  0.00     0.275 HD
ENDBRANCH  20  21
BRANCH  20  25
HETATM   25  C11 UNL     1      13.369  48.213 -53.013  1.00  0.00     0.262 C
HETATM   26  N7  UNL     1      12.061  48.706 -52.749  1.00  0.00    -0.060 NA
HETATM   27  O2  UNL     1      13.478  47.135 -53.624  1.00  0.00    -0.275 OA
ENDBRANCH  20  25
ENDBRANCH   1  20
TORSDOF 5
ENDMDL