MODEL 1
REMARK VINA RESULT: -6.690711039      0.000      0.000
REMARK  7 active torsions:
REMARK  status: ('A' for Active; 'I' for Inactive)
REMARK    1  A    between atoms: C3_3  and  C4_4
REMARK    2  A    between atoms: C4_4  and  C5_5
REMARK    3  A    between atoms: C6_9  and  C7_10
REMARK       I    between atoms: C7_10  and  N2_12
REMARK    4  A    between atoms: N2_12  and  C8_14
REMARK    5  A    between atoms: C8_14  and  C9_15
REMARK    6  A    between atoms: C9_15  and  N3_16
REMARK    7  A    between atoms: C11_22  and  O3_23
ROOT
HETATM    1  C5  UNL     1      16.548  49.941 -59.839  1.00  0.00     0.126 A
HETATM    2  O1  UNL     1      15.476  50.700 -59.648  1.00  0.00    -0.235 OA
HETATM    3  N1  UNL     1      15.104  50.679 -58.421  1.00  0.00    -0.253 N
ATOM      4  H1  UNL     1      14.304  51.188 -58.046  1.00  0.00     0.195 HD
HETATM    5  C6  UNL     1      15.922  49.888 -57.697  1.00  0.00     0.149 A
HETATM    6  C10 UNL     1      16.845  49.408 -58.577  1.00  0.00     0.116 A
HETATM    7  N4  UNL     1      17.927  48.536 -58.329  1.00  0.00    -0.097 NA
ENDROOT
BRANCH   1   8
HETATM    8  C4  UNL     1      17.271  49.689 -61.044  1.00  0.00     0.058 C
BRANCH   8   9
HETATM    9  C3  UNL     1      17.077  48.822 -62.009  1.00  0.00     0.028 A
HETATM   10  C2  UNL     1      16.421  48.997 -63.202  1.00  0.00     0.038 A
HETATM   11  C1  UNL     1      15.811  50.036 -63.730  1.00  0.00     0.044 C
HETATM   12  N5  UNL     1      16.505  47.782 -63.844  1.00  0.00    -0.352 N
HETATM   13  C12 UNL     1      17.160  46.898 -63.121  1.00  0.00     0.042 A
HETATM   14  C14 UNL     1      15.934  47.519 -65.161  1.00  0.00     0.156 C
HETATM   15  C11 UNL     1      17.547  47.494 -61.952  1.00  0.00     0.100 A
HETATM   16  C13 UNL     1      17.455  45.475 -63.479  1.00  0.00     0.071 C
BRANCH  15  17
HETATM   17  O3  UNL     1      18.259  46.900 -60.925  1.00  0.00    -0.358 OA
ATOM     18  H3  UNL     1      19.071  46.412 -60.995  1.00  0.00     0.217 HD
ENDBRANCH  15  17
ENDBRANCH   8   9
ENDBRANCH   1   8
BRANCH   5  19
HETATM   19  C7  UNL     1      15.847  49.595 -56.276  1.00  0.00     0.272 C
HETATM   20  O2  UNL     1      16.439  50.340 -55.461  1.00  0.00    -0.266 OA
HETATM   21  N2  UNL     1      15.108  48.474 -55.823  1.00  0.00    -0.354 N
ATOM     22  H2  UNL     1      14.630  47.872 -56.494  1.00  0.00     0.162 HD
BRANCH  21  23
HETATM   23  C8  UNL     1      15.035  48.184 -54.416  1.00  0.00     0.150 C
BRANCH  23  24
HETATM   24  C9  UNL     1      13.624  47.987 -53.938  1.00  0.00     0.249 C
BRANCH  24  25
HETATM   25  N3  UNL     1      13.525  47.010 -52.881  1.00  0.00    -0.078 N
ATOM     26  H33 UNL     1      13.348  46.079 -53.258  1.00  0.00     0.274 HD
ATOM     27  H32 UNL     1      14.434  46.844 -52.451  1.00  0.00     0.274 HD
ATOM     28  H31 UNL     1      12.828  47.259 -52.179  1.00  0.00     0.274 HD
ENDBRANCH  24  25
ENDBRANCH  23  24
ENDBRANCH  21  23
ENDBRANCH   5  19
TORSDOF 7
ENDMDL