MODEL 5
REMARK VINA RESULT: -7.066357008      2.855      7.269
REMARK  7 active torsions:
REMARK  status: ('A' for Active; 'I' for Inactive)
REMARK    1  A    between atoms: C2_2  and  C4_4
REMARK    2  A    between atoms: C4_4  and  N1_5
REMARK    3  A    between atoms: N1_5  and  N2_7
REMARK       I    between atoms: N2_7  and  C5_9
REMARK    4  A    between atoms: C5_9  and  C6_11
REMARK    5  A    between atoms: C6_11  and  N3_12
REMARK    6  A    between atoms: C6_11  and  C7_16
REMARK       I    between atoms: C7_16  and  N4_18
REMARK    7  A    between atoms: N4_18  and  C8_20
ROOT
HETATM    1  C8  UNL     1      12.571  52.203 -49.872  1.00  0.00     0.133 A
HETATM    2  N5  UNL     1      11.647  52.598 -50.764  1.00  0.00    -0.337 N
ATOM      3  H5  UNL     1      10.708  52.839 -50.445  1.00  0.00     0.168 HD
HETATM    4  C9  UNL     1      11.942  52.676 -52.052  1.00  0.00     0.183 A
HETATM    5  N6  UNL     1      13.184  52.357 -52.472  1.00  0.00    -0.340 N
ATOM      6  H6  UNL     1      13.401  52.421 -53.467  1.00  0.00     0.167 HD
HETATM    7  C10 UNL     1      14.144  51.957 -51.622  1.00  0.00     0.141 A
HETATM    8  N7  UNL     1      15.428  51.632 -52.090  1.00  0.00    -0.081 NA
HETATM    9  C11 UNL     1      13.843  51.872 -50.277  1.00  0.00     0.129 A
HETATM   10  C12 UNL     1      14.852  51.443 -49.318  1.00  0.00     0.107 C
HETATM   11  N8  UNL     1      15.643  51.113 -48.541  1.00  0.00    -0.191 NA
ENDROOT
BRANCH   1  12
HETATM   12  N4  UNL     1      12.292  52.123 -48.615  1.00  0.00    -0.309 N
HETATM   13  C7  UNL     1      11.195  51.399 -48.097  1.00  0.00     0.263 C
HETATM   14  O2  UNL     1      10.096  51.988 -47.990  1.00  0.00    -0.270 OA
ATOM     15  H4  UNL     1      12.899  52.612 -47.956  1.00  0.00     0.170 HD
BRANCH  13  16
HETATM   16  C6  UNL     1      11.365  50.006 -47.708  1.00  0.00     0.367 C
BRANCH  16  17
HETATM   17  C5  UNL     1      12.681  49.651 -47.169  1.00  0.00     0.276 C
HETATM   18  N2  UNL     1      13.532  48.666 -47.671  1.00  0.00    -0.269 N
ATOM     19  H2  UNL     1      13.245  48.124 -48.487  1.00  0.00     0.190 HD
HETATM   20  O1  UNL     1      13.083  50.301 -46.148  1.00  0.00    -0.269 OA
BRANCH  18  21
HETATM   21  N1  UNL     1      14.760  48.412 -47.082  1.00  0.00    -0.313 N
ATOM     22  H1  UNL     1      14.998  48.910 -46.225  1.00  0.00     0.185 HD
BRANCH  21  23
HETATM   23  C4  UNL     1      15.621  47.575 -47.564  1.00  0.00     0.084 C
BRANCH  23  24
HETATM   24  C2  UNL     1      16.807  47.191 -46.794  1.00  0.00     0.017 C
HETATM   25  C1  UNL     1      17.053  48.248 -45.712  1.00  0.00     0.015 C
HETATM   26  C3  UNL     1      18.031  47.072 -47.679  1.00  0.00     0.015 C
ENDBRANCH  23  24
ENDBRANCH  21  23
ENDBRANCH  18  21
ENDBRANCH  16  17
BRANCH  16  27
HETATM   27  N3  UNL     1      10.353  49.595 -46.728  1.00  0.00    -0.058 N
ATOM     28  H33 UNL     1      10.693  49.635 -45.767  1.00  0.00     0.275 HD
ATOM     29  H32 UNL     1       9.596  50.272 -46.632  1.00  0.00     0.275 HD
ATOM     30  H31 UNL     1      10.023  48.667 -46.992  1.00  0.00     0.275 HD
ENDBRANCH  16  27
ENDBRANCH  13  16
ENDBRANCH   1  12
TORSDOF 7
ENDMDL