MODEL 5
REMARK VINA RESULT: -6.136972240      1.716      1.934
REMARK  7 active torsions:
REMARK  status: ('A' for Active; 'I' for Inactive)
REMARK    1  A    between atoms: N1_2  and  C3_4
REMARK    2  A    between atoms: C3_4  and  N2_5
REMARK    3  A    between atoms: N2_5  and  C4_7
REMARK    4  A    between atoms: C9_20  and  N7_21
REMARK    5  A    between atoms: N7_21  and  C10_23
REMARK    6  A    between atoms: C10_23  and  C11_24
REMARK    7  A    between atoms: C11_24  and  N8_25
ROOT
HETATM    1  C4  UNL     1      16.323  49.457 -58.075  1.00  0.00     0.679 A
HETATM    2  N3  UNL     1      15.732  50.636 -57.825  1.00  0.00    -0.200 N
ATOM      3  H3  UNL     1      15.422  50.869 -56.881  1.00  0.00     0.183 HD
HETATM    4  C5  UNL     1      15.555  51.501 -58.829  1.00  0.00     0.138 A
HETATM    5  C6  UNL     1      15.965  51.207 -60.112  1.00  0.00     0.078 A
HETATM    6  N4  UNL     1      15.921  51.858 -61.287  1.00  0.00    -0.339 N
ATOM      7  H4  UNL     1      15.530  52.788 -61.438  1.00  0.00     0.167 HD
HETATM    8  C7  UNL     1      16.478  51.081 -62.227  1.00  0.00     0.123 A
HETATM    9  N5  UNL     1      16.678  51.261 -63.535  1.00  0.00    -0.338 N
ATOM     10  H5  UNL     1      16.381  52.127 -63.985  1.00  0.00     0.168 HD
HETATM   11  C8  UNL     1      17.273  50.292 -64.255  1.00  0.00     0.183 A
HETATM   12  N6  UNL     1      17.686  49.121 -63.696  1.00  0.00    -0.338 N
ATOM     13  H6  UNL     1      18.134  48.412 -64.276  1.00  0.00     0.168 HD
HETATM   14  C9  UNL     1      17.508  48.894 -62.389  1.00  0.00     0.122 A
HETATM   15  C12 UNL     1      16.900  49.877 -61.642  1.00  0.00     0.082 A
HETATM   16  C13 UNL     1      16.571  49.965 -60.304  1.00  0.00     0.095 A
HETATM   17  N9  UNL     1      16.753  49.100 -59.317  1.00  0.00    -0.189 N
ATOM     18  H9  UNL     1      17.200  48.197 -59.482  1.00  0.00     0.184 HD
ENDROOT
BRANCH  14  19
HETATM   19  N7  UNL     1      17.881  47.821 -61.854  1.00  0.00    -0.353 N
ATOM     20  H7  UNL     1      18.715  47.902 -61.272  1.00  0.00     0.166 HD
BRANCH  19  21
HETATM   21  C10 UNL     1      17.339  46.526 -61.924  1.00  0.00     0.089 C
BRANCH  21  22
HETATM   22  C11 UNL     1      17.795  45.682 -63.070  1.00  0.00     0.274 C
BRANCH  22  23
HETATM   23  N8  UNL     1      17.011  44.443 -63.039  1.00  0.00    -0.075 N
ATOM     24  H83 UNL     1      17.501  43.651 -63.454  1.00  0.00     0.274 HD
ATOM     25  H82 UNL     1      16.909  44.059 -62.100  1.00  0.00     0.274 HD
ATOM     26  H81 UNL     1      16.116  44.638 -63.488  1.00  0.00     0.274 HD
ENDBRANCH  22  23
ENDBRANCH  21  22
ENDBRANCH  19  21
ENDBRANCH  14  19
BRANCH   1  27
HETATM   27  N2  UNL     1      16.478  48.646 -57.084  1.00  0.00    -0.199 N
ATOM     28  H2  UNL     1      17.420  48.363 -56.815  1.00  0.00     0.179 HD
BRANCH  27  29
HETATM   29  C3  UNL     1      15.356  48.133 -56.352  1.00  0.00     0.410 C
BRANCH  29  30
HETATM   30  N1  UNL     1      15.236  48.695 -55.031  1.00  0.00     0.097 N
HETATM   31  C1  UNL     1      16.455  48.571 -54.267  1.00  0.00     0.311 C
HETATM   32  C2  UNL     1      14.167  48.049 -54.284  1.00  0.00     0.311 C
ENDBRANCH  29  30
ENDBRANCH  27  29
ENDBRANCH   1  27
TORSDOF 7
ENDMDL