MODEL 1
REMARK VINA RESULT: -5.251717845      0.000      0.000
REMARK  3 active torsions:
REMARK  status: ('A' for Active; 'I' for Inactive)
REMARK    1  A    between atoms: N1_1  and  C1_4
REMARK    2  A    between atoms: C2_7  and  C3_8
REMARK       I    between atoms: C3_8  and  N3_10
REMARK    3  A    between atoms: N3_10  and  N4_12
ROOT
HETATM    1  C1  UNL     1      38.795  31.309  48.545  1.00  0.00     0.691 A
HETATM    2  N2  UNL     1      39.308  30.715  49.649  1.00  0.00    -0.180 N
ATOM      3  H2  UNL     1      40.302  30.490  49.671  1.00  0.00     0.184 HD
HETATM    4  C2  UNL     1      38.547  30.413  50.718  1.00  0.00     0.187 A
HETATM    5  C4  UNL     1      37.203  30.749  50.619  1.00  0.00     0.293 A
HETATM    6  O2  UNL     1      36.474  30.481  51.595  1.00  0.00    -0.264 OA
HETATM    7  N5  UNL     1      36.682  31.340  49.527  1.00  0.00    -0.250 N
ATOM      8  H5  UNL     1      35.690  31.574  49.485  1.00  0.00     0.191 HD
HETATM    9  N6  UNL     1      37.493  31.613  48.499  1.00  0.00    -0.130 N
ATOM     10  H6  UNL     1      37.112  32.060  47.666  1.00  0.00     0.205 HD
ENDROOT
BRANCH   4  11
HETATM   11  C3  UNL     1      39.088  29.775  51.910  1.00  0.00     0.292 C
HETATM   12  O1  UNL     1      40.044  30.301  52.524  1.00  0.00    -0.264 OA
HETATM   13  N3  UNL     1      38.540  28.564  52.376  1.00  0.00    -0.271 N
ATOM     14  H3  UNL     1      37.762  28.147  51.865  1.00  0.00     0.189 HD
BRANCH  13  15
HETATM   15  N4  UNL     1      39.024  27.917  53.509  1.00  0.00    -0.342 N
ATOM     16  H42 UNL     1      39.044  28.442  54.384  1.00  0.00     0.176 HD
ATOM     17  H41 UNL     1      39.351  26.951  53.487  1.00  0.00     0.176 HD
ENDBRANCH  13  15
ENDBRANCH   4  11
BRANCH   1  18
HETATM   18  N1  UNL     1      39.538  31.598  47.517  1.00  0.00    -0.233 N
ATOM     19  H12 UNL     1      40.550  31.513  47.607  1.00  0.00     0.174 HD
ATOM     20  H11 UNL     1      39.133  31.904  46.632  1.00  0.00     0.174 HD
ENDBRANCH   1  18
TORSDOF 3
ENDMDL