MODEL 4
REMARK VINA RESULT: -4.929355910      2.029      3.442
REMARK  1 active torsions:
REMARK  status: ('A' for Active; 'I' for Inactive)
REMARK    1  A    between atoms: N1_1  and  C1_4
REMARK       I    between atoms: N3_9  and  C3_10
REMARK       I    between atoms: C3_10  and  N4_11
REMARK       I    between atoms: C3_10  and  N5_15
ROOT
HETATM    1  C1  UNL     1      38.918  29.443  51.563  1.00  0.00     0.683 A
HETATM    2  N2  UNL     1      39.285  29.658  50.292  1.00  0.00    -0.141 N
ATOM      3  H2  UNL     1      40.241  29.462  50.000  1.00  0.00     0.189 HD
HETATM    4  C2  UNL     1      38.385  30.139  49.387  1.00  0.00     0.347 A
HETATM    5  O1  UNL     1      38.739  30.338  48.201  1.00  0.00    -0.246 OA
HETATM    6  N3  UNL     1      37.121  30.407  49.744  1.00  0.00    -0.197 N
HETATM    7  C3  UNL     1      36.155  30.917  48.798  1.00  0.00     0.494 C
HETATM    8  N4  UNL     1      36.798  31.500  47.635  1.00  0.00    -0.032 N
ATOM      9  H41 UNL     1      36.116  31.860  46.968  1.00  0.00     0.279 HD
ATOM     10  H42 UNL     1      37.438  30.839  47.194  1.00  0.00     0.279 HD
ATOM     11  H43 UNL     1      37.470  32.219  47.903  1.00  0.00     0.279 HD
HETATM   12  N5  UNL     1      35.269  31.891  49.347  1.00  0.00    -0.032 N
ATOM     13  H51 UNL     1      34.587  32.252  48.680  1.00  0.00     0.279 HD
ATOM     14  H52 UNL     1      35.795  32.656  49.771  1.00  0.00     0.279 HD
ATOM     15  H53 UNL     1      34.801  31.525  50.177  1.00  0.00     0.279 HD
HETATM   16  C4  UNL     1      36.755  30.194  51.004  1.00  0.00     0.347 A
HETATM   17  O2  UNL     1      35.591  30.424  51.394  1.00  0.00    -0.246 OA
HETATM   18  N6  UNL     1      37.647  29.712  51.919  1.00  0.00    -0.141 N
ATOM     19  H6  UNL     1      37.349  29.556  52.882  1.00  0.00     0.189 HD
ENDROOT
BRANCH   1  20
HETATM   20  N1  UNL     1      39.751  28.992  52.422  1.00  0.00    -0.234 N
ATOM     21  H12 UNL     1      40.756  29.094  52.273  1.00  0.00     0.174 HD
ATOM     22  H11 UNL     1      39.431  28.524  53.270  1.00  0.00     0.174 HD
ENDBRANCH   1  20
TORSDOF 1
ENDMDL