MODEL 2
REMARK VINA RESULT: -3.449860939      1.013      3.608
REMARK  2 active torsions:
REMARK  status: ('A' for Active; 'I' for Inactive)
REMARK    1  A    between atoms: C3_7  and  N3_8
REMARK       I    between atoms: N4_11  and  C4_12
REMARK    2  A    between atoms: C5_15  and  N6_16
ROOT
HETATM    1  C1  UNL     1      36.817  29.782  52.004  1.00  0.00     0.180 C
HETATM    2  N1  UNL     1      36.937  30.320  50.652  1.00  0.00    -0.136 N
HETATM    3  C2  UNL     1      35.905  30.312  49.790  1.00  0.00     0.354 A
HETATM    4  O1  UNL     1      34.800  29.828  50.158  1.00  0.00    -0.245 OA
HETATM    5  N2  UNL     1      36.070  30.823  48.550  1.00  0.00    -0.140 N
ATOM      6  H2  UNL     1      35.296  30.824  47.885  1.00  0.00     0.189 HD
HETATM    7  C3  UNL     1      37.273  31.332  48.200  1.00  0.00     0.705 A
HETATM    8  N4  UNL     1      38.297  31.333  49.070  1.00  0.00     0.073 N
HETATM    9  C4  UNL     1      39.546  31.870  48.684  1.00  0.00     0.370 C
HETATM   10  N5  UNL     1      39.763  32.414  47.401  1.00  0.00    -0.038 NA
HETATM   11  O2  UNL     1      40.492  31.864  49.509  1.00  0.00    -0.249 OA
HETATM   12  C5  UNL     1      38.139  30.828  50.302  1.00  0.00     0.707 A
ENDROOT
BRANCH   7  13
HETATM   13  N3  UNL     1      37.433  31.816  47.029  1.00  0.00    -0.233 N
ATOM     14  H32 UNL     1      36.646  32.249  46.547  1.00  0.00     0.174 HD
ATOM     15  H31 UNL     1      38.351  31.763  46.587  1.00  0.00     0.174 HD
ENDBRANCH   7  13
BRANCH  12  16
HETATM   16  N6  UNL     1      39.134  30.827  51.157  1.00  0.00    -0.233 N
ATOM     17  H62 UNL     1      39.134  30.190  51.953  1.00  0.00     0.174 HD
ATOM     18  H61 UNL     1      39.920  31.464  51.033  1.00  0.00     0.174 HD
ENDBRANCH  12  16
TORSDOF 2
ENDMDL