MODEL 1
REMARK VINA RESULT: -6.431386835      0.000      0.000
REMARK  3 active torsions:
REMARK  status: ('A' for Active; 'I' for Inactive)
REMARK    1  A    between atoms: N1_1  and  N2_4
REMARK    2  A    between atoms: N2_4  and  C1_6
REMARK    3  A    between atoms: C4_15  and  C5_16
ROOT
HETATM    1  C1  UNL     1      38.704  30.934  50.075  1.00  0.00     0.142 A
HETATM    2  N3  UNL     1      39.335  30.191  51.004  1.00  0.00    -0.292 N
ATOM      3  H3  UNL     1      40.350  30.255  51.065  1.00  0.00     0.172 HD
HETATM    4  C2  UNL     1      38.697  29.370  51.854  1.00  0.00     0.327 A
HETATM    5  O1  UNL     1      39.316  28.678  52.723  1.00  0.00    -0.247 OA
HETATM    6  N4  UNL     1      37.359  29.275  51.784  1.00  0.00    -0.296 N
ATOM      7  H4  UNL     1      36.853  28.657  52.420  1.00  0.00     0.171 HD
HETATM    8  C3  UNL     1      36.687  30.005  50.863  1.00  0.00     0.139 A
HETATM    9  N5  UNL     1      35.270  29.922  50.770  1.00  0.00    -0.081 NA
HETATM   10  C4  UNL     1      37.333  30.849  49.989  1.00  0.00     0.115 A
ENDROOT
BRANCH   1  11
HETATM   11  N2  UNL     1      39.304  31.717  49.262  1.00  0.00    -0.291 N
ATOM     12  H2  UNL     1      39.309  32.714  49.473  1.00  0.00     0.188 HD
BRANCH  11  13
HETATM   13  N1  UNL     1      39.952  31.288  48.102  1.00  0.00    -0.344 N
ATOM     14  H12 UNL     1      40.893  30.909  48.210  1.00  0.00     0.176 HD
ATOM     15  H11 UNL     1      39.539  31.333  47.169  1.00  0.00     0.176 HD
ENDBRANCH  11  13
ENDBRANCH   1  11
BRANCH  10  16
HETATM   16  C5  UNL     1      36.585  31.634  48.995  1.00  0.00     0.272 C
HETATM   17  N6  UNL     1      36.937  31.579  47.623  1.00  0.00    -0.057 NA
HETATM   18  O2  UNL     1      35.626  32.370  49.315  1.00  0.00    -0.271 OA
ENDBRANCH  10  16
TORSDOF 3
ENDMDL