MODEL 5
REMARK VINA RESULT: -5.095051976      1.708      3.544
REMARK  3 active torsions:
REMARK  status: ('A' for Active; 'I' for Inactive)
REMARK    1  A    between atoms: N1_1  and  N2_4
REMARK    2  A    between atoms: N2_4  and  C1_6
REMARK    3  A    between atoms: C1_6  and  N3_8
ROOT
HETATM    1  N3  UNL     1      37.468  30.621  49.734  1.00  0.00    -0.173 N
HETATM    2  N4  UNL     1      36.855  30.432  48.554  1.00  0.00    -0.238 N
ATOM      3  H4  UNL     1      37.293  30.554  47.641  1.00  0.00     0.192 HD
HETATM    4  C2  UNL     1      35.580  30.058  48.755  1.00  0.00     0.343 A
HETATM    5  O1  UNL     1      34.699  29.793  47.899  1.00  0.00    -0.245 OA
HETATM    6  N5  UNL     1      35.354  30.001  50.077  1.00  0.00    -0.258 N
ATOM      7  H5  UNL     1      34.485  29.749  50.548  1.00  0.00     0.175 HD
HETATM    8  C3  UNL     1      36.520  30.349  50.648  1.00  0.00     0.352 A
HETATM    9  O2  UNL     1      36.708  30.412  51.890  1.00  0.00    -0.244 OA
ENDROOT
BRANCH   1  10
HETATM   10  C1  UNL     1      38.815  31.019  49.958  1.00  0.00     0.216 C
HETATM   11  S1  UNL     1      39.698  31.775  48.805  1.00  0.00    -0.037 SA
BRANCH  10  12
HETATM   12  N2  UNL     1      39.407  30.753  51.217  1.00  0.00    -0.281 N
ATOM     13  H2  UNL     1      39.811  31.514  51.765  1.00  0.00     0.189 HD
BRANCH  12  14
HETATM   14  N1  UNL     1      39.433  29.449  51.703  1.00  0.00    -0.343 N
ATOM     15  H12 UNL     1      40.216  29.151  52.285  1.00  0.00     0.176 HD
ATOM     16  H11 UNL     1      38.674  28.809  51.472  1.00  0.00     0.176 HD
ENDBRANCH  12  14
ENDBRANCH  10  12
ENDBRANCH   1  10
TORSDOF 3
ENDMDL