MODEL 1
REMARK VINA RESULT: -4.527936262      0.000      0.000
REMARK  5 active torsions:
REMARK  status: ('A' for Active; 'I' for Inactive)
REMARK    1  A    between atoms: N1_1  and  N2_4
REMARK    2  A    between atoms: N2_4  and  C1_6
REMARK    3  A    between atoms: C1_6  and  N3_8
REMARK    4  A    between atoms: N3_8  and  N4_10
REMARK    5  A    between atoms: N4_10  and  C2_12
ROOT
HETATM    1  N3  UNL     1      39.274  29.244  51.670  1.00  0.00    -0.272 N
ATOM      2  H3  UNL     1      38.784  28.501  51.171  1.00  0.00     0.189 HD
ENDROOT
BRANCH   1   3
HETATM    3  C1  UNL     1      39.976  28.954  52.872  1.00  0.00     0.205 C
HETATM    4  S1  UNL     1      39.358  27.841  53.889  1.00  0.00    -0.038 SA
BRANCH   3   5
HETATM    5  N2  UNL     1      41.177  29.593  53.210  1.00  0.00    -0.282 N
ATOM      6  H2  UNL     1      41.407  30.448  52.703  1.00  0.00     0.189 HD
BRANCH   5   7
HETATM    7  N1  UNL     1      42.075  29.170  54.164  1.00  0.00    -0.343 N
ATOM      8  H12 UNL     1      42.293  29.842  54.901  1.00  0.00     0.176 HD
ATOM      9  H11 UNL     1      42.529  28.257  54.194  1.00  0.00     0.176 HD
ENDBRANCH   5   7
ENDBRANCH   3   5
ENDBRANCH   1   3
BRANCH   1  10
HETATM   10  N4  UNL     1      39.257  30.569  51.169  1.00  0.00    -0.269 N
ATOM     11  H4  UNL     1      40.030  31.208  51.357  1.00  0.00     0.190 HD
BRANCH  10  12
HETATM   12  C2  UNL     1      38.136  30.988  50.399  1.00  0.00     0.190 C
HETATM   13  N5  UNL     1      36.901  30.846  50.737  1.00  0.00    -0.360 N
HETATM   14  C3  UNL     1      36.024  31.384  49.722  1.00  0.00     0.142 C
ATOM     15  H5  UNL     1      36.586  30.411  51.604  1.00  0.00     0.162 HD
HETATM   16  C4  UNL     1      36.916  31.382  48.502  1.00  0.00     0.142 C
HETATM   17  N6  UNL     1      38.213  31.634  49.121  1.00  0.00    -0.360 N
ATOM     18  H6  UNL     1      38.999  32.154  48.732  1.00  0.00     0.162 HD
ENDBRANCH  10  12
ENDBRANCH   1  10
TORSDOF 5
ENDMDL