MODEL 3
REMARK VINA RESULT: -3.393674795      1.767      3.570
REMARK  3 active torsions:
REMARK  status: ('A' for Active; 'I' for Inactive)
REMARK    1  A    between atoms: N1_2  and  C3_4
REMARK    2  A    between atoms: C5_11  and  N4_12
REMARK    3  A    between atoms: C6_15  and  N5_16
ROOT
HETATM    1  C3  UNL     1      38.678  29.962  51.415  1.00  0.00     0.685 C
HETATM    2  N2  UNL     1      39.313  30.564  50.359  1.00  0.00    -0.141 N
ATOM      3  H2  UNL     1      40.323  30.428  50.324  1.00  0.00     0.189 HD
HETATM    4  C4  UNL     1      38.792  31.318  49.347  1.00  0.00     0.340 C
HETATM    5  O1  UNL     1      39.440  32.306  48.927  1.00  0.00    -0.246 OA
HETATM    6  N3  UNL     1      37.606  31.060  48.766  1.00  0.00    -0.291 N
ATOM      7  H3  UNL     1      37.471  31.443  47.830  1.00  0.00     0.172 HD
HETATM    8  C5  UNL     1      36.568  30.350  49.278  1.00  0.00     0.147 C
HETATM    9  C6  UNL     1      36.373  30.072  50.636  1.00  0.00     0.159 C
HETATM   10  N6  UNL     1      37.322  29.904  51.581  1.00  0.00    -0.173 N
ATOM     11  H6  UNL     1      36.989  29.713  52.526  1.00  0.00     0.186 HD
ENDROOT
BRANCH   1  12
HETATM   12  N1  UNL     1      39.434  29.334  52.405  1.00  0.00    -0.226 N
HETATM   13  C1  UNL     1      39.034  28.080  52.996  1.00  0.00     0.168 C
HETATM   14  C2  UNL     1      40.700  29.940  52.866  1.00  0.00     0.168 C
ENDBRANCH   1  12
BRANCH   9  15
HETATM   15  N5  UNL     1      35.156  29.968  51.023  1.00  0.00    -0.382 N
ATOM     16  H52 UNL     1      34.612  29.207  50.617  1.00  0.00     0.157 HD
ATOM     17  H51 UNL     1      34.841  30.657  51.705  1.00  0.00     0.157 HD
ENDBRANCH   9  15
BRANCH   8  18
HETATM   18  N4  UNL     1      35.670  29.881  48.504  1.00  0.00    -0.382 N
ATOM     19  H42 UNL     1      35.541  28.871  48.563  1.00  0.00     0.157 HD
ATOM     20  H41 UNL     1      35.144  30.505  47.892  1.00  0.00     0.157 HD
ENDBRANCH   8  18
TORSDOF 3
ENDMDL