MODEL 3
REMARK VINA RESULT: -3.875374004      2.206      3.184
REMARK  2 active torsions:
REMARK  status: ('A' for Active; 'I' for Inactive)
REMARK    1  A    between atoms: N1_1  and  N2_4
REMARK    2  A    between atoms: N5_15  and  N6_16
ROOT
HETATM    1  N2  UNL     1      35.699  30.105  51.179  1.00  0.00    -0.135 N
ATOM      2  H2  UNL     1      34.785  29.988  50.742  1.00  0.00     0.205 HD
HETATM    3  C1  UNL     1      36.705  30.557  50.504  1.00  0.00     0.735 A
HETATM    4  N3  UNL     1      37.940  30.721  51.068  1.00  0.00    -0.128 N
ATOM      5  H3  UNL     1      38.073  30.480  52.050  1.00  0.00     0.205 HD
HETATM    6  N4  UNL     1      38.960  31.182  50.379  1.00  0.00    -0.271 N
ATOM      7  H4  UNL     1      39.868  31.293  50.829  1.00  0.00     0.188 HD
HETATM    8  C2  UNL     1      38.809  31.505  49.089  1.00  0.00     0.186 A
HETATM    9  S1  UNL     1      40.074  32.075  48.240  1.00  0.00    -0.053 SA
HETATM   10  C3  UNL     1      37.573  31.361  48.451  1.00  0.00     0.321 A
HETATM   11  O1  UNL     1      37.473  31.675  47.238  1.00  0.00    -0.262 OA
HETATM   12  N5  UNL     1      36.560  30.886  49.197  1.00  0.00    -0.049 N
ENDROOT
BRANCH   1  13
HETATM   13  N1  UNL     1      35.897  29.780  52.521  1.00  0.00    -0.331 N
ATOM     14  H12 UNL     1      36.671  30.198  53.037  1.00  0.00     0.177 HD
ATOM     15  H11 UNL     1      35.252  29.122  52.958  1.00  0.00     0.177 HD
ENDBRANCH   1  13
BRANCH  12  16
HETATM   16  N6  UNL     1      35.303  30.726  48.602  1.00  0.00    -0.321 N
ATOM     17  H62 UNL     1      34.978  31.433  47.943  1.00  0.00     0.178 HD
ATOM     18  H61 UNL     1      34.749  29.905  48.848  1.00  0.00     0.178 HD
ENDBRANCH  12  16
TORSDOF 2
ENDMDL