MODEL 1
REMARK VINA RESULT: -5.032845270      0.000      0.000
REMARK  4 active torsions:
REMARK  status: ('A' for Active; 'I' for Inactive)
REMARK    1  A    between atoms: N1_1  and  N2_4
REMARK    2  A    between atoms: N2_4  and  C1_6
REMARK    3  A    between atoms: C3_12  and  C4_13
REMARK       I    between atoms: C4_13  and  N5_15
REMARK    4  A    between atoms: N5_15  and  N6_17
ROOT
HETATM    1  C1  UNL     1      37.068  31.352  49.313  1.00  0.00     0.147 A
HETATM    2  N3  UNL     1      38.003  31.878  48.473  1.00  0.00    -0.336 N
ATOM      3  H3  UNL     1      37.740  32.383  47.627  1.00  0.00     0.168 HD
HETATM    4  C2  UNL     1      39.290  31.696  48.817  1.00  0.00     0.182 A
HETATM    5  N4  UNL     1      39.650  31.038  49.920  1.00  0.00    -0.346 N
ATOM      6  H4  UNL     1      40.644  30.936  50.123  1.00  0.00     0.167 HD
HETATM    7  C3  UNL     1      38.753  30.500  50.783  1.00  0.00     0.131 A
HETATM    8  C5  UNL     1      37.426  30.670  50.454  1.00  0.00     0.124 A
HETATM    9  N7  UNL     1      36.390  30.142  51.295  1.00  0.00    -0.096 NA
ENDROOT
BRANCH   7  10
HETATM   10  C4  UNL     1      39.136  29.788  51.973  1.00  0.00     0.288 C
HETATM   11  O1  UNL     1      40.048  30.267  52.698  1.00  0.00    -0.264 OA
HETATM   12  N5  UNL     1      38.555  28.572  52.396  1.00  0.00    -0.271 N
ATOM     13  H5  UNL     1      37.815  28.166  51.824  1.00  0.00     0.189 HD
BRANCH  12  14
HETATM   14  N6  UNL     1      38.941  27.896  53.553  1.00  0.00    -0.342 N
ATOM     15  H62 UNL     1      38.882  28.408  54.434  1.00  0.00     0.176 HD
ATOM     16  H61 UNL     1      39.272  26.931  53.558  1.00  0.00     0.176 HD
ENDBRANCH  12  14
ENDBRANCH   7  10
BRANCH   1  17
HETATM   17  N2  UNL     1      35.845  31.529  48.977  1.00  0.00    -0.290 N
ATOM     18  H2  UNL     1      35.484  32.483  48.994  1.00  0.00     0.188 HD
BRANCH  17  19
HETATM   19  N1  UNL     1      34.976  30.515  48.592  1.00  0.00    -0.344 N
ATOM     20  H12 UNL     1      34.285  30.219  49.281  1.00  0.00     0.176 HD
ATOM     21  H11 UNL     1      34.988  30.058  47.680  1.00  0.00     0.176 HD
ENDBRANCH  17  19
ENDBRANCH   1  17
TORSDOF 4
ENDMDL