MODEL 4
REMARK VINA RESULT: -5.054666216      2.123      3.755
REMARK  5 active torsions:
REMARK  status: ('A' for Active; 'I' for Inactive)
REMARK    1  A    between atoms: N1_1  and  N2_4
REMARK    2  A    between atoms: N2_4  and  C1_6
REMARK    3  A    between atoms: C3_15  and  C4_16
REMARK    4  A    between atoms: C4_16  and  N6_17
REMARK    5  A    between atoms: C4_16  and  N7_21
ROOT
HETATM    1  C1  UNL     1      37.601  30.518  48.891  1.00  0.00     0.151 A
HETATM    2  N3  UNL     1      38.250  31.281  47.994  1.00  0.00    -0.291 N
ATOM      3  H3  UNL     1      37.831  31.423  47.075  1.00  0.00     0.172 HD
HETATM    4  C2  UNL     1      39.434  31.863  48.263  1.00  0.00     0.340 A
HETATM    5  O1  UNL     1      40.054  32.580  47.435  1.00  0.00    -0.245 OA
HETATM    6  N4  UNL     1      39.962  31.664  49.470  1.00  0.00    -0.251 N
ATOM      7  H4  UNL     1      40.858  32.098  49.694  1.00  0.00     0.191 HD
HETATM    8  N5  UNL     1      39.362  30.918  50.394  1.00  0.00    -0.293 N
ATOM      9  H5  UNL     1      39.798  30.787  51.307  1.00  0.00     0.187 HD
HETATM   10  C3  UNL     1      38.191  30.341  50.128  1.00  0.00     0.128 A
ENDROOT
BRANCH  10  11
HETATM   11  C4  UNL     1      37.558  29.514  51.201  1.00  0.00     0.432 C
BRANCH  11  12
HETATM   12  N6  UNL     1      38.561  29.138  52.172  1.00  0.00    -0.045 N
ATOM     13  H63 UNL     1      38.679  29.845  52.898  1.00  0.00     0.277 HD
ATOM     14  H62 UNL     1      38.253  28.368  52.766  1.00  0.00     0.277 HD
ATOM     15  H61 UNL     1      39.436  28.928  51.691  1.00  0.00     0.277 HD
ENDBRANCH  11  12
BRANCH  11  16
HETATM   16  N7  UNL     1      36.544  30.284  51.845  1.00  0.00    -0.045 N
ATOM     17  H73 UNL     1      35.616  29.879  51.729  1.00  0.00     0.277 HD
ATOM     18  H72 UNL     1      36.599  30.227  52.861  1.00  0.00     0.277 HD
ATOM     19  H71 UNL     1      36.592  31.246  51.506  1.00  0.00     0.277 HD
ENDBRANCH  11  16
ENDBRANCH  10  11
BRANCH   1  20
HETATM   20  N2  UNL     1      36.463  29.957  48.632  1.00  0.00    -0.290 N
ATOM     21  H2  UNL     1      36.421  28.965  48.400  1.00  0.00     0.188 HD
BRANCH  20  22
HETATM   22  N1  UNL     1      35.293  30.719  48.673  1.00  0.00    -0.344 N
ATOM     23  H12 UNL     1      35.167  31.475  47.999  1.00  0.00     0.176 HD
ATOM     24  H11 UNL     1      34.581  30.512  49.373  1.00  0.00     0.176 HD
ENDBRANCH  20  22
ENDBRANCH   1  20
TORSDOF 5
ENDMDL