MODEL 4
REMARK VINA RESULT: -6.570395955      0.765      2.544
REMARK  12 active torsions:
REMARK  status: ('A' for Active; 'I' for Inactive)
REMARK    1  A    between atoms: N1_1  and  C1_4
REMARK    2  A    between atoms: C2_7  and  N3_8
REMARK    3  A    between atoms: N3_8  and  N4_10
REMARK    4  A    between atoms: C3_15  and  N6_16
REMARK    5  A    between atoms: N6_16  and  C4_18
REMARK    6  A    between atoms: C4_18  and  C5_19
REMARK    7  A    between atoms: C5_19  and  C6_20
REMARK    8  A    between atoms: C6_20  and  N7_21
REMARK    9  A    between atoms: N7_21  and  C7_23
REMARK   10  A    between atoms: C7_23  and  C8_24
REMARK   11  A    between atoms: C8_24  and  C9_25
REMARK   12  A    between atoms: C9_25  and  N8_26
ROOT
HETATM    1  C1  UNL     1       3.378 -10.611   4.428  1.00  0.00     0.705 A
HETATM    2  N2  UNL     1       4.006 -11.399   5.349  1.00  0.00    -0.020 N
ATOM      3  H2  UNL     1       4.344 -11.007   6.228  1.00  0.00     0.203 HD
HETATM    4  C2  UNL     1       4.170 -12.713   5.066  1.00  0.00     0.725 A
HETATM    5  N5  UNL     1       3.709 -13.183   3.900  1.00  0.00    -0.020 N
ATOM      6  H5  UNL     1       3.837 -14.175   3.700  1.00  0.00     0.203 HD
HETATM    7  C3  UNL     1       3.087 -12.429   2.973  1.00  0.00     0.707 A
HETATM    8  N9  UNL     1       2.934 -11.128   3.271  1.00  0.00    -0.022 N
ATOM      9  H9  UNL     1       2.469 -10.517   2.601  1.00  0.00     0.203 HD
ENDROOT
BRANCH   7  10
HETATM   10  N6  UNL     1       2.660 -12.925   1.866  1.00  0.00    -0.225 N
ATOM     11  H6  UNL     1       2.064 -13.752   1.867  1.00  0.00     0.177 HD
BRANCH  10  12
HETATM   12  C4  UNL     1       3.034 -12.298   0.630  1.00  0.00     0.139 C
BRANCH  12  13
HETATM   13  C5  UNL     1       3.491 -13.400  -0.326  1.00  0.00     0.039 C
BRANCH  13  14
HETATM   14  C6  UNL     1       5.001 -13.387  -0.312  1.00  0.00     0.115 C
BRANCH  14  15
HETATM   15  N7  UNL     1       5.523 -14.714  -0.129  1.00  0.00    -0.421 N
ATOM     16  H7  UNL     1       6.014 -15.219  -0.868  1.00  0.00     0.153 HD
BRANCH  15  17
HETATM   17  C7  UNL     1       5.300 -15.276   1.175  1.00  0.00     0.115 C
BRANCH  17  18
HETATM   18  C8  UNL     1       6.040 -16.599   1.220  1.00  0.00     0.046 C
BRANCH  18  19
HETATM   19  C9  UNL     1       6.414 -16.935  -0.219  1.00  0.00     0.231 C
BRANCH  19  20
HETATM   20  N8  UNL     1       7.477 -17.900  -0.270  1.00  0.00    -0.079 N
ATOM     21  H83 UNL     1       8.381 -17.454  -0.426  1.00  0.00     0.274 HD
ATOM     22  H82 UNL     1       7.659 -18.305   0.649  1.00  0.00     0.274 HD
ATOM     23  H81 UNL     1       7.290 -18.621  -0.966  1.00  0.00     0.274 HD
ENDBRANCH  19  20
ENDBRANCH  18  19
ENDBRANCH  17  18
ENDBRANCH  15  17
ENDBRANCH  14  15
ENDBRANCH  13  14
ENDBRANCH  12  13
ENDBRANCH  10  12
ENDBRANCH   7  10
BRANCH   4  24
HETATM   24  N3  UNL     1       4.770 -13.435   5.954  1.00  0.00    -0.138 N
ATOM     25  H3  UNL     1       5.199 -12.999   6.770  1.00  0.00     0.205 HD
BRANCH  24  26
HETATM   26  N4  UNL     1       4.822 -14.804   5.784  1.00  0.00    -0.331 N
ATOM     27  H42 UNL     1       4.372 -15.227   4.972  1.00  0.00     0.177 HD
ATOM     28  H41 UNL     1       5.313 -15.372   6.475  1.00  0.00     0.177 HD
ENDBRANCH  24  26
ENDBRANCH   4  24
BRANCH   1  29
HETATM   29  N1  UNL     1       3.240  -9.374   4.733  1.00  0.00    -0.234 N
ATOM     30  H12 UNL     1       2.577  -9.049   5.437  1.00  0.00     0.174 HD
ATOM     31  H11 UNL     1       3.834  -8.713   4.233  1.00  0.00     0.174 HD
ENDBRANCH   1  29
TORSDOF 12
ENDMDL