MODEL 4
REMARK VINA RESULT: -5.601430830      2.412      4.062
REMARK  11 active torsions:
REMARK  status: ('A' for Active; 'I' for Inactive)
REMARK    1  A    between atoms: N1_1  and  C1_5
REMARK    2  A    between atoms: C1_5  and  C2_6
REMARK    3  A    between atoms: C2_6  and  N2_7
REMARK    4  A    between atoms: N2_7  and  C3_9
REMARK    5  A    between atoms: C3_9  and  C4_10
REMARK    6  A    between atoms: C4_10  and  S1_11
REMARK    7  A    between atoms: S1_11  and  C5_12
REMARK    8  A    between atoms: C6_13  and  N3_14
REMARK    9  A    between atoms: C8_19  and  N4_20
REMARK   10  A    between atoms: C9_24  and  O1_25
REMARK   11  A    between atoms: C10_27  and  N5_28
ROOT
HETATM    1  C5  UNL     1       4.711 -13.767   1.095  1.00  0.00     0.110 C
HETATM    2  C6  UNL     1       5.138 -12.361   0.739  1.00  0.00     0.201 C
HETATM    3  C7  UNL     1       4.414 -11.392   1.627  1.00  0.00     0.069 C
HETATM    4  C8  UNL     1       3.706 -12.061   2.797  1.00  0.00     0.216 C
HETATM    5  C9  UNL     1       2.649 -12.991   2.256  1.00  0.00     0.180 C
HETATM    6  C10 UNL     1       3.181 -13.845   1.123  1.00  0.00     0.229 C
ENDROOT
BRANCH   1   7
HETATM    7  S1  UNL     1       5.410 -15.037   0.034  1.00  0.00    -0.158 SA
BRANCH   7   8
HETATM    8  C4  UNL     1       5.983 -16.475   0.914  1.00  0.00     0.094 C
BRANCH   8   9
HETATM    9  C3  UNL     1       5.492 -16.390   2.367  1.00  0.00     0.129 C
BRANCH   9  10
HETATM   10  N2  UNL     1       5.153 -17.680   2.870  1.00  0.00    -0.400 N
ATOM     11  H2  UNL     1       5.128 -18.496   2.257  1.00  0.00     0.158 HD
BRANCH  10  12
HETATM   12  C2  UNL     1       4.854 -17.790   4.237  1.00  0.00     0.082 C
BRANCH  12  13
HETATM   13  C1  UNL     1       4.628 -16.487   4.978  1.00  0.00     0.273 C
BRANCH  13  14
HETATM   14  N1  UNL     1       5.326 -16.457   6.234  1.00  0.00    -0.075 N
ATOM     15  H13 UNL     1       6.152 -17.056   6.214  1.00  0.00     0.274 HD
ATOM     16  H12 UNL     1       5.784 -15.558   6.382  1.00  0.00     0.274 HD
ATOM     17  H11 UNL     1       4.714 -16.696   7.015  1.00  0.00     0.274 HD
ENDBRANCH  13  14
ENDBRANCH  12  13
ENDBRANCH  10  12
ENDBRANCH   9  10
ENDBRANCH   8   9
ENDBRANCH   7   8
ENDBRANCH   1   7
BRANCH   2  18
HETATM   18  N3  UNL     1       4.928 -12.000  -0.625  1.00  0.00    -0.074 N
ATOM     19  H33 UNL     1       5.230 -12.754  -1.241  1.00  0.00     0.274 HD
ATOM     20  H32 UNL     1       3.930 -11.986  -0.838  1.00  0.00     0.274 HD
ATOM     21  H31 UNL     1       5.360 -11.119  -0.905  1.00  0.00     0.274 HD
ENDBRANCH   2  18
BRANCH   6  22
HETATM   22  N5  UNL     1       2.603 -13.429  -0.147  1.00  0.00    -0.071 N
ATOM     23  H53 UNL     1       3.209 -13.673  -0.931  1.00  0.00     0.274 HD
ATOM     24  H52 UNL     1       1.791 -13.996  -0.392  1.00  0.00     0.274 HD
ATOM     25  H51 UNL     1       2.376 -12.435  -0.146  1.00  0.00     0.274 HD
ENDBRANCH   6  22
BRANCH   5  26
HETATM   26  O1  UNL     1       2.116 -13.790   3.264  1.00  0.00    -0.391 OA
ATOM     27  H1  UNL     1       2.787 -14.330   3.665  1.00  0.00     0.210 HD
ENDBRANCH   5  26
BRANCH   4  28
HETATM   28  N4  UNL     1       3.055 -10.983   3.541  1.00  0.00    -0.072 N
ATOM     29  H43 UNL     1       2.480 -10.374   2.957  1.00  0.00     0.274 HD
ATOM     30  H42 UNL     1       2.307 -11.305   4.155  1.00  0.00     0.274 HD
ATOM     31  H41 UNL     1       3.802 -10.491   4.031  1.00  0.00     0.274 HD
ENDBRANCH   4  28
TORSDOF 11
ENDMDL