MODEL 5
REMARK VINA RESULT: -6.682835415      2.379      4.520
REMARK  9 active torsions:
REMARK  status: ('A' for Active; 'I' for Inactive)
REMARK    1  A    between atoms: N1_1  and  C1_4
REMARK    2  A    between atoms: C2_7  and  N3_8
REMARK    3  A    between atoms: N3_8  and  C3_10
REMARK    4  A    between atoms: C3_10  and  C4_11
REMARK    5  A    between atoms: C4_11  and  C5_12
REMARK    6  A    between atoms: C5_12  and  C6_13
REMARK    7  A    between atoms: C6_13  and  C7_14
REMARK    8  A    between atoms: C7_14  and  O1_15
REMARK    9  A    between atoms: C8_19  and  N5_20
REMARK       I    between atoms: N5_20  and  C9_22
REMARK       I    between atoms: C9_22  and  N6_23
REMARK       I    between atoms: C9_22  and  N7_27
ROOT
HETATM    1  C1  UNL     1       3.606 -11.168   4.312  1.00  0.00     0.705 A
HETATM    2  N2  UNL     1       4.231 -12.291   4.770  1.00  0.00    -0.022 N
ATOM      3  H2  UNL     1       4.658 -12.292   5.697  1.00  0.00     0.203 HD
HETATM    4  C2  UNL     1       4.286 -13.392   4.005  1.00  0.00     0.707 A
HETATM    5  N4  UNL     1       3.722 -13.381   2.784  1.00  0.00    -0.021 N
ATOM      6  H4  UNL     1       3.768 -14.222   2.209  1.00  0.00     0.203 HD
HETATM    7  C8  UNL     1       3.095 -12.288   2.299  1.00  0.00     0.710 A
HETATM    8  N8  UNL     1       3.059 -11.206   3.092  1.00  0.00    -0.022 N
ATOM      9  H8  UNL     1       2.590 -10.368   2.747  1.00  0.00     0.203 HD
ENDROOT
BRANCH   7  10
HETATM   10  N5  UNL     1       2.563 -12.277   1.152  1.00  0.00    -0.172 N
HETATM   11  C9  UNL     1       2.907 -13.107   0.044  1.00  0.00     0.494 C
HETATM   12  N6  UNL     1       1.812 -13.010  -0.933  1.00  0.00    -0.032 N
HETATM   13  N7  UNL     1       4.104 -12.701  -0.635  1.00  0.00    -0.032 N
ATOM     14  H63 UNL     1       0.901 -13.235  -0.534  1.00  0.00     0.278 HD
ATOM     15  H62 UNL     1       1.605 -12.048  -1.205  1.00  0.00     0.278 HD
ATOM     16  H61 UNL     1       2.059 -13.603  -1.724  1.00  0.00     0.278 HD
ATOM     17  H73 UNL     1       4.038 -11.725  -0.925  1.00  0.00     0.278 HD
ATOM     18  H72 UNL     1       4.883 -12.633   0.019  1.00  0.00     0.278 HD
ATOM     19  H71 UNL     1       4.350 -13.294  -1.427  1.00  0.00     0.278 HD
ATOM     20  H5  UNL     1       1.810 -11.605   1.003  1.00  0.00     0.181 HD
ENDBRANCH   7  10
BRANCH   4  21
HETATM   21  N3  UNL     1       4.885 -14.429   4.471  1.00  0.00    -0.225 N
ATOM     22  H3  UNL     1       5.807 -14.350   4.901  1.00  0.00     0.177 HD
BRANCH  21  23
HETATM   23  C3  UNL     1       4.223 -15.706   4.373  1.00  0.00     0.138 C
BRANCH  23  24
HETATM   24  C4  UNL     1       5.229 -16.853   4.319  1.00  0.00     0.020 C
BRANCH  24  25
HETATM   25  C5  UNL     1       5.194 -17.359   2.877  1.00  0.00     0.004 C
BRANCH  25  26
HETATM   26  C6  UNL     1       6.395 -16.834   2.105  1.00  0.00     0.026 C
BRANCH  26  27
HETATM   27  C7  UNL     1       5.882 -16.098   0.888  1.00  0.00     0.164 C
BRANCH  27  28
HETATM   28  O1  UNL     1       5.671 -14.766   1.255  1.00  0.00    -0.401 OA
ATOM     29  H1  UNL     1       4.915 -14.741   1.830  1.00  0.00     0.209 HD
ENDBRANCH  27  28
ENDBRANCH  26  27
ENDBRANCH  25  26
ENDBRANCH  24  25
ENDBRANCH  23  24
ENDBRANCH  21  23
ENDBRANCH   4  21
BRANCH   1  30
HETATM   30  N1  UNL     1       3.565 -10.123   5.062  1.00  0.00    -0.234 N
ATOM     31  H12 UNL     1       2.877 -10.004   5.806  1.00  0.00     0.174 HD
ATOM     32  H11 UNL     1       4.245  -9.378   4.914  1.00  0.00     0.174 HD
ENDBRANCH   1  30
TORSDOF 9
ENDMDL