MODEL 4
REMARK VINA RESULT: -7.112882855      2.204      4.936
REMARK  10 active torsions:
REMARK  status: ('A' for Active; 'I' for Inactive)
REMARK    1  A    between atoms: N1_1  and  C1_4
REMARK    2  A    between atoms: C2_7  and  N3_8
REMARK    3  A    between atoms: N3_8  and  C3_9
REMARK    4  A    between atoms: C3_9  and  C4_10
REMARK    5  A    between atoms: C4_10  and  C5_11
REMARK    6  A    between atoms: C5_11  and  N4_12
REMARK    7  A    between atoms: N4_12  and  C6_14
REMARK    8  A    between atoms: C6_14  and  C7_15
REMARK    9  A    between atoms: C7_15  and  N5_16
REMARK   10  A    between atoms: C7_15  and  N6_20
ROOT
HETATM    1  C1  UNL     1       4.763 -14.535   5.417  1.00  0.00     0.680 A
HETATM    2  N2  UNL     1       4.825 -14.096   4.152  1.00  0.00    -0.162 N
ATOM      3  H2  UNL     1       4.758 -13.093   3.986  1.00  0.00     0.187 HD
HETATM    4  C2  UNL     1       4.974 -14.923   3.073  1.00  0.00     0.224 A
HETATM    5  C8  UNL     1       5.063 -16.301   3.328  1.00  0.00     0.154 A
HETATM    6  N7  UNL     1       5.210 -17.373   2.538  1.00  0.00    -0.278 N
ATOM      7  H7  UNL     1       5.287 -17.366   1.521  1.00  0.00     0.189 HD
HETATM    8  N8  UNL     1       5.235 -18.432   3.311  1.00  0.00    -0.240 N
ATOM      9  H8  UNL     1       5.337 -19.391   2.981  1.00  0.00     0.208 HD
HETATM   10  N9  UNL     1       5.109 -18.080   4.577  1.00  0.00    -0.268 N
ATOM     11  H9  UNL     1       5.097 -18.714   5.376  1.00  0.00     0.190 HD
HETATM   12  C9  UNL     1       4.997 -16.728   4.632  1.00  0.00     0.170 A
HETATM   13  N10 UNL     1       4.849 -15.859   5.658  1.00  0.00    -0.173 N
ATOM     14  H10 UNL     1       4.803 -16.206   6.617  1.00  0.00     0.186 HD
ENDROOT
BRANCH   4  15
HETATM   15  N3  UNL     1       5.026 -14.505   1.965  1.00  0.00    -0.401 NA
BRANCH  15  16
HETATM   16  C3  UNL     1       5.051 -14.043   0.716  1.00  0.00     0.159 C
BRANCH  16  17
HETATM   17  C4  UNL     1       3.810 -13.335   0.188  1.00  0.00     0.078 C
BRANCH  17  18
HETATM   18  C5  UNL     1       4.056 -11.827   0.460  1.00  0.00     0.120 C
BRANCH  18  19
HETATM   19  N4  UNL     1       3.977 -11.545   1.841  1.00  0.00    -0.417 N
ATOM     20  H4  UNL     1       4.797 -11.281   2.386  1.00  0.00     0.153 HD
BRANCH  19  21
HETATM   21  C6  UNL     1       2.692 -11.651   2.424  1.00  0.00     0.175 C
BRANCH  21  22
HETATM   22  C7  UNL     1       2.508 -11.221   3.838  1.00  0.00     0.394 C
BRANCH  22  23
HETATM   23  N5  UNL     1       3.663 -10.851   4.574  1.00  0.00    -0.049 N
ATOM     24  H53 UNL     1       4.194 -10.162   4.040  1.00  0.00     0.276 HD
ATOM     25  H52 UNL     1       3.381 -10.294   5.381  1.00  0.00     0.276 HD
ATOM     26  H51 UNL     1       4.291 -11.593   4.881  1.00  0.00     0.276 HD
ENDBRANCH  22  23
BRANCH  22  27
HETATM   27  N6  UNL     1       1.615 -10.055   3.800  1.00  0.00    -0.049 N
ATOM     28  H63 UNL     1       0.631 -10.302   3.700  1.00  0.00     0.276 HD
ATOM     29  H62 UNL     1       1.534  -9.578   4.698  1.00  0.00     0.276 HD
ATOM     30  H61 UNL     1       1.960  -9.454   3.052  1.00  0.00     0.276 HD
ENDBRANCH  22  27
ENDBRANCH  21  22
ENDBRANCH  19  21
ENDBRANCH  18  19
ENDBRANCH  17  18
ENDBRANCH  16  17
ENDBRANCH  15  16
ENDBRANCH   4  15
BRANCH   1  31
HETATM   31  N1  UNL     1       4.622 -13.751   6.432  1.00  0.00    -0.234 N
ATOM     32  H12 UNL     1       4.510 -12.754   6.247  1.00  0.00     0.174 HD
ATOM     33  H11 UNL     1       4.619 -14.080   7.398  1.00  0.00     0.174 HD
ENDBRANCH   1  31
TORSDOF 10
ENDMDL