MODEL 2
REMARK VINA RESULT: -6.781220881      2.652      4.622
REMARK  8 active torsions:
REMARK  status: ('A' for Active; 'I' for Inactive)
REMARK    1  A    between atoms: C2_2  and  N1_3
REMARK    2  A    between atoms: N1_3  and  C3_5
REMARK    3  A    between atoms: C3_5  and  C4_6
REMARK    4  A    between atoms: C4_6  and  O1_7
REMARK    5  A    between atoms: O1_7  and  C5_8
REMARK    6  A    between atoms: C5_8  and  C6_9
REMARK    7  A    between atoms: N5_20  and  N6_22
REMARK    8  A    between atoms: C9_25  and  O3_26
ROOT
HETATM    1  C6  UNL     1       5.025 -13.744   0.815  1.00  0.00     0.192 C
HETATM    2  O2  UNL     1       5.958 -13.000   0.044  1.00  0.00    -0.311 OA
HETATM    3  C7  UNL     1       6.151 -11.630   0.104  1.00  0.00     0.232 C
HETATM    4  N2  UNL     1       7.207 -11.162  -0.457  1.00  0.00    -0.364 N
ATOM      5  H21 UNL     1       7.349 -10.153  -0.414  1.00  0.00     0.159 HD
ATOM      6  H22 UNL     1       7.794 -11.874  -0.891  1.00  0.00     0.159 HD
HETATM    7  N3  UNL     1       5.320 -10.621   0.718  1.00  0.00    -0.264 N
ATOM      8  H3  UNL     1       5.651  -9.656   0.710  1.00  0.00     0.190 HD
HETATM    9  N4  UNL     1       4.074 -10.891   1.330  1.00  0.00    -0.283 N
ATOM     10  H4  UNL     1       3.650 -10.099   1.813  1.00  0.00     0.188 HD
HETATM   11  C8  UNL     1       3.322 -12.094   1.375  1.00  0.00     0.142 C
HETATM   12  N5  UNL     1       2.336 -12.228   2.171  1.00  0.00    -0.292 N
ATOM     13  H5  UNL     1       1.819 -13.107   2.175  1.00  0.00     0.187 HD
HETATM   14  C9  UNL     1       3.642 -13.284   0.490  1.00  0.00     0.219 C
ENDROOT
BRANCH   1  15
HETATM   15  C5  UNL     1       5.239 -15.225   0.613  1.00  0.00     0.203 C
BRANCH  15  16
HETATM   16  O1  UNL     1       4.925 -15.957   1.723  1.00  0.00    -0.387 OA
BRANCH  16  17
HETATM   17  C4  UNL     1       5.239 -15.370   2.906  1.00  0.00     0.186 C
BRANCH  17  18
HETATM   18  C3  UNL     1       4.784 -16.143   4.100  1.00  0.00     0.140 C
BRANCH  18  19
HETATM   19  N1  UNL     1       4.728 -15.328   5.298  1.00  0.00    -0.419 N
ATOM     20  H1  UNL     1       4.993 -15.684   6.217  1.00  0.00     0.153 HD
BRANCH  19  21
HETATM   21  C2  UNL     1       4.276 -13.993   5.097  1.00  0.00     0.109 C
HETATM   22  C1  UNL     1       4.627 -13.150   6.307  1.00  0.00     0.026 C
ENDBRANCH  19  21
ENDBRANCH  18  19
ENDBRANCH  17  18
ENDBRANCH  16  17
ENDBRANCH  15  16
ENDBRANCH   1  15
BRANCH  14  23
HETATM   23  O3  UNL     1       2.663 -14.259   0.659  1.00  0.00    -0.385 OA
ATOM     24  H3  UNL     1       2.086 -14.108   1.399  1.00  0.00     0.210 HD
ENDBRANCH  14  23
BRANCH  12  25
HETATM   25  N6  UNL     1       1.947 -11.220   3.024  1.00  0.00    -0.344 N
ATOM     26  H62 UNL     1       2.626 -10.492   3.245  1.00  0.00     0.176 HD
ATOM     27  H61 UNL     1       1.013 -11.189   3.432  1.00  0.00     0.176 HD
ENDBRANCH  12  25
TORSDOF 8
ENDMDL