MODEL 1
REMARK VINA RESULT: -7.854709742      0.000      0.000
REMARK  7 active torsions:
REMARK  status: ('A' for Active; 'I' for Inactive)
REMARK       I    between atoms: C1_4  and  N3_6
REMARK    1  A    between atoms: N3_6  and  C2_8
REMARK    2  A    between atoms: C2_8  and  C3_9
REMARK    3  A    between atoms: C3_9  and  N4_10
REMARK    4  A    between atoms: N4_10  and  C4_12
REMARK    5  A    between atoms: C4_12  and  N5_13
REMARK    6  A    between atoms: C6_19  and  N8_20
REMARK    7  A    between atoms: N8_20  and  C7_22
ROOT
HETATM    1  N5  UNL     1       2.290 -11.331   3.402  1.00  0.00    -0.242 N
HETATM    2  N6  UNL     1       1.638 -10.236   3.734  1.00  0.00    -0.238 N
ATOM      3  H6  UNL     1       0.686 -10.003   3.453  1.00  0.00     0.208 HD
HETATM    4  N7  UNL     1       2.431  -9.480   4.500  1.00  0.00    -0.294 N
ATOM      5  H7  UNL     1       2.184  -8.575   4.901  1.00  0.00     0.187 HD
HETATM    6  C5  UNL     1       3.613 -10.114   4.655  1.00  0.00     0.159 A
HETATM    7  C6  UNL     1       3.501 -11.301   3.942  1.00  0.00     0.157 A
ENDROOT
BRANCH   1   8
HETATM    8  C4  UNL     1       1.786 -12.423   2.571  1.00  0.00     0.273 C
BRANCH   8   9
HETATM    9  N4  UNL     1       2.269 -12.270   1.250  1.00  0.00    -0.383 N
ATOM     10  H4  UNL     1       1.986 -11.467   0.690  1.00  0.00     0.160 HD
BRANCH   9  11
HETATM   11  C3  UNL     1       3.142 -13.233   0.714  1.00  0.00     0.076 C
BRANCH  11  12
HETATM   12  C2  UNL     1       3.965 -12.871  -0.464  1.00  0.00     0.166 C
BRANCH  12  13
HETATM   13  N3  UNL     1       5.359 -12.672  -0.262  1.00  0.00    -0.360 N
HETATM   14  C1  UNL     1       5.943 -11.455   0.163  1.00  0.00     0.182 C
HETATM   15  N1  UNL     1       5.235 -10.532   0.685  1.00  0.00    -0.374 N
HETATM   16  N2  UNL     1       7.325 -11.269   0.006  1.00  0.00    -0.064 NA
ATOM     17  H12 UNL     1       5.656  -9.655   0.991  1.00  0.00     0.158 HD
ATOM     18  H11 UNL     1       4.230 -10.667   0.800  1.00  0.00     0.158 HD
ATOM     19  H3  UNL     1       5.982 -13.461  -0.434  1.00  0.00     0.162 HD
ENDBRANCH  12  13
ENDBRANCH  11  12
ENDBRANCH   9  11
ENDBRANCH   8   9
ENDBRANCH   1   8
BRANCH   7  20
HETATM   20  N8  UNL     1       4.415 -12.204   3.833  1.00  0.00    -0.172 N
ATOM     21  H8  UNL     1       5.025 -12.190   3.016  1.00  0.00     0.186 HD
BRANCH  20  22
HETATM   22  C7  UNL     1       4.604 -13.221   4.811  1.00  0.00     0.699 A
HETATM   23  N9  UNL     1       4.663 -12.997   6.146  1.00  0.00    -0.185 N
HETATM   24  C8  UNL     1       4.852 -14.179   6.773  1.00  0.00     0.215 A
ATOM     25  H9  UNL     1       4.578 -12.089   6.602  1.00  0.00     0.185 HD
HETATM   26  N10 UNL     1       4.910 -15.140   5.833  1.00  0.00    -0.281 N
HETATM   27  N11 UNL     1       4.760 -14.545   4.665  1.00  0.00    -0.131 N
ATOM     28  H10 UNL     1       5.045 -16.138   5.993  1.00  0.00     0.188 HD
ATOM     29  H11 UNL     1       4.762 -15.030   3.768  1.00  0.00     0.205 HD
ENDBRANCH  20  22
ENDBRANCH   7  20
TORSDOF 7
ENDMDL