MODEL 2
REMARK VINA RESULT: -7.344420514      2.453      6.541
REMARK  7 active torsions:
REMARK  status: ('A' for Active; 'I' for Inactive)
REMARK    1  A    between atoms: N1_1  and  C1_4
REMARK    2  A    between atoms: N3_8  and  C3_10
REMARK    3  A    between atoms: C3_10  and  C4_11
REMARK    4  A    between atoms: C4_11  and  O1_12
REMARK    5  A    between atoms: N5_18  and  C7_19
REMARK    6  A    between atoms: C7_19  and  C8_20
REMARK    7  A    between atoms: C8_20  and  N6_21
REMARK       I    between atoms: N6_21  and  C9_24
REMARK       I    between atoms: C9_24  and  N7_25
REMARK       I    between atoms: C9_24  and  N8_29
ROOT
HETATM    1  C1  UNL     1       6.012 -16.327   0.438  1.00  0.00     0.679 A
HETATM    2  N2  UNL     1       6.064 -17.332   1.325  1.00  0.00    -0.175 N
ATOM      3  H2  UNL     1       6.548 -18.190   1.063  1.00  0.00     0.186 HD
HETATM    4  C2  UNL     1       5.495 -17.253   2.568  1.00  0.00     0.147 A
HETATM    5  N3  UNL     1       5.558 -18.229   3.383  1.00  0.00    -0.372 N
ATOM      6  H3  UNL     1       6.044 -19.077   3.092  1.00  0.00     0.161 HD
HETATM    7  C5  UNL     1       4.845 -16.067   2.885  1.00  0.00     0.123 A
HETATM    8  N4  UNL     1       4.186 -15.621   3.971  1.00  0.00    -0.346 N
ATOM      9  H4  UNL     1       4.048 -16.154   4.829  1.00  0.00     0.167 HD
HETATM   10  C6  UNL     1       3.737 -14.373   3.761  1.00  0.00     0.185 A
HETATM   11  N5  UNL     1       4.115 -14.026   2.534  1.00  0.00    -0.325 N
HETATM   12  C10 UNL     1       4.790 -15.034   1.978  1.00  0.00     0.155 A
HETATM   13  N9  UNL     1       5.386 -15.189   0.752  1.00  0.00    -0.174 N
ATOM     14  H9  UNL     1       5.351 -14.429   0.074  1.00  0.00     0.186 HD
ENDROOT
BRANCH  11  15
HETATM   15  C7  UNL     1       3.837 -12.754   1.866  1.00  0.00     0.159 C
BRANCH  15  16
HETATM   16  C8  UNL     1       3.224 -11.872   2.895  1.00  0.00     0.257 C
BRANCH  16  17
HETATM   17  N6  UNL     1       3.939 -10.687   3.174  1.00  0.00    -0.021 N
HETATM   18  C9  UNL     1       3.521 -10.017   4.365  1.00  0.00     0.575 C
HETATM   19  N7  UNL     1       2.087  -9.829   4.340  1.00  0.00    -0.026 N
HETATM   20  N8  UNL     1       3.959 -10.612   5.564  1.00  0.00    -0.026 N
ATOM     21  H73 UNL     1       1.778  -9.345   3.498  1.00  0.00     0.278 HD
ATOM     22  H72 UNL     1       1.587 -10.706   4.198  1.00  0.00     0.278 HD
ATOM     23  H71 UNL     1       1.789  -9.351   5.190  1.00  0.00     0.278 HD
ATOM     24  H83 UNL     1       3.679 -11.592   5.594  1.00  0.00     0.278 HD
ATOM     25  H82 UNL     1       4.974 -10.718   5.555  1.00  0.00     0.278 HD
ATOM     26  H81 UNL     1       3.660 -10.134   6.413  1.00  0.00     0.278 HD
ATOM     27  H62 UNL     1       4.942 -10.873   3.204  1.00  0.00     0.281 HD
ATOM     28  H61 UNL     1       3.904 -10.052   2.377  1.00  0.00     0.281 HD
ENDBRANCH  16  17
ENDBRANCH  15  16
ENDBRANCH  11  15
BRANCH   1  29
HETATM   29  N1  UNL     1       6.570 -16.444  -0.734  1.00  0.00    -0.234 N
ATOM     30  H12 UNL     1       7.069 -17.304  -0.965  1.00  0.00     0.174 HD
ATOM     31  H11 UNL     1       6.511 -15.689  -1.418  1.00  0.00     0.174 HD
ENDBRANCH   1  29
BRANCH   5  32
HETATM   32  C3  UNL     1       4.978 -18.187   4.683  1.00  0.00     0.147 C
BRANCH  32  33
HETATM   33  C4  UNL     1       6.065 -17.822   5.719  1.00  0.00     0.183 C
BRANCH  33  34
HETATM   34  O1  UNL     1       5.665 -16.758   6.492  1.00  0.00    -0.399 OA
ATOM     35  H1  UNL     1       6.414 -16.325   6.885  1.00  0.00     0.209 HD
ENDBRANCH  33  34
ENDBRANCH  32  33
ENDBRANCH   5  32
TORSDOF 7
ENDMDL