MODEL 1
REMARK VINA RESULT: -6.784532249      0.000      0.000
REMARK  9 active torsions:
REMARK  status: ('A' for Active; 'I' for Inactive)
REMARK    1  A    between atoms: N1_1  and  C1_4
REMARK    2  A    between atoms: N5_14  and  C5_16
REMARK    3  A    between atoms: C5_16  and  C6_17
REMARK    4  A    between atoms: C6_17  and  N6_18
REMARK    5  A    between atoms: N6_18  and  C7_19
REMARK    6  A    between atoms: N6_18  and  C8_22
REMARK    7  A    between atoms: C7_19  and  O1_20
REMARK    8  A    between atoms: C8_22  and  C9_23
REMARK    9  A    between atoms: C9_23  and  O2_24
ROOT
HETATM    1  C1  UNL     1       4.643 -14.322   5.656  1.00  0.00     0.678 A
HETATM    2  N2  UNL     1       4.682 -13.177   6.337  1.00  0.00    -0.174 N
ATOM      3  H2  UNL     1       4.979 -13.076   7.307  1.00  0.00     0.186 HD
HETATM    4  C2  UNL     1       4.260 -12.162   5.529  1.00  0.00     0.153 A
HETATM    5  N3  UNL     1       4.104 -10.844   5.700  1.00  0.00    -0.336 N
ATOM      6  H3  UNL     1       4.324 -10.410   6.596  1.00  0.00     0.168 HD
HETATM    7  C3  UNL     1       3.655 -10.101   4.677  1.00  0.00     0.183 A
HETATM    8  N4  UNL     1       3.346 -10.620   3.457  1.00  0.00    -0.337 N
ATOM      9  H4  UNL     1       3.009 -10.006   2.714  1.00  0.00     0.168 HD
HETATM   10  C4  UNL     1       3.479 -11.927   3.230  1.00  0.00     0.137 A
HETATM   11  N5  UNL     1       3.232 -12.495   2.184  1.00  0.00    -0.349 N
ATOM     12  H5  UNL     1       3.435 -13.485   2.320  1.00  0.00     0.167 HD
HETATM   13  C10 UNL     1       3.951 -12.703   4.307  1.00  0.00     0.137 A
HETATM   14  N7  UNL     1       4.197 -14.025   4.418  1.00  0.00    -0.184 N
ATOM     15  H7  UNL     1       4.063 -14.705   3.670  1.00  0.00     0.184 HD
ENDROOT
BRANCH  11  16
HETATM   16  C5  UNL     1       2.788 -12.342   0.890  1.00  0.00     0.107 C
BRANCH  16  17
HETATM   17  C6  UNL     1       3.229 -13.316  -0.166  1.00  0.00     0.114 C
BRANCH  17  18
HETATM   18  N6  UNL     1       4.632 -13.418  -0.170  1.00  0.00    -0.324 N
BRANCH  18  19
HETATM   19  C7  UNL     1       5.371 -12.236  -0.383  1.00  0.00     0.229 C
BRANCH  19  20
HETATM   20  O1  UNL     1       6.118 -11.869   0.749  1.00  0.00    -0.356 OA
ATOM     21  H1  UNL     1       5.582 -11.441   1.408  1.00  0.00     0.218 HD
ENDBRANCH  19  20
ENDBRANCH  18  19
BRANCH  18  22
HETATM   22  C8  UNL     1       5.266 -14.655  -0.175  1.00  0.00     0.096 C
BRANCH  22  23
HETATM   23  C9  UNL     1       5.337 -15.393   1.132  1.00  0.00     0.209 C
BRANCH  23  24
HETATM   24  O2  UNL     1       5.777 -14.567   2.165  1.00  0.00    -0.396 OA
ATOM     25  H2  UNL     1       6.525 -14.044   1.901  1.00  0.00     0.209 HD
ENDBRANCH  23  24
ENDBRANCH  22  23
ENDBRANCH  18  22
ENDBRANCH  17  18
ENDBRANCH  16  17
ENDBRANCH  11  16
BRANCH   1  26
HETATM   26  N1  UNL     1       4.979 -15.473   6.130  1.00  0.00    -0.234 N
ATOM     27  H12 UNL     1       5.304 -16.296   5.623  1.00  0.00     0.174 HD
ATOM     28  H11 UNL     1       4.964 -15.723   7.119  1.00  0.00     0.174 HD
ENDBRANCH   1  26
TORSDOF 9
ENDMDL