MODEL 1
REMARK VINA RESULT: -7.024519598      0.000      0.000
REMARK  7 active torsions:
REMARK  status: ('A' for Active; 'I' for Inactive)
REMARK    1  A    between atoms: N1_1  and  C1_5
REMARK    2  A    between atoms: C1_5  and  C2_6
REMARK    3  A    between atoms: C2_6  and  N2_7
REMARK    4  A    between atoms: N2_7  and  C3_9
REMARK    5  A    between atoms: N5_16  and  C7_18
REMARK    6  A    between atoms: C7_18  and  C8_19
REMARK    7  A    between atoms: C8_19  and  N6_20
REMARK       I    between atoms: N6_20  and  C9_23
REMARK       I    between atoms: C9_23  and  N7_24
REMARK       I    between atoms: C9_23  and  N8_28
ROOT
HETATM    1  C3  UNL     1       4.486 -14.811   5.017  1.00  0.00     0.120 A
HETATM    2  C4  UNL     1       4.667 -13.659   5.765  1.00  0.00     0.094 A
HETATM    3  C5  UNL     1       4.279 -12.435   5.269  1.00  0.00     0.135 A
HETATM    4  N3  UNL     1       4.468 -11.238   6.052  1.00  0.00    -0.082 NA
HETATM    5  N4  UNL     1       3.721 -12.401   4.044  1.00  0.00    -0.179 N
ATOM      6  H4  UNL     1       3.427 -11.501   3.662  1.00  0.00     0.185 HD
HETATM    7  C6  UNL     1       3.538 -13.509   3.303  1.00  0.00     0.680 A
HETATM    8  N5  UNL     1       3.003 -13.468   2.135  1.00  0.00    -0.224 N
ATOM      9  H5  UNL     1       2.892 -14.346   1.627  1.00  0.00     0.177 HD
HETATM   10  N9  UNL     1       3.926 -14.723   3.800  1.00  0.00    -0.177 N
ATOM     11  H9  UNL     1       3.789 -15.567   3.243  1.00  0.00     0.185 HD
ENDROOT
BRANCH   8  12
HETATM   12  C7  UNL     1       2.554 -12.265   1.508  1.00  0.00     0.165 C
BRANCH  12  13
HETATM   13  C8  UNL     1       2.959 -12.332   0.044  1.00  0.00     0.257 C
BRANCH  13  14
HETATM   14  N6  UNL     1       4.128 -11.580  -0.273  1.00  0.00    -0.021 N
HETATM   15  C9  UNL     1       5.336 -12.240   0.172  1.00  0.00     0.575 C
HETATM   16  N7  UNL     1       6.498 -11.440  -0.192  1.00  0.00    -0.026 N
HETATM   17  N8  UNL     1       5.444 -13.506  -0.506  1.00  0.00    -0.026 N
ATOM     18  H73 UNL     1       6.521 -11.230  -1.190  1.00  0.00     0.278 HD
ATOM     19  H72 UNL     1       6.431 -10.485   0.159  1.00  0.00     0.278 HD
ATOM     20  H71 UNL     1       7.349 -11.906   0.122  1.00  0.00     0.278 HD
ATOM     21  H83 UNL     1       4.615 -14.087  -0.385  1.00  0.00     0.278 HD
ATOM     22  H82 UNL     1       5.403 -13.411  -1.521  1.00  0.00     0.278 HD
ATOM     23  H81 UNL     1       6.296 -13.972  -0.192  1.00  0.00     0.278 HD
ATOM     24  H62 UNL     1       4.171 -11.364  -1.270  1.00  0.00     0.281 HD
ATOM     25  H61 UNL     1       4.068 -10.630   0.095  1.00  0.00     0.281 HD
ENDBRANCH  13  14
ENDBRANCH  12  13
ENDBRANCH   8  12
BRANCH   1  26
HETATM   26  N2  UNL     1       4.865 -15.944   5.522  1.00  0.00    -0.374 N
ATOM     27  H2  UNL     1       5.372 -15.910   6.407  1.00  0.00     0.161 HD
BRANCH  26  28
HETATM   28  C2  UNL     1       4.637 -17.229   4.954  1.00  0.00     0.148 C
BRANCH  28  29
HETATM   29  C1  UNL     1       5.774 -17.732   4.093  1.00  0.00     0.249 C
BRANCH  29  30
HETATM   30  N1  UNL     1       5.187 -18.098   2.801  1.00  0.00    -0.078 N
ATOM     31  H13 UNL     1       5.749 -18.770   2.279  1.00  0.00     0.274 HD
ATOM     32  H12 UNL     1       4.349 -18.672   2.886  1.00  0.00     0.274 HD
ATOM     33  H11 UNL     1       5.030 -17.225   2.297  1.00  0.00     0.274 HD
ENDBRANCH  29  30
ENDBRANCH  28  29
ENDBRANCH  26  28
ENDBRANCH   1  26
TORSDOF 7
ENDMDL