MODEL 5
REMARK VINA RESULT: -6.593620748      2.252      4.027
REMARK  9 active torsions:
REMARK  status: ('A' for Active; 'I' for Inactive)
REMARK    1  A    between atoms: N1_1  and  C1_5
REMARK    2  A    between atoms: C2_9  and  C3_10
REMARK    3  A    between atoms: C3_10  and  C4_11
REMARK    4  A    between atoms: C4_11  and  C5_12
REMARK    5  A    between atoms: C5_12  and  N3_13
REMARK    6  A    between atoms: N3_13  and  C6_16
REMARK    7  A    between atoms: C6_16  and  C7_17
REMARK    8  A    between atoms: C9_21  and  C10_22
REMARK    9  A    between atoms: C10_22  and  O1_23
ROOT
HETATM    1  C5  UNL     1       4.627 -14.472   4.258  1.00  0.00     0.232 C
ENDROOT
BRANCH   1   2
HETATM    2  C4  UNL     1       4.283 -13.023   4.579  1.00  0.00     0.032 C
BRANCH   2   3
HETATM    3  C3  UNL     1       2.876 -12.774   4.078  1.00  0.00     0.063 C
BRANCH   3   4
HETATM    4  C2  UNL     1       2.743 -11.638   3.130  1.00  0.00     0.329 C
HETATM    5  N2  UNL     1       1.716 -10.659   3.465  1.00  0.00     0.003 N
HETATM    6  C1  UNL     1       2.765 -10.135   4.355  1.00  0.00     0.526 C
ATOM      7  H22 UNL     1       0.784 -10.917   3.791  1.00  0.00     0.285 HD
ATOM      8  H21 UNL     1       1.239 -10.088   2.766  1.00  0.00     0.285 HD
HETATM    9  O3  UNL     1       3.692 -10.648   3.484  1.00  0.00    -0.305 OA
BRANCH   6  10
HETATM   10  N1  UNL     1       2.820  -8.687   4.410  1.00  0.00    -0.027 N
ATOM     11  H13 UNL     1       3.555  -8.332   3.798  1.00  0.00     0.279 HD
ATOM     12  H12 UNL     1       2.004  -8.279   3.952  1.00  0.00     0.279 HD
ATOM     13  H11 UNL     1       2.926  -8.313   5.353  1.00  0.00     0.279 HD
ENDBRANCH   6  10
ENDBRANCH   3   4
ENDBRANCH   2   3
ENDBRANCH   1   2
BRANCH   1  14
HETATM   14  N3  UNL     1       5.491 -14.588   3.128  1.00  0.00    -0.073 N
ATOM     15  H32 UNL     1       5.673 -13.680   2.701  1.00  0.00     0.277 HD
ATOM     16  H31 UNL     1       6.444 -14.823   3.408  1.00  0.00     0.277 HD
BRANCH  14  17
HETATM   17  C6  UNL     1       4.982 -15.520   2.178  1.00  0.00     0.265 C
BRANCH  17  18
HETATM   18  C7  UNL     1       4.776 -14.724   0.874  1.00  0.00     0.165 C
HETATM   19  C8  UNL     1       3.306 -14.369   0.846  1.00  0.00     0.164 C
HETATM   20  N4  UNL     1       3.006 -13.453  -0.228  1.00  0.00    -0.143 NA
HETATM   21  N5  UNL     1       4.115 -12.692  -0.556  1.00  0.00    -0.114 NA
HETATM   22  C9  UNL     1       4.906 -12.457   0.626  1.00  0.00     0.254 C
HETATM   23  O2  UNL     1       5.589 -13.618   0.934  1.00  0.00    -0.358 OA
BRANCH  22  24
HETATM   24  C10 UNL     1       5.872 -11.329   0.284  1.00  0.00     0.214 C
BRANCH  24  25
HETATM   25  O1  UNL     1       5.508 -10.190   0.995  1.00  0.00    -0.397 OA
ATOM     26  H1  UNL     1       5.518 -10.390   1.924  1.00  0.00     0.209 HD
ENDBRANCH  24  25
ENDBRANCH  22  24
ENDBRANCH  17  18
ENDBRANCH  14  17
ENDBRANCH   1  14
TORSDOF 9
ENDMDL