MODEL 5
REMARK VINA RESULT: -6.080312011      2.167      2.815
REMARK  10 active torsions:
REMARK  status: ('A' for Active; 'I' for Inactive)
REMARK    1  A    between atoms: C2_2  and  N1_3
REMARK    2  A    between atoms: C2_2  and  C3_7
REMARK    3  A    between atoms: C3_7  and  O1_8
REMARK    4  A    between atoms: C3_7  and  N2_10
REMARK    5  A    between atoms: N2_10  and  C4_12
REMARK    6  A    between atoms: C7_15  and  N3_16
REMARK    7  A    between atoms: N3_16  and  C8_18
REMARK    8  A    between atoms: C8_18  and  C9_19
REMARK    9  A    between atoms: N5_25  and  C13_26
REMARK   10  A    between atoms: N6_33  and  N7_34
ROOT
HETATM    1  C8  UNL     1      33.927  50.136   0.528  1.00  0.00     0.065 C
ENDROOT
BRANCH   1   2
HETATM    2  N3  UNL     1      34.647  50.631   1.611  1.00  0.00    -0.381 N
ATOM      3  H3  UNL     1      34.332  50.397   2.553  1.00  0.00     0.160 HD
BRANCH   2   4
HETATM    4  C7  UNL     1      35.769  51.425   1.470  1.00  0.00     0.184 C
HETATM    5  C6  UNL     1      36.406  51.542   0.083  1.00  0.00     0.084 C
HETATM    6  C4  UNL     1      37.272  52.829   0.485  1.00  0.00     0.083 C
HETATM    7  C5  UNL     1      37.743  53.317  -0.861  1.00  0.00     0.046 C
HETATM    8  C19 UNL     1      36.163  53.629   1.040  1.00  0.00     0.118 C
HETATM    9  N9  UNL     1      35.310  52.837   1.606  1.00  0.00    -0.359 N
HETATM   10  N10 UNL     1      35.946  55.063   0.976  1.00  0.00    -0.085 NA
ATOM     11  H9  UNL     1      34.453  53.134   2.073  1.00  0.00     0.162 HD
BRANCH   6  12
HETATM   12  N2  UNL     1      38.216  52.301   1.328  1.00  0.00    -0.380 N
ATOM     13  H2  UNL     1      38.216  51.281   1.318  1.00  0.00     0.157 HD
BRANCH  12  14
HETATM   14  C3  UNL     1      39.151  52.810   2.174  1.00  0.00     0.244 C
BRANCH  14  15
HETATM   15  C2  UNL     1      39.222  52.481   3.626  1.00  0.00     0.227 C
HETATM   16  C1  UNL     1      37.848  52.568   4.289  1.00  0.00     0.044 C
BRANCH  15  17
HETATM   17  N1  UNL     1      39.945  53.601   4.325  1.00  0.00    -0.071 N
ATOM     18  H13 UNL     1      40.726  53.318   4.917  1.00  0.00     0.274 HD
ATOM     19  H12 UNL     1      40.505  54.206   3.724  1.00  0.00     0.274 HD
ATOM     20  H11 UNL     1      39.170  54.057   4.809  1.00  0.00     0.274 HD
ENDBRANCH  15  17
ENDBRANCH  14  15
BRANCH  14  21
HETATM   21  O1  UNL     1      40.403  52.195   1.682  1.00  0.00    -0.375 OA
ATOM     22  H1  UNL     1      40.157  51.277   1.656  1.00  0.00     0.212 HD
ENDBRANCH  14  21
ENDBRANCH  12  14
ENDBRANCH   6  12
ENDBRANCH   2   4
ENDBRANCH   1   2
BRANCH   1  23
HETATM   23  C9  UNL     1      33.716  48.647   0.431  1.00  0.00     0.059 C
HETATM   24  C10 UNL     1      32.748  48.383  -0.695  1.00  0.00     0.133 C
HETATM   25  N4  UNL     1      32.664  46.978  -0.984  1.00  0.00    -0.371 N
HETATM   26  C11 UNL     1      32.740  45.946  -0.230  1.00  0.00     0.172 A
ATOM     27  H4  UNL     1      32.518  46.763  -1.971  1.00  0.00     0.161 HD
HETATM   28  C12 UNL     1      32.929  45.841   1.125  1.00  0.00     0.159 A
HETATM   29  N6  UNL     1      32.632  44.657  -0.677  1.00  0.00    -0.191 N
HETATM   30  N5  UNL     1      32.938  44.551   1.503  1.00  0.00    -0.244 N
HETATM   31  N8  UNL     1      33.080  46.822   1.943  1.00  0.00    -0.372 N
HETATM   32  C17 UNL     1      32.755  43.838   0.386  1.00  0.00     0.355 A
HETATM   33  O2  UNL     1      32.701  42.575   0.318  1.00  0.00    -0.244 OA
HETATM   34  C18 UNL     1      33.108  48.250   1.773  1.00  0.00     0.133 C
ATOM     35  H8  UNL     1      33.207  46.527   2.912  1.00  0.00     0.161 HD
BRANCH  30  36
HETATM   36  C13 UNL     1      33.117  44.021   2.852  1.00  0.00     0.052 A
HETATM   37  C14 UNL     1      34.310  43.610   3.322  1.00  0.00     0.038 A
HETATM   38  C15 UNL     1      34.338  43.131   4.607  1.00  0.00     0.052 A
HETATM   39  S1  UNL     1      32.717  43.267   5.114  1.00  0.00    -0.111 SA
HETATM   40  C16 UNL     1      32.043  43.924   3.696  1.00  0.00     0.079 A
ENDBRANCH  30  36
BRANCH  29  41
HETATM   41  N7  UNL     1      32.433  44.333  -2.020  1.00  0.00    -0.333 N
ATOM     42  H72 UNL     1      32.229  44.948  -2.808  1.00  0.00     0.177 HD
ATOM     43  H71 UNL     1      32.474  43.377  -2.373  1.00  0.00     0.177 HD
ENDBRANCH  29  41
ENDBRANCH   1  23
TORSDOF 10
ENDMDL