MODEL 1
REMARK VINA RESULT: -6.486172914      0.000      0.000
REMARK  10 active torsions:
REMARK  status: ('A' for Active; 'I' for Inactive)
REMARK    1  A    between atoms: O1_2  and  C2_3
REMARK    2  A    between atoms: C2_3  and  C3_5
REMARK    3  A    between atoms: C3_5  and  N1_6
REMARK    4  A    between atoms: C3_5  and  C4_10
REMARK       I    between atoms: C4_10  and  N2_12
REMARK    5  A    between atoms: N2_12  and  N3_14
REMARK    6  A    between atoms: C5_16  and  C7_18
REMARK       I    between atoms: C7_18  and  N4_20
REMARK    7  A    between atoms: N4_20  and  C8_21
REMARK    8  A    between atoms: C8_21  and  C10_23
REMARK    9  A    between atoms: C12_28  and  N7_29
REMARK   10  A    between atoms: C15_34  and  N9_35
ROOT
HETATM    1  C10 UNL     1      32.175  44.999   4.180  1.00  0.00     0.271 C
HETATM    2  N5  UNL     1      31.537  44.094   5.025  1.00  0.00    -0.110 NA
HETATM    3  N6  UNL     1      31.829  42.791   4.774  1.00  0.00    -0.333 N
ATOM      4  H6  UNL     1      31.987  42.117   5.523  1.00  0.00     0.175 HD
HETATM    5  C11 UNL     1      31.900  42.427   3.404  1.00  0.00     0.191 C
HETATM    6  C12 UNL     1      32.042  43.522   2.414  1.00  0.00     0.267 C
HETATM    7  O5  UNL     1      31.846  44.798   2.858  1.00  0.00    -0.337 OA
ENDROOT
BRANCH   1   8
HETATM    8  C8  UNL     1      33.725  45.047   4.323  1.00  0.00     0.209 C
HETATM    9  C9  UNL     1      34.096  45.211   5.762  1.00  0.00     0.052 C
BRANCH   8  10
HETATM   10  N4  UNL     1      34.228  45.870   3.386  1.00  0.00    -0.401 NA
HETATM   11  C7  UNL     1      34.744  46.718   2.419  1.00  0.00     0.335 C
HETATM   12  O4  UNL     1      35.931  47.155   2.350  1.00  0.00    -0.250 OA
BRANCH  11  13
HETATM   13  C5  UNL     1      33.871  47.214   1.325  1.00  0.00     0.103 C
HETATM   14  N3  UNL     1      33.253  46.330   0.624  1.00  0.00    -0.296 N
ATOM     15  H3  UNL     1      33.350  45.345   0.874  1.00  0.00     0.187 HD
HETATM   16  C6  UNL     1      33.794  48.658   1.061  1.00  0.00     0.077 C
BRANCH  14  17
HETATM   17  N2  UNL     1      32.467  46.669  -0.448  1.00  0.00    -0.268 N
HETATM   18  C4  UNL     1      32.231  45.746  -1.524  1.00  0.00     0.276 C
HETATM   19  O3  UNL     1      32.748  44.600  -1.469  1.00  0.00    -0.269 OA
ATOM     20  H2  UNL     1      32.041  47.596  -0.482  1.00  0.00     0.190 HD
BRANCH  18  21
HETATM   21  C3  UNL     1      31.391  46.178  -2.669  1.00  0.00     0.374 C
BRANCH  21  22
HETATM   22  C2  UNL     1      32.158  46.276  -3.928  1.00  0.00     0.298 C
HETATM   23  O2  UNL     1      32.219  45.279  -4.731  1.00  0.00    -0.262 OA
BRANCH  22  24
HETATM   24  O1  UNL     1      32.845  47.412  -4.330  1.00  0.00    -0.324 OA
HETATM   25  C1  UNL     1      32.814  48.591  -3.495  1.00  0.00     0.213 C
ENDBRANCH  22  24
ENDBRANCH  21  22
BRANCH  21  26
HETATM   26  N1  UNL     1      30.304  45.239  -2.863  1.00  0.00    -0.057 N
ATOM     27  H13 UNL     1      29.785  45.413  -3.724  1.00  0.00     0.275 HD
ATOM     28  H12 UNL     1      30.634  44.300  -3.086  1.00  0.00     0.275 HD
ATOM     29  H11 UNL     1      29.708  45.258  -2.035  1.00  0.00     0.275 HD
ENDBRANCH  21  26
ENDBRANCH  18  21
ENDBRANCH  14  17
ENDBRANCH  11  13
ENDBRANCH   8  10
ENDBRANCH   1   8
BRANCH   6  30
HETATM   30  N7  UNL     1      31.056  43.252   1.352  1.00  0.00    -0.244 N
HETATM   31  N8  UNL     1      31.266  42.414   0.335  1.00  0.00    -0.305 N
HETATM   32  C13 UNL     1      30.223  42.368  -0.487  1.00  0.00     0.126 A
ATOM     33  H8  UNL     1      32.123  41.876   0.205  1.00  0.00     0.186 HD
HETATM   34  C14 UNL     1      29.275  43.218   0.010  1.00  0.00     0.070 A
HETATM   35  C15 UNL     1      28.021  43.631  -0.325  1.00  0.00     0.115 A
HETATM   36  C17 UNL     1      29.832  43.761   1.174  1.00  0.00     0.141 A
HETATM   37  N10 UNL     1      27.368  44.523   0.449  1.00  0.00    -0.338 N
HETATM   38  C16 UNL     1      27.891  45.044   1.559  1.00  0.00     0.183 A
ATOM     39  H10 UNL     1      26.430  44.813   0.172  1.00  0.00     0.168 HD
HETATM   40  N11 UNL     1      29.135  44.642   1.899  1.00  0.00    -0.336 N
ATOM     41  H11 UNL     1      29.560  45.026   2.744  1.00  0.00     0.168 HD
BRANCH  35  42
HETATM   42  N9  UNL     1      27.462  43.155  -1.391  1.00  0.00    -0.385 N
ATOM     43  H92 UNL     1      26.581  43.542  -1.730  1.00  0.00     0.157 HD
ATOM     44  H91 UNL     1      27.911  42.386  -1.888  1.00  0.00     0.157 HD
ENDBRANCH  35  42
ENDBRANCH   6  30
TORSDOF 10
ENDMDL