MODEL 2
REMARK VINA RESULT: -5.807886962      2.369      7.467
REMARK  10 active torsions:
REMARK  status: ('A' for Active; 'I' for Inactive)
REMARK    1  A    between atoms: C2_2  and  O1_3
REMARK    2  A    between atoms: O1_3  and  C3_4
REMARK    3  A    between atoms: C3_4  and  N1_5
REMARK    4  A    between atoms: C5_7  and  C6_8
REMARK    5  A    between atoms: C6_8  and  N2_9
REMARK    6  A    between atoms: N2_9  and  C7_11
REMARK    7  A    between atoms: C12_22  and  N6_23
REMARK       I    between atoms: N8_29  and  C14_31
REMARK    8  A    between atoms: N12_38  and  C16_39
REMARK    9  A    between atoms: C16_39  and  C17_40
REMARK   10  A    between atoms: C17_40  and  O3_41
ROOT
HETATM    1  C7  UNL     1      33.987  49.662   0.471  1.00  0.00     0.683 A
HETATM    2  N3  UNL     1      34.433  49.257   1.642  1.00  0.00    -0.182 N
ATOM      3  H3  UNL     1      34.910  49.828   2.340  1.00  0.00     0.184 HD
HETATM    4  C8  UNL     1      34.146  47.966   1.743  1.00  0.00     0.164 A
HETATM    5  C9  UNL     1      34.405  47.050   2.735  1.00  0.00     0.292 A
HETATM    6  O2  UNL     1      34.992  47.460   3.768  1.00  0.00    -0.265 OA
HETATM    7  N4  UNL     1      34.032  45.798   2.564  1.00  0.00    -0.148 N
HETATM    8  C10 UNL     1      34.290  44.815   3.586  1.00  0.00     0.179 C
HETATM    9  C11 UNL     1      33.408  45.439   1.431  1.00  0.00     0.724 A
HETATM   10  N5  UNL     1      33.074  44.127   1.316  1.00  0.00    -0.021 N
ATOM     11  H5  UNL     1      33.286  43.479   2.075  1.00  0.00     0.203 HD
HETATM   12  C12 UNL     1      32.472  43.691   0.218  1.00  0.00     0.705 A
HETATM   13  N7  UNL     1      32.192  44.530  -0.773  1.00  0.00    -0.021 N
ATOM     14  H7  UNL     1      31.728  44.178  -1.610  1.00  0.00     0.203 HD
HETATM   15  C13 UNL     1      32.515  45.862  -0.691  1.00  0.00     0.722 A
HETATM   16  N8  UNL     1      32.161  46.474  -1.693  1.00  0.00    -0.162 N
ATOM     17  H8  UNL     1      32.367  47.473  -1.709  1.00  0.00     0.187 HD
HETATM   18  C14 UNL     1      31.496  45.949  -2.835  1.00  0.00     0.200 C
HETATM   19  N9  UNL     1      30.219  45.958  -2.810  1.00  0.00    -0.373 N
ATOM     20  H91 UNL     1      29.741  45.581  -3.629  1.00  0.00     0.158 HD
ATOM     21  H92 UNL     1      29.772  46.338  -1.976  1.00  0.00     0.158 HD
HETATM   22  N10 UNL     1      32.111  45.425  -3.984  1.00  0.00    -0.063 NA
HETATM   23  N11 UNL     1      33.115  46.279   0.407  1.00  0.00     0.043 N
HETATM   24  C15 UNL     1      33.490  47.583   0.560  1.00  0.00     0.198 A
HETATM   25  N12 UNL     1      33.381  48.622  -0.238  1.00  0.00    -0.162 N
ENDROOT
BRANCH   1  26
HETATM   26  N2  UNL     1      34.136  50.888   0.064  1.00  0.00    -0.221 N
ATOM     27  H2  UNL     1      33.433  51.284  -0.559  1.00  0.00     0.178 HD
BRANCH  26  28
HETATM   28  C6  UNL     1      35.233  51.697   0.449  1.00  0.00     0.179 C
BRANCH  28  29
HETATM   29  C5  UNL     1      36.111  51.931  -0.733  1.00  0.00    -0.006 A
HETATM   30  C4  UNL     1      35.706  51.949  -2.051  1.00  0.00     0.122 A
HETATM   31  N1  UNL     1      36.763  52.189  -2.848  1.00  0.00    -0.280 N
HETATM   32  N13 UNL     1      37.816  52.320  -2.048  1.00  0.00    -0.308 N
HETATM   33  C18 UNL     1      37.462  52.171  -0.763  1.00  0.00     0.117 A
ATOM     34  H13 UNL     1      38.765  52.509  -2.368  1.00  0.00     0.186 HD
BRANCH  31  35
HETATM   35  C3  UNL     1      36.745  52.283  -4.306  1.00  0.00     0.315 C
BRANCH  35  36
HETATM   36  O1  UNL     1      35.467  52.264  -4.824  1.00  0.00    -0.371 OA
BRANCH  36  37
HETATM   37  C2  UNL     1      35.183  51.159  -5.583  1.00  0.00     0.165 C
HETATM   38  C1  UNL     1      34.065  50.312  -5.037  1.00  0.00     0.033 C
ENDBRANCH  36  37
ENDBRANCH  35  36
ENDBRANCH  31  35
ENDBRANCH  28  29
ENDBRANCH  26  28
ENDBRANCH   1  26
BRANCH  25  39
HETATM   39  C16 UNL     1      32.898  48.953  -1.503  1.00  0.00     0.175 C
BRANCH  39  40
HETATM   40  C17 UNL     1      31.513  49.625  -1.504  1.00  0.00     0.185 C
BRANCH  40  41
HETATM   41  O3  UNL     1      30.466  48.815  -1.207  1.00  0.00    -0.399 OA
ATOM     42  H3  UNL     1      29.615  49.237  -1.175  1.00  0.00     0.209 HD
ENDBRANCH  40  41
ENDBRANCH  39  40
ENDBRANCH  25  39
BRANCH  12  43
HETATM   43  N6  UNL     1      32.163  42.448   0.113  1.00  0.00    -0.234 N
ATOM     44  H62 UNL     1      32.742  41.826  -0.450  1.00  0.00     0.174 HD
ATOM     45  H61 UNL     1      31.340  42.089   0.596  1.00  0.00     0.174 HD
ENDBRANCH  12  43
TORSDOF 10
ENDMDL