MODEL 5
REMARK VINA RESULT: -6.481008290      3.015      5.345
REMARK  8 active torsions:
REMARK  status: ('A' for Active; 'I' for Inactive)
REMARK    1  A    between atoms: N1_2  and  C2_3
REMARK    2  A    between atoms: N1_2  and  C10_26
REMARK    3  A    between atoms: C2_3  and  C3_4
REMARK    4  A    between atoms: C4_11  and  C5_12
REMARK    5  A    between atoms: C5_12  and  C6_14
REMARK    6  A    between atoms: C7_19  and  C8_20
REMARK    7  A    between atoms: C9_23  and  O4_24
REMARK    8  A    between atoms: C11_29  and  N8_30
REMARK       I    between atoms: N8_30  and  C12_32
REMARK       I    between atoms: C12_32  and  N9_33
REMARK       I    between atoms: C12_32  and  N10_37
ROOT
HETATM    1  C1  UNL     1      30.437  44.159   2.723  1.00  0.00     0.152 C
HETATM    2  N1  UNL     1      31.802  43.664   2.460  1.00  0.00    -0.361 N
ENDROOT
BRANCH   2   3
HETATM    3  C2  UNL     1      31.934  42.685   1.437  1.00  0.00     0.185 C
BRANCH   3   4
HETATM    4  C3  UNL     1      30.999  42.897   0.301  1.00  0.00     0.077 A
HETATM    5  N2  UNL     1      29.738  42.433   0.226  1.00  0.00    -0.286 N
HETATM    6  N3  UNL     1      29.178  42.828  -0.922  1.00  0.00    -0.242 N
ATOM      7  H2  UNL     1      29.279  41.865   0.938  1.00  0.00     0.188 HD
HETATM    8  N4  UNL     1      30.047  43.537  -1.596  1.00  0.00    -0.281 N
ATOM      9  H3  UNL     1      28.227  42.611  -1.223  1.00  0.00     0.208 HD
HETATM   10  C4  UNL     1      31.196  43.602  -0.865  1.00  0.00     0.127 A
ATOM     11  H4  UNL     1      29.893  43.966  -2.508  1.00  0.00     0.188 HD
BRANCH  10  12
HETATM   12  C5  UNL     1      32.377  44.291  -1.332  1.00  0.00     0.232 C
HETATM   13  O1  UNL     1      33.438  43.573  -1.376  1.00  0.00    -0.283 OA
BRANCH  12  14
HETATM   14  C6  UNL     1      32.457  45.671  -1.735  1.00  0.00     0.136 A
HETATM   15  N5  UNL     1      32.677  46.745  -0.968  1.00  0.00    -0.294 N
HETATM   16  N6  UNL     1      32.717  47.848  -1.680  1.00  0.00    -0.292 N
ATOM     17  H5  UNL     1      32.799  46.711   0.044  1.00  0.00     0.187 HD
HETATM   18  C7  UNL     1      32.519  47.556  -2.984  1.00  0.00     0.161 A
ATOM     19  H6  UNL     1      32.873  48.784  -1.305  1.00  0.00     0.187 HD
HETATM   20  C9  UNL     1      32.355  46.192  -3.032  1.00  0.00     0.133 A
BRANCH  18  21
HETATM   21  C8  UNL     1      32.486  48.478  -4.112  1.00  0.00     0.231 C
HETATM   22  O2  UNL     1      33.217  49.506  -4.147  1.00  0.00    -0.643 OA
HETATM   23  O3  UNL     1      31.651  48.265  -5.191  1.00  0.00    -0.643 OA
ENDBRANCH  18  21
BRANCH  20  24
HETATM   24  O4  UNL     1      32.124  45.363  -4.113  1.00  0.00    -0.356 OA
ATOM     25  H4  UNL     1      31.760  45.705  -4.921  1.00  0.00     0.218 HD
ENDBRANCH  20  24
ENDBRANCH  12  14
ENDBRANCH  10  12
ENDBRANCH   3   4
ENDBRANCH   2   3
BRANCH   2  26
HETATM   26  C10 UNL     1      32.825  44.227   3.243  1.00  0.00     0.188 C
HETATM   27  N7  UNL     1      33.243  43.507   4.315  1.00  0.00    -0.171 N
HETATM   28  C11 UNL     1      34.003  43.919   5.398  1.00  0.00     0.688 C
ATOM     29  H7  UNL     1      32.959  42.527   4.325  1.00  0.00     0.186 HD
HETATM   30  N11 UNL     1      34.037  45.210   5.805  1.00  0.00    -0.137 N
HETATM   31  C13 UNL     1      34.013  45.445   7.233  1.00  0.00     0.180 C
HETATM   32  C14 UNL     1      34.083  46.308   5.016  1.00  0.00     0.343 C
HETATM   33  O5  UNL     1      34.556  47.338   5.550  1.00  0.00    -0.246 OA
HETATM   34  N12 UNL     1      33.681  46.444   3.713  1.00  0.00    -0.272 N
HETATM   35  C15 UNL     1      33.304  45.461   2.855  1.00  0.00     0.293 C
ATOM     36  H12 UNL     1      33.663  47.395   3.344  1.00  0.00     0.174 HD
HETATM   37  O6  UNL     1      33.395  45.683   1.617  1.00  0.00    -0.264 OA
BRANCH  28  38
HETATM   38  N8  UNL     1      34.637  43.031   5.966  1.00  0.00    -0.173 N
HETATM   39  C12 UNL     1      34.592  41.762   6.487  1.00  0.00     0.494 C
HETATM   40  N9  UNL     1      35.076  41.708   7.901  1.00  0.00    -0.032 N
HETATM   41  N10 UNL     1      35.464  40.812   5.805  1.00  0.00    -0.032 N
ATOM     42  H93 UNL     1      36.011  42.107   7.985  1.00  0.00     0.278 HD
ATOM     43  H92 UNL     1      34.565  42.365   8.490  1.00  0.00     0.278 HD
ATOM     44  H91 UNL     1      35.042  40.765   8.288  1.00  0.00     0.278 HD
ATOM     45 3H10 UNL     1      35.266  40.797   4.804  1.00  0.00     0.278 HD
ATOM     46 2H10 UNL     1      36.424  41.157   5.784  1.00  0.00     0.278 HD
ATOM     47 1H10 UNL     1      35.431  39.870   6.191  1.00  0.00     0.278 HD
ATOM     48  H8  UNL     1      35.585  43.382   6.108  1.00  0.00     0.181 HD
ENDBRANCH  28  38
ENDBRANCH   2  26
TORSDOF 8
ENDMDL