MODEL 2
REMARK VINA RESULT: -6.195575544      9.868     13.641
REMARK  10 active torsions:
REMARK  status: ('A' for Active; 'I' for Inactive)
REMARK    1  A    between atoms: O1_2  and  N1_3
REMARK    2  A    between atoms: C2_5  and  C3_6
REMARK    3  A    between atoms: C2_5  and  C14_44
REMARK    4  A    between atoms: C6_17  and  N6_18
REMARK       I    between atoms: N6_18  and  C7_20
REMARK       I    between atoms: C7_20  and  N8_24
REMARK    5  A    between atoms: N8_24  and  N9_26
REMARK    6  A    between atoms: C8_28  and  C10_30
REMARK    7  A    between atoms: C11_37  and  C12_38
REMARK    8  A    between atoms: C14_44  and  N15_45
REMARK    9  A    between atoms: C14_44  and  C15_49
REMARK   10  A    between atoms: C15_49  and  O3_50
ROOT
HETATM    1  C3  UNL     1      32.188  44.440   1.972  1.00  0.00     0.147 A
HETATM    2  N2  UNL     1      32.160  43.250   1.361  1.00  0.00    -0.282 N
ATOM      3  H2  UNL     1      32.630  43.175   0.459  1.00  0.00     0.188 HD
HETATM    4  N3  UNL     1      31.574  42.168   1.831  1.00  0.00    -0.282 N
ATOM      5  H3  UNL     1      31.602  41.299   1.298  1.00  0.00     0.188 HD
HETATM    6  C4  UNL     1      30.935  42.213   3.028  1.00  0.00     0.152 A
HETATM    7  N4  UNL     1      30.319  41.142   3.558  1.00  0.00    -0.336 N
ATOM      8  H4  UNL     1      30.322  40.253   3.059  1.00  0.00     0.168 HD
HETATM    9  C5  UNL     1      29.690  41.244   4.764  1.00  0.00     0.183 A
HETATM   10  N5  UNL     1      29.666  42.405   5.454  1.00  0.00    -0.336 N
ATOM     11  H5  UNL     1      29.192  42.466   6.356  1.00  0.00     0.168 HD
HETATM   12  C6  UNL     1      30.283  43.481   4.926  1.00  0.00     0.152 A
HETATM   13  C13 UNL     1      30.940  43.421   3.692  1.00  0.00     0.125 A
HETATM   14  N14 UNL     1      31.551  44.505   3.176  1.00  0.00    -0.334 N
ATOM     15  H14 UNL     1      31.537  45.385   3.692  1.00  0.00     0.168 HD
ENDROOT
BRANCH  12  16
HETATM   16  N6  UNL     1      30.321  44.631   5.502  1.00  0.00    -0.173 N
HETATM   17  C7  UNL     1      31.102  44.767   6.675  1.00  0.00     0.692 C
HETATM   18  N7  UNL     1      30.599  44.828   7.855  1.00  0.00    -0.233 N
HETATM   19  N8  UNL     1      32.531  44.844   6.564  1.00  0.00    -0.132 N
ATOM     20  H72 UNL     1      29.583  44.774   7.933  1.00  0.00     0.174 HD
ATOM     21  H71 UNL     1      31.162  44.926   8.700  1.00  0.00     0.174 HD
ATOM     22  H8  UNL     1      32.913  45.064   5.645  1.00  0.00     0.205 HD
ATOM     23  H6  UNL     1      29.801  45.423   5.125  1.00  0.00     0.186 HD
BRANCH  19  24
HETATM   24  N9  UNL     1      33.405  44.655   7.550  1.00  0.00    -0.289 N
HETATM   25  C8  UNL     1      34.298  43.851   7.915  1.00  0.00     0.053 C
HETATM   26  C9  UNL     1      34.994  44.177   9.197  1.00  0.00     0.072 C
ATOM     27  H9  UNL     1      33.323  45.410   8.231  1.00  0.00     0.187 HD
BRANCH  25  28
HETATM   28  C10 UNL     1      34.576  42.622   7.189  1.00  0.00     0.106 A
HETATM   29  N10 UNL     1      34.811  41.415   7.807  1.00  0.00    -0.282 N
HETATM   30  N11 UNL     1      35.143  40.550   6.878  1.00  0.00    -0.242 N
ATOM     31  H10 UNL     1      34.740  41.227   8.807  1.00  0.00     0.188 HD
HETATM   32  N12 UNL     1      35.140  41.101   5.707  1.00  0.00    -0.279 N
ATOM     33  H11 UNL     1      35.374  39.573   7.056  1.00  0.00     0.208 HD
HETATM   34  C11 UNL     1      34.777  42.431   5.867  1.00  0.00     0.144 A
ATOM     35  H12 UNL     1      35.364  40.640   4.825  1.00  0.00     0.189 HD
BRANCH  34  36
HETATM   36  C12 UNL     1      34.592  43.237   4.675  1.00  0.00     0.285 C
HETATM   37  N13 UNL     1      34.470  42.577   3.385  1.00  0.00    -0.056 NA
HETATM   38  O2  UNL     1      34.524  44.471   4.634  1.00  0.00    -0.269 OA
ENDBRANCH  34  36
ENDBRANCH  25  28
ENDBRANCH  19  24
ENDBRANCH  12  16
BRANCH   1  39
HETATM   39  C2  UNL     1      32.853  45.600   1.399  1.00  0.00     0.110 C
HETATM   40  N1  UNL     1      32.498  46.022   0.241  1.00  0.00    -0.265 N
ATOM     41  H1  UNL     1      32.966  46.836  -0.158  1.00  0.00     0.194 HD
BRANCH  40  42
HETATM   42  O1  UNL     1      31.512  45.410  -0.466  1.00  0.00    -0.285 OA
HETATM   43  C1  UNL     1      31.646  44.945  -1.779  1.00  0.00     0.237 C
ENDBRANCH  40  42
BRANCH  39  44
HETATM   44  C14 UNL     1      33.944  46.316   2.126  1.00  0.00     0.262 C
BRANCH  44  45
HETATM   45  N15 UNL     1      35.176  45.570   1.930  1.00  0.00    -0.067 N
ATOM     46 3H15 UNL     1      35.327  45.307   0.955  1.00  0.00     0.275 HD
ATOM     47 2H15 UNL     1      36.010  46.145   2.046  1.00  0.00     0.275 HD
ATOM     48 1H15 UNL     1      35.159  44.767   2.558  1.00  0.00     0.275 HD
ENDBRANCH  44  45
BRANCH  44  49
HETATM   49  C15 UNL     1      34.140  47.681   1.549  1.00  0.00     0.203 C
BRANCH  49  50
HETATM   50  O3  UNL     1      35.397  48.202   1.875  1.00  0.00    -0.398 OA
ATOM     51  H3  UNL     1      35.388  49.151   1.895  1.00  0.00     0.209 HD
ENDBRANCH  49  50
ENDBRANCH  44  49
ENDBRANCH  39  44
ENDBRANCH   1  39
TORSDOF 10
ENDMDL