MODEL 2
REMARK VINA RESULT: -5.541003216      3.150      6.578
REMARK  11 active torsions:
REMARK  status: ('A' for Active; 'I' for Inactive)
REMARK    1  A    between atoms: N1_1  and  C1_4
REMARK    2  A    between atoms: C2_7  and  C3_8
REMARK    3  A    between atoms: C3_8  and  N3_9
REMARK    4  A    between atoms: N3_9  and  C4_11
REMARK    5  A    between atoms: C4_11  and  O1_12
REMARK    6  A    between atoms: C4_11  and  C5_14
REMARK    7  A    between atoms: C6_18  and  C7_19
REMARK    8  A    between atoms: C7_19  and  N5_20
REMARK    9  A    between atoms: C8_24  and  N6_25
REMARK   10  A    between atoms: C11_31  and  C12_32
REMARK   11  A    between atoms: C14_37  and  C15_38
ROOT
HETATM    1  C5  UNL     1      38.930  53.428   1.878  1.00  0.00     0.134 A
HETATM    2  N4  UNL     1      39.766  53.437   2.956  1.00  0.00    -0.254 N
ATOM      3  H4  UNL     1      40.743  53.727   2.932  1.00  0.00     0.195 HD
HETATM    4  O2  UNL     1      39.150  53.028   4.006  1.00  0.00    -0.238 OA
HETATM    5  C6  UNL     1      37.907  52.722   3.739  1.00  0.00     0.131 A
HETATM    6  C8  UNL     1      37.737  52.971   2.368  1.00  0.00     0.104 A
ENDROOT
BRANCH   1   7
HETATM    7  C4  UNL     1      39.266  53.787   0.524  1.00  0.00     0.168 C
BRANCH   7   8
HETATM    8  N3  UNL     1      38.442  54.136  -0.539  1.00  0.00    -0.363 N
ATOM      9  H3  UNL     1      38.258  53.438  -1.260  1.00  0.00     0.162 HD
BRANCH   8  10
HETATM   10  C3  UNL     1      37.842  55.420  -0.670  1.00  0.00     0.180 C
BRANCH  10  11
HETATM   11  C2  UNL     1      37.137  55.654  -1.993  1.00  0.00     0.050 A
HETATM   12  N2  UNL     1      36.014  55.075  -2.344  1.00  0.00    -0.338 N
HETATM   13  C1  UNL     1      35.508  55.337  -3.547  1.00  0.00     0.143 A
ATOM     14  H2  UNL     1      35.538  54.437  -1.707  1.00  0.00     0.168 HD
HETATM   15  S1  UNL     1      36.625  56.423  -4.220  1.00  0.00    -0.049 SA
HETATM   16  C14 UNL     1      37.725  56.501  -2.900  1.00  0.00     0.078 A
BRANCH  13  17
HETATM   17  N1  UNL     1      34.394  54.840  -4.052  1.00  0.00    -0.380 N
ATOM     18  H12 UNL     1      33.421  55.048  -3.828  1.00  0.00     0.158 HD
ATOM     19  H11 UNL     1      34.325  54.133  -4.784  1.00  0.00     0.158 HD
ENDBRANCH  13  17
BRANCH  16  20
HETATM   20  C15 UNL     1      38.966  57.279  -2.790  1.00  0.00     0.150 A
HETATM   21  N9  UNL     1      40.137  57.020  -3.377  1.00  0.00    -0.269 N
HETATM   22  N10 UNL     1      40.976  57.987  -3.007  1.00  0.00    -0.007 NA
ATOM     23  H9  UNL     1      40.348  56.233  -3.991  1.00  0.00     0.185 HD
HETATM   24  N11 UNL     1      40.368  58.848  -2.205  1.00  0.00    -0.007 NA
HETATM   25  N12 UNL     1      39.134  58.394  -2.083  1.00  0.00    -0.269 N
ATOM     26  H12 UNL     1      38.406  58.839  -1.524  1.00  0.00     0.185 HD
ENDBRANCH  16  20
ENDBRANCH  10  11
ENDBRANCH   8  10
ENDBRANCH   7   8
BRANCH   7  27
HETATM   27  O1  UNL     1      40.541  53.789   0.241  1.00  0.00    -0.344 OA
ATOM     28  H1  UNL     1      41.091  53.393   0.907  1.00  0.00     0.219 HD
ENDBRANCH   7  27
ENDBRANCH   1   7
BRANCH   6  29
HETATM   29  N6  UNL     1      36.502  52.717   1.756  1.00  0.00    -0.310 N
HETATM   30  C9  UNL     1      35.308  53.555   1.899  1.00  0.00     0.160 C
HETATM   31  C10 UNL     1      34.652  53.751   0.538  1.00  0.00     0.254 C
HETATM   32  N7  UNL     1      34.214  52.460   0.075  1.00  0.00    -0.052 N
HETATM   33  C11 UNL     1      35.319  51.559  -0.179  1.00  0.00     0.365 C
ATOM     34  H72 UNL     1      33.543  52.045   0.721  1.00  0.00     0.278 HD
ATOM     35  H71 UNL     1      33.615  52.548  -0.747  1.00  0.00     0.278 HD
HETATM   36  C13 UNL     1      36.348  51.582   0.900  1.00  0.00     0.264 C
HETATM   37  O4  UNL     1      37.072  50.564   1.025  1.00  0.00    -0.270 OA
BRANCH  33  38
HETATM   38  C12 UNL     1      35.858  51.863  -1.518  1.00  0.00     0.271 C
HETATM   39  N8  UNL     1      34.964  51.996  -2.602  1.00  0.00    -0.060 NA
HETATM   40  O3  UNL     1      37.074  52.005  -1.723  1.00  0.00    -0.274 OA
ENDBRANCH  33  38
ENDBRANCH   6  29
BRANCH   5  41
HETATM   41  C7  UNL     1      36.925  52.222   4.728  1.00  0.00     0.299 C
BRANCH  41  42
HETATM   42  N5  UNL     1      37.548  52.199   6.064  1.00  0.00    -0.073 N
ATOM     43  H53 UNL     1      38.553  52.369   6.025  1.00  0.00     0.274 HD
ATOM     44  H52 UNL     1      37.286  53.009   6.626  1.00  0.00     0.274 HD
ATOM     45  H51 UNL     1      37.322  51.319   6.526  1.00  0.00     0.274 HD
ENDBRANCH  41  42
ENDBRANCH   5  41
TORSDOF 11
ENDMDL