MODEL 3
REMARK VINA RESULT: -6.801323931      6.139      9.036
REMARK  10 active torsions:
REMARK  status: ('A' for Active; 'I' for Inactive)
REMARK    1  A    between atoms: C3_5  and  C4_6
REMARK    2  A    between atoms: C4_6  and  S1_7
REMARK    3  A    between atoms: S1_7  and  N2_8
REMARK    4  A    between atoms: N2_8  and  C5_9
REMARK    5  A    between atoms: C5_9  and  C6_10
REMARK    6  A    between atoms: C8_22  and  N8_23
REMARK    7  A    between atoms: N8_23  and  C9_25
REMARK    8  A    between atoms: C10_28  and  N10_29
REMARK    9  A    between atoms: C14_37  and  N12_38
REMARK   10  A    between atoms: C15_42  and  N13_43
ROOT
HETATM    1  C9  UNL     1      37.157  53.535  -2.758  1.00  0.00     0.146 A
HETATM    2  N9  UNL     1      37.390  54.849  -2.579  1.00  0.00    -0.176 N
ATOM      3  H9  UNL     1      37.906  55.118  -1.742  1.00  0.00     0.186 HD
HETATM    4  C10 UNL     1      37.009  55.833  -3.396  1.00  0.00     0.679 A
HETATM    5  N11 UNL     1      36.334  55.502  -4.498  1.00  0.00    -0.176 N
ATOM      6  H11 UNL     1      36.033  56.237  -5.138  1.00  0.00     0.186 HD
HETATM    7  C11 UNL     1      36.041  54.218  -4.783  1.00  0.00     0.130 A
HETATM    8  C12 UNL     1      36.454  53.212  -3.914  1.00  0.00     0.034 A
HETATM    9  C13 UNL     1      36.155  51.846  -4.369  1.00  0.00     0.083 C
HETATM   10  C14 UNL     1      34.770  51.661  -4.904  1.00  0.00     0.237 C
HETATM   11  C15 UNL     1      34.303  52.741  -5.808  1.00  0.00     0.315 C
HETATM   12  N14 UNL     1      35.274  53.846  -5.921  1.00  0.00    -0.341 N
HETATM   13  C16 UNL     1      35.462  54.593  -7.129  1.00  0.00     0.153 C
ENDROOT
BRANCH   1  14
HETATM   14  N8  UNL     1      37.523  52.532  -1.844  1.00  0.00    -0.175 N
ATOM     15  H8  UNL     1      37.614  51.589  -2.224  1.00  0.00     0.186 HD
BRANCH  14  16
HETATM   16  C8  UNL     1      37.779  52.673  -0.471  1.00  0.00     0.688 C
HETATM   17  N1  UNL     1      36.885  52.247   0.527  1.00  0.00    -0.155 N
HETATM   18  C1  UNL     1      35.612  51.559   0.247  1.00  0.00     0.178 C
HETATM   19  C2  UNL     1      37.246  52.426   1.867  1.00  0.00     0.247 C
HETATM   20  O1  UNL     1      36.569  51.878   2.769  1.00  0.00    -0.272 OA
HETATM   21  C3  UNL     1      38.416  53.251   2.363  1.00  0.00     0.128 C
HETATM   22  C7  UNL     1      39.365  53.411   1.230  1.00  0.00     0.094 C
HETATM   23  N7  UNL     1      38.906  53.205  -0.072  1.00  0.00    -0.204 N
ATOM     24  H7  UNL     1      39.535  53.512  -0.813  1.00  0.00     0.183 HD
BRANCH  21  25
HETATM   25  C4  UNL     1      38.947  52.549   3.553  1.00  0.00     0.112 C
BRANCH  25  26
HETATM   26  S1  UNL     1      38.965  53.495   5.076  1.00  0.00    -0.064 SA
BRANCH  26  27
HETATM   27  N2  UNL     1      40.168  52.628   6.144  1.00  0.00    -0.172 NA
BRANCH  27  28
HETATM   28  C5  UNL     1      40.767  53.692   6.913  1.00  0.00     0.202 C
BRANCH  28  29
HETATM   29  C6  UNL     1      42.210  53.413   7.166  1.00  0.00     0.128 A
HETATM   30  N3  UNL     1      42.962  54.297   7.857  1.00  0.00    -0.271 N
HETATM   31  N4  UNL     1      44.151  53.788   7.964  1.00  0.00    -0.227 N
ATOM     32  H3  UNL     1      42.654  55.196   8.226  1.00  0.00     0.190 HD
HETATM   33  N5  UNL     1      44.189  52.635   7.378  1.00  0.00    -0.227 N
ATOM     34  H4  UNL     1      44.937  54.231   8.439  1.00  0.00     0.210 HD
HETATM   35  N6  UNL     1      42.981  52.362   6.862  1.00  0.00    -0.271 N
ATOM     36  H5  UNL     1      45.008  52.029   7.319  1.00  0.00     0.210 HD
ATOM     37  H6  UNL     1      42.707  51.526   6.345  1.00  0.00     0.190 HD
ENDBRANCH  28  29
ENDBRANCH  27  28
ENDBRANCH  26  27
ENDBRANCH  25  26
ENDBRANCH  21  25
ENDBRANCH  14  16
ENDBRANCH   1  14
BRANCH   4  38
HETATM   38  N10 UNL     1      37.275  57.066  -3.115  1.00  0.00    -0.234 N
ATOM     39 2H10 UNL     1      36.690  57.603  -2.473  1.00  0.00     0.174 HD
ATOM     40 1H10 UNL     1      38.087  57.531  -3.521  1.00  0.00     0.174 HD
ENDBRANCH   4  38
BRANCH  10  41
HETATM   41  N12 UNL     1      34.716  50.389  -5.597  1.00  0.00    -0.071 N
ATOM     42 3H12 UNL     1      35.319  50.364  -6.419  1.00  0.00     0.274 HD
ATOM     43 2H12 UNL     1      35.165  49.638  -5.073  1.00  0.00     0.274 HD
ATOM     44 1H12 UNL     1      33.741  50.186  -5.819  1.00  0.00     0.274 HD
ENDBRANCH  10  41
BRANCH  11  45
HETATM   45  N13 UNL     1      33.065  53.284  -5.217  1.00  0.00    -0.056 N
ATOM     46 3H13 UNL     1      33.198  53.656  -4.277  1.00  0.00     0.276 HD
ATOM     47 2H13 UNL     1      32.756  54.151  -5.656  1.00  0.00     0.276 HD
ATOM     48 1H13 UNL     1      32.369  52.540  -5.261  1.00  0.00     0.276 HD
ENDBRANCH  11  45
TORSDOF 10
ENDMDL