MODEL 3
REMARK VINA RESULT: -6.134513304      3.123      5.704
REMARK  11 active torsions:
REMARK  status: ('A' for Active; 'I' for Inactive)
REMARK    1  A    between atoms: C2_2  and  C4_12
REMARK    2  A    between atoms: N1_3  and  N2_5
REMARK       I    between atoms: N2_5  and  C3_7
REMARK       I    between atoms: C4_12  and  N5_14
REMARK    3  A    between atoms: N5_14  and  N6_16
REMARK    4  A    between atoms: C5_21  and  C6_22
REMARK    5  A    between atoms: C6_22  and  N9_23
REMARK    6  A    between atoms: C6_22  and  O2_27
REMARK    7  A    between atoms: C7_29  and  C8_30
REMARK    8  A    between atoms: C8_30  and  C9_31
REMARK    9  A    between atoms: C11_33  and  C12_34
REMARK   10  A    between atoms: C13_38  and  C14_39
REMARK   11  A    between atoms: C14_39  and  O4_40
ROOT
HETATM    1  C14 UNL     1      32.598  46.278   1.462  1.00  0.00     0.167 C
HETATM    2  N11 UNL     1      31.501  46.352   2.108  1.00  0.00    -0.273 N
ATOM      3  H11 UNL     1      31.633  46.576   3.095  1.00  0.00     0.180 HD
HETATM    4  C15 UNL     1      30.205  46.199   1.772  1.00  0.00     0.183 C
HETATM    5  N12 UNL     1      29.086  46.075   1.512  1.00  0.00    -0.172 NA
ENDROOT
BRANCH   1   6
HETATM    6  C13 UNL     1      32.592  45.967   0.040  1.00  0.00     0.064 A
HETATM    7  C9  UNL     1      32.563  44.805  -0.670  1.00  0.00    -0.029 A
HETATM    8  C10 UNL     1      32.476  44.957  -2.038  1.00  0.00     0.033 A
HETATM    9  C11 UNL     1      32.430  46.201  -2.563  1.00  0.00     0.071 A
HETATM   10  S1  UNL     1      32.503  47.189  -1.203  1.00  0.00    -0.080 SA
BRANCH   7  11
HETATM   11  C8  UNL     1      32.620  43.373  -0.135  1.00  0.00     0.103 C
BRANCH  11  12
HETATM   12  C7  UNL     1      31.521  42.931   0.681  1.00  0.00     0.086 A
HETATM   13  N6  UNL     1      31.624  42.605   1.999  1.00  0.00    -0.181 N
HETATM   14  N7  UNL     1      30.452  42.267   2.463  1.00  0.00    -0.221 N
HETATM   15  N8  UNL     1      29.572  42.359   1.517  1.00  0.00    -0.282 N
ATOM     16  H7  UNL     1      30.258  41.976   3.422  1.00  0.00     0.210 HD
HETATM   17  C5  UNL     1      30.198  42.781   0.365  1.00  0.00     0.109 A
ATOM     18  H8  UNL     1      28.578  42.152   1.610  1.00  0.00     0.188 HD
BRANCH  13  19
HETATM   19  N5  UNL     1      32.754  42.684   2.864  1.00  0.00    -0.242 N
HETATM   20  C4  UNL     1      32.697  43.501   4.015  1.00  0.00     0.285 C
HETATM   21  O1  UNL     1      31.625  44.163   4.275  1.00  0.00    -0.265 OA
ATOM     22  H5  UNL     1      33.600  42.153   2.652  1.00  0.00     0.192 HD
BRANCH  20  23
HETATM   23  C2  UNL     1      33.767  43.666   4.954  1.00  0.00     0.091 C
HETATM   24  C1  UNL     1      34.437  42.423   5.538  1.00  0.00     0.076 C
HETATM   25  N1  UNL     1      34.227  44.743   5.356  1.00  0.00    -0.297 N
ATOM     26  H1  UNL     1      34.984  44.565   6.017  1.00  0.00     0.187 HD
BRANCH  25  27
HETATM   27  N2  UNL     1      34.060  46.064   5.211  1.00  0.00    -0.274 N
HETATM   28  C3  UNL     1      32.837  46.692   5.582  1.00  0.00     0.200 C
HETATM   29  N3  UNL     1      32.268  46.340   6.663  1.00  0.00    -0.372 N
HETATM   30  N4  UNL     1      32.252  47.695   4.764  1.00  0.00    -0.062 NA
ATOM     31  H32 UNL     1      32.688  45.620   7.251  1.00  0.00     0.158 HD
ATOM     32  H31 UNL     1      31.391  46.790   6.928  1.00  0.00     0.158 HD
ATOM     33  H2  UNL     1      34.820  46.628   4.830  1.00  0.00     0.189 HD
ENDBRANCH  25  27
ENDBRANCH  20  23
ENDBRANCH  13  19
BRANCH  17  34
HETATM   34  C6  UNL     1      29.402  43.107  -0.845  1.00  0.00     0.370 C
BRANCH  34  35
HETATM   35  N9  UNL     1      29.388  44.489  -1.206  1.00  0.00    -0.047 N
ATOM     36  H93 UNL     1      28.494  44.910  -0.953  1.00  0.00     0.277 HD
ATOM     37  H92 UNL     1      30.012  45.018  -0.597  1.00  0.00     0.277 HD
ATOM     38  H91 UNL     1      29.604  44.682  -2.184  1.00  0.00     0.277 HD
ENDBRANCH  34  35
BRANCH  34  39
HETATM   39  O2  UNL     1      28.076  42.717  -0.662  1.00  0.00    -0.365 OA
ATOM     40  H2  UNL     1      27.528  43.482  -0.525  1.00  0.00     0.212 HD
ENDBRANCH  34  39
ENDBRANCH  17  34
ENDBRANCH  11  12
ENDBRANCH   7  11
BRANCH   9  41
HETATM   41  C12 UNL     1      32.338  46.602  -3.983  1.00  0.00     0.271 C
HETATM   42  N10 UNL     1      31.870  45.657  -4.904  1.00  0.00    -0.057 NA
HETATM   43  O3  UNL     1      32.674  47.740  -4.311  1.00  0.00    -0.270 OA
ENDBRANCH   9  41
ENDBRANCH   1   6
BRANCH   1  44
HETATM   44  O4  UNL     1      33.734  46.496   2.173  1.00  0.00    -0.345 OA
ATOM     45  H4  UNL     1      34.089  45.870   2.794  1.00  0.00     0.219 HD
ENDBRANCH   1  44
TORSDOF 11
ENDMDL