MODEL 5
REMARK VINA RESULT: -5.831705463      0.913      1.412
REMARK  12 active torsions:
REMARK  status: ('A' for Active; 'I' for Inactive)
REMARK    1  A    between atoms: N1_2  and  C3_4
REMARK    2  A    between atoms: C4_7  and  C5_8
REMARK    3  A    between atoms: N3_14  and  C7_15
REMARK    4  A    between atoms: C8_18  and  N5_19
REMARK    5  A    between atoms: C10_29  and  C11_30
REMARK    6  A    between atoms: C11_30  and  O5_31
REMARK    7  A    between atoms: C11_30  and  C12_33
REMARK    8  A    between atoms: C12_33  and  N8_34
REMARK    9  A    between atoms: C12_33  and  C13_38
REMARK   10  A    between atoms: C13_38  and  O6_39
REMARK   11  A    between atoms: C13_38  and  C14_41
REMARK   12  A    between atoms: C14_41  and  O7_42
ROOT
HETATM    1  C3  UNL     1      36.534  54.734   0.448  1.00  0.00     0.119 A
HETATM    2  N2  UNL     1      36.248  54.907  -0.807  1.00  0.00    -0.338 N
ATOM      3  H2  UNL     1      36.091  55.850  -1.161  1.00  0.00     0.168 HD
HETATM    4  C4  UNL     1      36.161  53.902  -1.617  1.00  0.00     0.080 A
HETATM    5  S2  UNL     1      36.515  52.588  -0.542  1.00  0.00    -0.072 SA
HETATM    6  C10 UNL     1      36.744  53.465   0.920  1.00  0.00     0.059 A
ENDROOT
BRANCH   4   7
HETATM    7  C5  UNL     1      35.780  53.733  -2.997  1.00  0.00     0.204 C
HETATM    8  C6  UNL     1      36.112  52.310  -3.497  1.00  0.00     0.226 C
HETATM    9  O1  UNL     1      35.294  52.172  -4.617  1.00  0.00    -0.256 OA
HETATM   10  S1  UNL     1      35.453  53.681  -5.400  1.00  0.00     0.378 S
HETATM   11  O2  UNL     1      36.297  53.633  -6.601  1.00  0.00    -0.175 OA
HETATM   12  O3  UNL     1      34.097  54.323  -5.616  1.00  0.00    -0.175 OA
HETATM   13  N3  UNL     1      36.266  54.519  -4.048  1.00  0.00    -0.071 N
BRANCH  13  14
HETATM   14  C7  UNL     1      37.072  55.613  -4.311  1.00  0.00     0.715 A
HETATM   15  N4  UNL     1      36.683  56.511  -5.255  1.00  0.00    -0.021 N
HETATM   16  C8  UNL     1      37.454  57.573  -5.541  1.00  0.00     0.694 A
ATOM     17  H4  UNL     1      35.801  56.377  -5.749  1.00  0.00     0.203 HD
HETATM   18  N6  UNL     1      38.638  57.781  -4.899  1.00  0.00    -0.141 N
HETATM   19  C9  UNL     1      39.009  56.902  -3.977  1.00  0.00     0.352 A
ATOM     20  H6  UNL     1      39.222  58.589  -5.121  1.00  0.00     0.189 HD
HETATM   21  O4  UNL     1      40.092  57.060  -3.369  1.00  0.00    -0.246 OA
HETATM   22  N7  UNL     1      38.238  55.846  -3.697  1.00  0.00    -0.139 N
ATOM     23  H7  UNL     1      38.552  55.190  -2.983  1.00  0.00     0.189 HD
BRANCH  16  24
HETATM   24  N5  UNL     1      37.146  58.460  -6.446  1.00  0.00    -0.234 N
ATOM     25  H52 UNL     1      37.457  58.244  -7.393  1.00  0.00     0.174 HD
ATOM     26  H51 UNL     1      36.621  59.311  -6.242  1.00  0.00     0.174 HD
ENDBRANCH  16  24
ENDBRANCH  13  14
ENDBRANCH   4   7
BRANCH   1  27
HETATM   27  N1  UNL     1      36.763  55.883   1.329  1.00  0.00    -0.375 N
HETATM   28  C1  UNL     1      35.834  56.297   2.332  1.00  0.00     0.150 C
HETATM   29  C2  UNL     1      38.043  56.580   1.166  1.00  0.00     0.150 C
ENDBRANCH   1  27
BRANCH   6  30
HETATM   30  C11 UNL     1      36.835  52.932   2.324  1.00  0.00     0.195 C
BRANCH  30  31
HETATM   31  O5  UNL     1      36.661  51.486   2.026  1.00  0.00    -0.388 OA
ATOM     32  H5  UNL     1      37.435  51.156   2.465  1.00  0.00     0.210 HD
ENDBRANCH  30  31
BRANCH  30  33
HETATM   33  C12 UNL     1      38.177  52.951   2.921  1.00  0.00     0.247 C
BRANCH  33  34
HETATM   34  N8  UNL     1      38.668  54.082   3.592  1.00  0.00    -0.070 N
ATOM     35  H83 UNL     1      38.499  54.895   3.000  1.00  0.00     0.274 HD
ATOM     36  H82 UNL     1      38.053  54.266   4.386  1.00  0.00     0.274 HD
ATOM     37  H81 UNL     1      39.631  54.130   3.925  1.00  0.00     0.274 HD
ENDBRANCH  33  34
BRANCH  33  38
HETATM   38  C13 UNL     1      39.230  52.554   1.885  1.00  0.00     0.174 C
BRANCH  38  39
HETATM   39  O6  UNL     1      39.926  51.417   2.371  1.00  0.00    -0.391 OA
ATOM     40  H6  UNL     1      40.252  51.617   3.240  1.00  0.00     0.210 HD
ENDBRANCH  38  39
BRANCH  38  41
HETATM   41  C14 UNL     1      40.274  53.625   1.635  1.00  0.00     0.198 C
BRANCH  41  42
HETATM   42  O7  UNL     1      40.496  53.740   0.252  1.00  0.00    -0.398 OA
ATOM     43  H7  UNL     1      40.620  54.655   0.031  1.00  0.00     0.209 HD
ENDBRANCH  41  42
ENDBRANCH  38  41
ENDBRANCH  33  38
ENDBRANCH  30  33
ENDBRANCH   6  30
TORSDOF 12
ENDMDL