MODEL 3
REMARK VINA RESULT: -6.877529453      2.656      9.296
REMARK  9 active torsions:
REMARK  status: ('A' for Active; 'I' for Inactive)
REMARK    1  A    between atoms: N1_1  and  C1_5
REMARK    2  A    between atoms: C1_5  and  O1_6
REMARK    3  A    between atoms: C1_5  and  C2_8
REMARK    4  A    between atoms: C2_8  and  N2_9
REMARK    5  A    between atoms: C3_16  and  N6_17
REMARK    6  A    between atoms: C6_21  and  C7_22
REMARK       I    between atoms: C7_22  and  N7_24
REMARK    7  A    between atoms: N7_24  and  C8_26
REMARK    8  A    between atoms: C8_26  and  C9_27
REMARK    9  A    between atoms: C15_42  and  C16_43
ROOT
HETATM    1  N6  UNL     1      32.787  45.165   0.635  1.00  0.00    -0.174 N
ATOM      2  H6  UNL     1      32.321  44.542  -0.025  1.00  0.00     0.186 HD
HETATM    3  C4  UNL     1      33.008  46.410   0.326  1.00  0.00     0.124 A
HETATM    4  C5  UNL     1      33.639  47.269   1.210  1.00  0.00     0.084 A
HETATM    5  C6  UNL     1      33.877  48.591   0.893  1.00  0.00     0.105 A
HETATM    6  N11 UNL     1      33.448  48.965  -0.337  1.00  0.00    -0.341 N
ATOM      7  H11 UNL     1      33.606  49.936  -0.608  1.00  0.00     0.167 HD
HETATM    8  C15 UNL     1      32.842  48.186  -1.215  1.00  0.00     0.090 A
HETATM    9  N13 UNL     1      32.627  46.904  -0.871  1.00  0.00    -0.331 N
ATOM     10  H13 UNL     1      32.161  46.287  -1.535  1.00  0.00     0.168 HD
ENDROOT
BRANCH   1  11
HETATM   11  C3  UNL     1      33.206  44.689   1.909  1.00  0.00     0.717 A
HETATM   12  N2  UNL     1      32.418  44.177   2.892  1.00  0.00    -0.102 N
HETATM   13  N3  UNL     1      33.187  43.850   3.915  1.00  0.00    -0.211 N
HETATM   14  N4  UNL     1      34.431  44.141   3.603  1.00  0.00    -0.213 N
ATOM     15  H3  UNL     1      32.871  43.441   4.794  1.00  0.00     0.210 HD
HETATM   16  N5  UNL     1      34.454  44.647   2.398  1.00  0.00    -0.115 N
ATOM     17  H4  UNL     1      35.243  43.998   4.203  1.00  0.00     0.210 HD
ATOM     18  H5  UNL     1      35.291  44.960   1.906  1.00  0.00     0.207 HD
BRANCH  12  19
HETATM   19  C2  UNL     1      30.968  44.025   2.802  1.00  0.00     0.230 C
BRANCH  19  20
HETATM   20  C1  UNL     1      30.663  42.575   2.403  1.00  0.00     0.336 C
BRANCH  20  21
HETATM   21  N1  UNL     1      30.458  42.464   0.989  1.00  0.00    -0.051 N
ATOM     22  H13 UNL     1      29.605  42.943   0.701  1.00  0.00     0.277 HD
ATOM     23  H12 UNL     1      31.140  43.020   0.473  1.00  0.00     0.277 HD
ATOM     24  H11 UNL     1      30.459  41.494   0.672  1.00  0.00     0.277 HD
ENDBRANCH  20  21
BRANCH  20  25
HETATM   25  O1  UNL     1      31.678  41.745   2.854  1.00  0.00    -0.369 OA
ATOM     26  H1  UNL     1      31.732  41.725   3.802  1.00  0.00     0.212 HD
ENDBRANCH  20  25
ENDBRANCH  19  20
ENDBRANCH  12  19
ENDBRANCH   1  11
BRANCH   5  27
HETATM   27  C7  UNL     1      34.534  49.524   1.787  1.00  0.00     0.268 C
HETATM   28  O2  UNL     1      34.638  49.226   2.999  1.00  0.00    -0.266 OA
HETATM   29  N7  UNL     1      35.054  50.747   1.334  1.00  0.00    -0.351 N
ATOM     30  H7  UNL     1      34.962  50.958   0.341  1.00  0.00     0.163 HD
BRANCH  29  31
HETATM   31  C8  UNL     1      35.705  51.719   2.159  1.00  0.00     0.165 C
BRANCH  31  32
HETATM   32  C9  UNL     1      36.952  52.280   1.671  1.00  0.00     0.004 A
HETATM   33  C10 UNL     1      37.262  52.421   0.345  1.00  0.00     0.102 A
HETATM   34  N8  UNL     1      38.469  52.937   0.034  1.00  0.00    -0.331 N
HETATM   35  C11 UNL     1      39.380  53.317   0.943  1.00  0.00     0.274 A
ATOM     36  H8  UNL     1      38.703  53.046  -0.953  1.00  0.00     0.168 HD
HETATM   37  O3  UNL     1      40.496  53.795   0.619  1.00  0.00    -0.266 OA
HETATM   38  C12 UNL     1      39.105  53.190   2.286  1.00  0.00     0.129 A
HETATM   39  N9  UNL     1      39.811  53.481   3.394  1.00  0.00    -0.346 N
HETATM   40  C14 UNL     1      37.882  52.667   2.641  1.00  0.00     0.075 A
HETATM   41  C13 UNL     1      39.044  53.145   4.460  1.00  0.00     0.181 A
ATOM     42  H9  UNL     1      40.749  53.880   3.426  1.00  0.00     0.167 HD
HETATM   43  N10 UNL     1      37.878  52.653   3.989  1.00  0.00    -0.350 N
ATOM     44  H10 UNL     1      37.107  52.320   4.568  1.00  0.00     0.166 HD
ENDBRANCH  31  32
ENDBRANCH  29  31
ENDBRANCH   5  27
BRANCH   8  45
HETATM   45  C16 UNL     1      32.405  48.658  -2.529  1.00  0.00     0.104 C
HETATM   46  C17 UNL     1      33.381  49.554  -3.260  1.00  0.00     0.246 C
HETATM   47  N12 UNL     1      32.931  48.909  -4.503  1.00  0.00    -0.073 N
HETATM   48  C18 UNL     1      32.672  47.720  -3.687  1.00  0.00     0.246 C
ATOM     49 2H12 UNL     1      32.205  49.324  -5.086  1.00  0.00     0.277 HD
ATOM     50 1H12 UNL     1      33.527  48.868  -5.330  1.00  0.00     0.277 HD
ENDBRANCH   8  45
TORSDOF 9
ENDMDL