MODEL 4
REMARK VINA RESULT: -8.453598981      3.890      6.707
REMARK  11 active torsions:
REMARK  status: ('A' for Active; 'I' for Inactive)
REMARK    1  A    between atoms: N1_1  and  N2_4
REMARK       I    between atoms: N2_4  and  C1_6
REMARK    2  A    between atoms: C1_6  and  C2_8
REMARK    3  A    between atoms: C2_8  and  N3_9
REMARK    4  A    between atoms: C2_8  and  C5_26
REMARK    5  A    between atoms: N3_9  and  N4_11
REMARK       I    between atoms: N4_11  and  C3_13
REMARK       I    between atoms: C3_13  and  N6_15
REMARK       I    between atoms: N6_15  and  C4_17
REMARK       I    between atoms: C4_17  and  N7_18
REMARK       I    between atoms: C4_17  and  N8_22
REMARK       I    between atoms: C5_26  and  N9_28
REMARK    6  A    between atoms: N9_28  and  C6_30
REMARK    7  A    between atoms: C7_32  and  C8_33
REMARK    8  A    between atoms: C8_33  and  O4_34
REMARK    9  A    between atoms: C9_36  and  O5_37
REMARK   10  A    between atoms: C10_39  and  O6_40
REMARK   11  A    between atoms: C11_42  and  N10_43
ROOT
HETATM    1  C5  UNL     1      23.229  16.703  21.436  1.00  0.00     0.253 C
HETATM    2  O2  UNL     1      23.363  17.911  21.050  1.00  0.00    -0.271 OA
HETATM    3  N9  UNL     1      24.274  16.171  22.230  1.00  0.00    -0.330 N
ATOM      4  H9  UNL     1      24.192  15.211  22.563  1.00  0.00     0.165 HD
ENDROOT
BRANCH   1   5
HETATM    5  C2  UNL     1      22.035  15.921  21.066  1.00  0.00     0.284 C
BRANCH   5   6
HETATM    6  C1  UNL     1      22.271  14.493  21.393  1.00  0.00     0.269 C
HETATM    7  N2  UNL     1      21.342  13.780  22.179  1.00  0.00    -0.274 N
ATOM      8  H2  UNL     1      20.511  14.264  22.518  1.00  0.00     0.189 HD
HETATM    9  O1  UNL     1      23.310  13.936  20.956  1.00  0.00    -0.269 OA
BRANCH   7  10
HETATM   10  N1  UNL     1      21.523  12.424  22.512  1.00  0.00    -0.343 N
ATOM     11  H12 UNL     1      21.917  11.808  21.801  1.00  0.00     0.176 HD
ATOM     12  H11 UNL     1      21.275  12.051  23.428  1.00  0.00     0.176 HD
ENDBRANCH   7  10
ENDBRANCH   5   6
BRANCH   5  13
HETATM   13  N3  UNL     1      21.738  16.030  19.647  1.00  0.00    -0.311 N
ATOM     14  H3  UNL     1      22.215  15.455  18.952  1.00  0.00     0.181 HD
BRANCH  13  15
HETATM   15  N4  UNL     1      20.791  16.938  19.298  1.00  0.00    -0.277 N
HETATM   16  C3  UNL     1      21.163  18.055  18.473  1.00  0.00     0.205 C
HETATM   17  N5  UNL     1      21.170  17.977  17.067  1.00  0.00    -0.062 NA
HETATM   18  N6  UNL     1      21.503  19.182  19.021  1.00  0.00    -0.314 N
HETATM   19  C4  UNL     1      21.880  20.315  18.247  1.00  0.00     0.482 C
ATOM     20  H6  UNL     1      21.500  19.257  20.038  1.00  0.00     0.166 HD
HETATM   21  N7  UNL     1      23.277  20.631  18.373  1.00  0.00    -0.033 N
HETATM   22  N8  UNL     1      21.100  21.521  18.560  1.00  0.00    -0.033 N
ATOM     23  H73 UNL     1      23.538  20.752  19.352  1.00  0.00     0.278 HD
ATOM     24  H72 UNL     1      23.858  19.824  18.147  1.00  0.00     0.278 HD
ATOM     25  H71 UNL     1      23.547  21.443  17.819  1.00  0.00     0.278 HD
ATOM     26  H83 UNL     1      20.100  21.338  18.471  1.00  0.00     0.278 HD
ATOM     27  H82 UNL     1      21.145  21.733  19.557  1.00  0.00     0.278 HD
ATOM     28  H81 UNL     1      21.370  22.333  18.005  1.00  0.00     0.278 HD
ATOM     29  H4  UNL     1      19.829  16.830  19.619  1.00  0.00     0.189 HD
ENDBRANCH  13  15
ENDBRANCH   5  13
ENDBRANCH   1   5
BRANCH   3  30
HETATM   30  C6  UNL     1      25.466  16.937  22.594  1.00  0.00     0.249 C
HETATM   31  O3  UNL     1      25.845  17.570  21.460  1.00  0.00    -0.354 OA
HETATM   32  C7  UNL     1      26.660  18.633  21.495  1.00  0.00     0.179 C
HETATM   33  C9  UNL     1      26.912  19.339  22.767  1.00  0.00     0.180 C
HETATM   34  C10 UNL     1      26.090  18.969  23.941  1.00  0.00     0.177 C
HETATM   35  C11 UNL     1      25.231  17.751  23.796  1.00  0.00     0.172 C
BRANCH  32  36
HETATM   36  C8  UNL     1      26.222  19.581  20.362  1.00  0.00     0.198 C
BRANCH  36  37
HETATM   37  O4  UNL     1      25.518  18.893  19.390  1.00  0.00    -0.398 OA
ATOM     38  H4  UNL     1      25.497  19.385  18.578  1.00  0.00     0.209 HD
ENDBRANCH  36  37
ENDBRANCH  32  36
BRANCH  33  39
HETATM   39  O5  UNL     1      28.296  19.361  23.095  1.00  0.00    -0.390 OA
ATOM     40  H5  UNL     1      28.644  18.486  23.221  1.00  0.00     0.210 HD
ENDBRANCH  33  39
BRANCH  34  41
HETATM   41  O6  UNL     1      25.330  20.060  24.414  1.00  0.00    -0.391 OA
ATOM     42  H6  UNL     1      24.396  19.902  24.331  1.00  0.00     0.210 HD
ENDBRANCH  34  41
BRANCH  35  43
HETATM   43  N10 UNL     1      25.248  16.950  25.006  1.00  0.00    -0.316 N
HETATM   44  C12 UNL     1      25.639  15.678  25.175  1.00  0.00     0.185 A
HETATM   45  N11 UNL     1      25.497  15.313  26.461  1.00  0.00    -0.348 N
HETATM   46  C13 UNL     1      25.007  16.348  27.158  1.00  0.00     0.093 A
ATOM     47  H11 UNL     1      25.725  14.397  26.844  1.00  0.00     0.167 HD
HETATM   48  C14 UNL     1      24.671  16.543  28.478  1.00  0.00     0.122 A
HETATM   49  C16 UNL     1      24.852  17.367  26.247  1.00  0.00     0.138 A
HETATM   50  N12 UNL     1      24.188  17.737  28.885  1.00  0.00    -0.360 N
HETATM   51  C15 UNL     1      24.039  18.742  27.975  1.00  0.00     0.182 A
ATOM     52  H12 UNL     1      23.938  17.885  29.862  1.00  0.00     0.166 HD
HETATM   53  N13 UNL     1      24.371  18.534  26.694  1.00  0.00    -0.337 N
ATOM     54  H13 UNL     1      24.252  19.298  26.030  1.00  0.00     0.168 HD
ENDBRANCH  35  43
ENDBRANCH   3  30
TORSDOF 11
ENDMDL