MODEL 1
REMARK VINA RESULT: -9.966492843      0.000      0.000
REMARK  14 active torsions:
REMARK  status: ('A' for Active; 'I' for Inactive)
REMARK    1  A    between atoms: N1_1  and  C1_4
REMARK    2  A    between atoms: C2_7  and  N3_8
REMARK       I    between atoms: N6_16  and  C4_17
REMARK    3  A    between atoms: C4_17  and  C5_19
REMARK    4  A    between atoms: C5_19  and  C6_21
REMARK    5  A    between atoms: C6_21  and  O3_22
REMARK    6  A    between atoms: C6_21  and  N7_24
REMARK    7  A    between atoms: N7_24  and  C7_26
REMARK    8  A    between atoms: C7_26  and  C8_27
REMARK    9  A    between atoms: C10_34  and  O5_35
REMARK   10  A    between atoms: O5_35  and  C11_36
REMARK   11  A    between atoms: C12_37  and  N10_38
REMARK   12  A    between atoms: C14_43  and  N11_44
REMARK   13  A    between atoms: C15_48  and  O6_49
REMARK   14  A    between atoms: C16_51  and  O7_52
ROOT
HETATM    1  N7  UNL     1      23.546  18.825  20.520  1.00  0.00    -0.388 N
ATOM      2  H7  UNL     1      23.132  18.658  21.437  1.00  0.00     0.156 HD
ENDROOT
BRANCH   1   3
HETATM    3  C6  UNL     1      24.836  18.294  20.142  1.00  0.00     0.295 C
BRANCH   3   4
HETATM    4  C5  UNL     1      24.997  16.867  20.384  1.00  0.00     0.266 C
HETATM    5  O2  UNL     1      25.489  16.120  19.520  1.00  0.00    -0.282 OA
BRANCH   4   6
HETATM    6  C4  UNL     1      24.579  16.299  21.658  1.00  0.00     0.320 C
HETATM    7  N6  UNL     1      23.629  15.242  21.700  1.00  0.00    -0.183 N
HETATM    8  N5  UNL     1      23.034  14.673  20.636  1.00  0.00    -0.231 N
HETATM    9  C17 UNL     1      23.176  14.636  22.807  1.00  0.00     0.179 A
HETATM   10  N4  UNL     1      22.214  13.722  21.034  1.00  0.00    -0.279 N
ATOM     11  H5  UNL     1      23.195  14.939  19.664  1.00  0.00     0.209 HD
HETATM   12  C3  UNL     1      22.270  13.664  22.392  1.00  0.00     0.140 A
ATOM     13  H4  UNL     1      21.639  13.134  20.431  1.00  0.00     0.189 HD
HETATM   14  C2  UNL     1      21.624  12.860  23.298  1.00  0.00     0.147 A
HETATM   15  N2  UNL     1      21.870  13.017  24.597  1.00  0.00    -0.175 N
HETATM   16  C1  UNL     1      22.738  13.945  25.025  1.00  0.00     0.679 A
ATOM     17  H2  UNL     1      21.393  12.422  25.275  1.00  0.00     0.186 HD
HETATM   18  N12 UNL     1      23.377  14.741  24.126  1.00  0.00    -0.172 N
ATOM     19  H12 UNL     1      24.032  15.443  24.469  1.00  0.00     0.186 HD
HETATM   20  O1  UNL     1      25.069  16.752  22.746  1.00  0.00    -0.262 OA
BRANCH  14  21
HETATM   21  N3  UNL     1      20.782  11.962  22.852  1.00  0.00    -0.383 N
ATOM     22  H32 UNL     1      19.782  12.146  22.934  1.00  0.00     0.157 HD
ATOM     23  H31 UNL     1      21.094  11.089  22.427  1.00  0.00     0.157 HD
ENDBRANCH  14  21
BRANCH  16  24
HETATM   24  N1  UNL     1      22.990  14.112  26.281  1.00  0.00    -0.234 N
ATOM     25  H12 UNL     1      22.904  15.049  26.673  1.00  0.00     0.174 HD
ATOM     26  H11 UNL     1      23.270  13.334  26.880  1.00  0.00     0.174 HD
ENDBRANCH  16  24
ENDBRANCH   4   6
ENDBRANCH   3   4
BRANCH   3  27
HETATM   27  O3  UNL     1      25.007  18.582  18.765  1.00  0.00    -0.369 OA
ATOM     28  H3  UNL     1      24.220  18.977  18.410  1.00  0.00     0.212 HD
ENDBRANCH   3  27
ENDBRANCH   1   3
BRANCH   1  29
HETATM   29  C7  UNL     1      22.896  19.601  19.513  1.00  0.00     0.146 C
BRANCH  29  30
HETATM   30  C8  UNL     1      21.606  18.864  19.157  1.00  0.00     0.152 C
HETATM   31  N8  UNL     1      21.440  17.805  20.130  1.00  0.00    -0.333 N
HETATM   32  C9  UNL     1      20.833  16.717  19.459  1.00  0.00     0.318 C
ATOM     33  H8  UNL     1      21.710  17.837  21.113  1.00  0.00     0.164 HD
HETATM   34  O4  UNL     1      20.130  15.779  19.944  1.00  0.00    -0.247 OA
HETATM   35  N9  UNL     1      21.129  16.815  18.089  1.00  0.00    -0.315 N
HETATM   36  C10 UNL     1      21.640  18.156  17.865  1.00  0.00     0.249 C
ATOM     37  H9  UNL     1      21.009  16.085  17.387  1.00  0.00     0.166 HD
BRANCH  36  38
HETATM   38  O5  UNL     1      21.027  18.767  16.811  1.00  0.00    -0.354 OA
BRANCH  38  39
HETATM   39  C11 UNL     1      21.704  18.895  15.635  1.00  0.00     0.185 C
HETATM   40  C12 UNL     1      22.926  19.773  15.783  1.00  0.00     0.217 C
HETATM   41  C13 UNL     1      22.721  21.161  15.275  1.00  0.00     0.071 C
HETATM   42  C14 UNL     1      22.349  21.165  13.808  1.00  0.00     0.216 C
HETATM   43  C15 UNL     1      21.325  20.142  13.461  1.00  0.00     0.179 C
HETATM   44  C16 UNL     1      20.717  19.427  14.620  1.00  0.00     0.180 C
BRANCH  40  45
HETATM   45  N10 UNL     1      24.088  19.210  15.128  1.00  0.00    -0.072 N
ATOM     46 3H10 UNL     1      23.954  18.219  14.929  1.00  0.00     0.274 HD
ATOM     47 2H10 UNL     1      24.177  19.557  14.174  1.00  0.00     0.274 HD
ATOM     48 1H10 UNL     1      24.944  19.367  15.659  1.00  0.00     0.274 HD
ENDBRANCH  40  45
BRANCH  42  49
HETATM   49  N11 UNL     1      21.907  22.511  13.495  1.00  0.00    -0.072 N
ATOM     50 3H11 UNL     1      21.829  22.687  12.493  1.00  0.00     0.274 HD
ATOM     51 2H11 UNL     1      20.929  22.679  13.731  1.00  0.00     0.274 HD
ATOM     52 1H11 UNL     1      22.550  23.148  13.966  1.00  0.00     0.274 HD
ENDBRANCH  42  49
BRANCH  43  53
HETATM   53  O6  UNL     1      21.785  19.243  12.470  1.00  0.00    -0.391 OA
ATOM     54  H6  UNL     1      22.447  19.635  11.913  1.00  0.00     0.210 HD
ENDBRANCH  43  53
BRANCH  44  55
HETATM   55  O7  UNL     1      19.927  18.385  14.097  1.00  0.00    -0.390 OA
ATOM     56  H7  UNL     1      19.048  18.690  13.908  1.00  0.00     0.210 HD
ENDBRANCH  44  55
ENDBRANCH  38  39
ENDBRANCH  36  38
ENDBRANCH  29  30
ENDBRANCH   1  29
TORSDOF 14
ENDMDL