MODEL 3
REMARK VINA RESULT: -9.171108588      1.326      2.025
REMARK  16 active torsions:
REMARK  status: ('A' for Active; 'I' for Inactive)
REMARK    1  A    between atoms: N1_1  and  C1_5
REMARK    2  A    between atoms: C1_5  and  C2_6
REMARK    3  A    between atoms: C2_6  and  N2_7
REMARK    4  A    between atoms: N2_7  and  C3_8
REMARK    5  A    between atoms: N2_7  and  N3_27
REMARK    6  A    between atoms: C3_8  and  C4_9
REMARK    7  A    between atoms: C4_9  and  O1_10
REMARK    8  A    between atoms: C5_12  and  O2_13
REMARK    9  A    between atoms: C6_15  and  O3_16
REMARK   10  A    between atoms: C7_18  and  O4_19
REMARK   11  A    between atoms: C8_21  and  O5_22
REMARK   12  A    between atoms: C9_24  and  O6_25
REMARK       I    between atoms: N3_27  and  C10_29
REMARK   13  A    between atoms: C10_29  and  C11_31
REMARK   14  A    between atoms: C15_37  and  C16_38
REMARK   15  A    between atoms: C16_38  and  O9_39
REMARK   16  A    between atoms: C16_38  and  O10_41
ROOT
HETATM    1  N2  UNL     1      22.131  21.283  18.472  1.00  0.00    -0.224 NA
ENDROOT
BRANCH   1   2
HETATM    2  C2  UNL     1      23.007  21.796  19.500  1.00  0.00     0.141 C
BRANCH   2   3
HETATM    3  C1  UNL     1      22.814  23.304  19.663  1.00  0.00     0.245 C
BRANCH   3   4
HETATM    4  N1  UNL     1      23.507  23.726  20.865  1.00  0.00    -0.078 N
ATOM      5  H13 UNL     1      23.154  23.266  21.703  1.00  0.00     0.274 HD
ATOM      6  H12 UNL     1      24.465  23.377  20.908  1.00  0.00     0.274 HD
ATOM      7  H11 UNL     1      23.457  24.743  20.924  1.00  0.00     0.274 HD
ENDBRANCH   3   4
ENDBRANCH   2   3
ENDBRANCH   1   2
BRANCH   1   8
HETATM    8  C3  UNL     1      22.695  21.047  17.204  1.00  0.00     0.157 C
BRANCH   8   9
HETATM    9  C4  UNL     1      21.936  20.346  16.158  1.00  0.00     0.128 C
HETATM   10  C5  UNL     1      21.754  21.314  14.997  1.00  0.00     0.187 C
HETATM   11  C6  UNL     1      21.896  20.685  13.653  1.00  0.00     0.181 C
HETATM   12  C7  UNL     1      23.219  19.979  13.472  1.00  0.00     0.180 C
HETATM   13  C8  UNL     1      23.588  19.156  14.661  1.00  0.00     0.181 C
HETATM   14  C9  UNL     1      22.520  19.051  15.694  1.00  0.00     0.187 C
BRANCH   9  15
HETATM   15  O1  UNL     1      20.648  20.067  16.612  1.00  0.00    -0.383 OA
ATOM     16  H1  UNL     1      20.091  20.827  16.491  1.00  0.00     0.210 HD
ENDBRANCH   9  15
BRANCH  10  17
HETATM   17  O2  UNL     1      20.502  21.941  15.046  1.00  0.00    -0.390 OA
ATOM     18  H2  UNL     1      20.550  22.833  14.725  1.00  0.00     0.210 HD
ENDBRANCH  10  17
BRANCH  11  19
HETATM   19  O3  UNL     1      21.864  21.721  12.709  1.00  0.00    -0.390 OA
ATOM     20  H3  UNL     1      22.721  21.754  12.302  1.00  0.00     0.210 HD
ENDBRANCH  11  19
BRANCH  12  21
HETATM   21  O4  UNL     1      23.133  19.171  12.359  1.00  0.00    -0.390 OA
ATOM     22  H4  UNL     1      22.627  19.627  11.696  1.00  0.00     0.210 HD
ENDBRANCH  12  21
BRANCH  13  23
HETATM   23  O5  UNL     1      23.905  17.834  14.269  1.00  0.00    -0.390 OA
ATOM     24  H5  UNL     1      23.173  17.437  13.812  1.00  0.00     0.210 HD
ENDBRANCH  13  23
BRANCH  14  25
HETATM   25  O6  UNL     1      21.461  18.241  15.217  1.00  0.00    -0.390 OA
ATOM     26  H6  UNL     1      21.561  18.154  14.276  1.00  0.00     0.210 HD
ENDBRANCH  14  25
ENDBRANCH   8   9
ENDBRANCH   1   8
BRANCH   1  27
HETATM   27  N3  UNL     1      21.752  19.995  18.952  1.00  0.00    -0.285 N
HETATM   28  C10 UNL     1      22.650  18.973  19.229  1.00  0.00     0.270 C
HETATM   29  O7  UNL     1      23.875  19.197  19.047  1.00  0.00    -0.266 OA
ATOM     30  H3  UNL     1      20.759  19.813  19.101  1.00  0.00     0.184 HD
BRANCH  28  31
HETATM   31  C11 UNL     1      22.255  17.666  19.717  1.00  0.00     0.096 A
HETATM   32  C12 UNL     1      21.291  16.921  19.223  1.00  0.00     0.116 A
HETATM   33  N4  UNL     1      20.444  17.254  18.107  1.00  0.00    -0.097 NA
HETATM   34  C13 UNL     1      21.218  15.686  20.001  1.00  0.00     0.210 A
HETATM   35  O8  UNL     1      20.396  14.750  19.790  1.00  0.00    -0.285 OA
HETATM   36  C14 UNL     1      22.233  15.718  21.036  1.00  0.00     0.062 A
HETATM   37  C15 UNL     1      22.647  14.893  22.043  1.00  0.00     0.019 A
HETATM   38  C19 UNL     1      22.866  16.954  20.848  1.00  0.00     0.112 A
HETATM   39  C17 UNL     1      23.700  15.306  22.866  1.00  0.00     0.095 A
HETATM   40  C18 UNL     1      24.286  16.526  22.637  1.00  0.00     0.288 A
HETATM   41  O11 UNL     1      25.245  16.898  23.389  1.00  0.00    -0.260 OA
HETATM   42  O12 UNL     1      23.845  17.258  21.667  1.00  0.00    -0.273 OA
BRANCH  37  43
HETATM   43  C16 UNL     1      22.014  13.580  22.234  1.00  0.00     0.289 C
BRANCH  43  44
HETATM   44  O9  UNL     1      20.659  13.656  22.482  1.00  0.00    -0.367 OA
ATOM     45  H9  UNL     1      20.337  14.547  22.541  1.00  0.00     0.213 HD
ENDBRANCH  43  44
BRANCH  43  46
HETATM   46  O10 UNL     1      22.189  12.757  21.126  1.00  0.00    -0.367 OA
ATOM     47  H10 UNL     1      21.685  11.955  21.199  1.00  0.00     0.213 HD
ENDBRANCH  43  46
ENDBRANCH  37  43
ENDBRANCH  28  31
ENDBRANCH   1  27
TORSDOF 16
ENDMDL