MODEL 3
REMARK VINA RESULT: -9.571744973      1.430      1.508
REMARK  12 active torsions:
REMARK  status: ('A' for Active; 'I' for Inactive)
REMARK    1  A    between atoms: N1_1  and  C1_4
REMARK    2  A    between atoms: C2_9  and  N4_10
REMARK    3  A    between atoms: N4_10  and  C3_12
REMARK    4  A    between atoms: C3_12  and  C4_13
REMARK    5  A    between atoms: C5_17  and  O1_18
REMARK    6  A    between atoms: C6_20  and  N6_21
REMARK    7  A    between atoms: C7_26  and  C8_27
REMARK       I    between atoms: C8_27  and  N9_29
REMARK    8  A    between atoms: N9_29  and  N10_31
REMARK       I    between atoms: N10_31  and  C9_33
REMARK    9  A    between atoms: C9_33  and  C10_35
REMARK       I    between atoms: C10_35  and  N11_37
REMARK   10  A    between atoms: N11_37  and  N12_39
REMARK   11  A    between atoms: C12_46  and  O5_47
REMARK   12  A    between atoms: C13_49  and  O6_50
ROOT
HETATM    1  C4  UNL     1      22.087  18.851  18.442  1.00  0.00     0.237 C
HETATM    2  N5  UNL     1      21.332  18.270  19.534  1.00  0.00    -0.038 N
ATOM      3  H51 UNL     1      20.387  18.652  19.554  1.00  0.00     0.281 HD
ATOM      4  H52 UNL     1      21.680  18.615  20.428  1.00  0.00     0.281 HD
HETATM    5  C5  UNL     1      21.291  16.843  19.536  1.00  0.00     0.348 C
HETATM    6  C6  UNL     1      22.646  16.183  19.504  1.00  0.00     0.215 C
HETATM    7  C12 UNL     1      23.679  17.271  19.402  1.00  0.00     0.179 C
HETATM    8  C13 UNL     1      23.331  18.070  18.151  1.00  0.00     0.181 C
ENDROOT
BRANCH   6   9
HETATM    9  N6  UNL     1      22.894  15.418  20.723  1.00  0.00    -0.206 N
HETATM   10  N7  UNL     1      22.454  14.183  21.003  1.00  0.00    -0.224 N
HETATM   11  N8  UNL     1      22.888  13.868  22.194  1.00  0.00    -0.264 N
ATOM     12  H7  UNL     1      21.883  13.595  20.395  1.00  0.00     0.210 HD
HETATM   13  C7  UNL     1      23.604  14.889  22.680  1.00  0.00     0.208 A
ATOM     14  H8  UNL     1      22.711  12.987  22.675  1.00  0.00     0.190 HD
HETATM   15  N15 UNL     1      23.596  15.848  21.746  1.00  0.00    -0.261 N
ATOM     16  H15 UNL     1      24.056  16.756  21.817  1.00  0.00     0.190 HD
BRANCH  13  17
HETATM   17  C8  UNL     1      24.242  14.897  23.995  1.00  0.00     0.306 C
HETATM   18  O2  UNL     1      23.737  14.296  24.964  1.00  0.00    -0.262 OA
HETATM   19  N9  UNL     1      25.472  15.597  24.216  1.00  0.00    -0.260 N
ATOM     20  H9  UNL     1      25.909  16.095  23.441  1.00  0.00     0.190 HD
BRANCH  19  21
HETATM   21  N10 UNL     1      26.076  15.614  25.452  1.00  0.00    -0.259 N
HETATM   22  C9  UNL     1      25.923  16.729  26.326  1.00  0.00     0.329 C
HETATM   23  O3  UNL     1      25.227  17.699  25.950  1.00  0.00    -0.261 OA
ATOM     24  H10 UNL     1      26.641  14.817  25.747  1.00  0.00     0.190 HD
BRANCH  22  25
HETATM   25  C10 UNL     1      26.554  16.766  27.632  1.00  0.00     0.329 C
HETATM   26  O4  UNL     1      26.368  15.803  28.447  1.00  0.00    -0.261 OA
HETATM   27  N11 UNL     1      27.376  17.817  28.068  1.00  0.00    -0.260 N
ATOM     28  H11 UNL     1      27.539  18.601  27.436  1.00  0.00     0.190 HD
BRANCH  27  29
HETATM   29  N12 UNL     1      27.979  17.838  29.326  1.00  0.00    -0.273 N
HETATM   30  C11 UNL     1      29.098  18.475  29.429  1.00  0.00     0.215 C
HETATM   31  N13 UNL     1      29.704  19.127  28.334  1.00  0.00    -0.065 NA
HETATM   32  N14 UNL     1      29.785  18.551  30.691  1.00  0.00    -0.065 NA
ATOM     33  H12 UNL     1      27.556  17.372  30.128  1.00  0.00     0.189 HD
ENDBRANCH  27  29
ENDBRANCH  22  25
ENDBRANCH  19  21
ENDBRANCH  13  17
ENDBRANCH   6   9
BRANCH   5  34
HETATM   34  O1  UNL     1      20.490  16.272  18.566  1.00  0.00    -0.368 OA
ATOM     35  H1  UNL     1      19.591  16.576  18.550  1.00  0.00     0.212 HD
ENDBRANCH   5  34
BRANCH   7  36
HETATM   36  O5  UNL     1      24.964  16.776  19.254  1.00  0.00    -0.391 OA
ATOM     37  H5  UNL     1      24.981  15.916  18.850  1.00  0.00     0.210 HD
ENDBRANCH   7  36
BRANCH   8  38
HETATM   38  O6  UNL     1      24.421  18.900  17.888  1.00  0.00    -0.391 OA
ATOM     39  H6  UNL     1      24.351  19.734  18.337  1.00  0.00     0.210 HD
ENDBRANCH   8  38
BRANCH   1  40
HETATM   40  C3  UNL     1      21.248  19.016  17.203  1.00  0.00     0.157 C
BRANCH  40  41
HETATM   41  N4  UNL     1      21.736  20.053  16.333  1.00  0.00    -0.367 N
ATOM     42  H4  UNL     1      21.572  21.025  16.597  1.00  0.00     0.161 HD
BRANCH  41  43
HETATM   43  C2  UNL     1      22.440  19.789  15.114  1.00  0.00     0.162 A
HETATM   44  N3  UNL     1      21.983  19.272  13.985  1.00  0.00    -0.278 N
HETATM   45  N2  UNL     1      22.758  19.102  12.994  1.00  0.00    -0.278 N
ATOM     46  H3  UNL     1      21.000  19.008  13.910  1.00  0.00     0.189 HD
HETATM   47  C1  UNL     1      24.038  19.450  13.108  1.00  0.00     0.160 A
ATOM     48  H2  UNL     1      22.406  18.705  12.123  1.00  0.00     0.189 HD
HETATM   49  S1  UNL     1      24.087  20.042  14.720  1.00  0.00    -0.016 SA
BRANCH  47  50
HETATM   50  N1  UNL     1      24.992  19.355  12.213  1.00  0.00    -0.379 N
ATOM     51  H12 UNL     1      25.952  19.697  12.235  1.00  0.00     0.158 HD
ATOM     52  H11 UNL     1      24.958  18.907  11.298  1.00  0.00     0.158 HD
ENDBRANCH  47  50
ENDBRANCH  41  43
ENDBRANCH  40  41
ENDBRANCH   1  40
TORSDOF 12
ENDMDL