MODEL 3
REMARK VINA RESULT: -9.341497461      1.634      2.227
REMARK  15 active torsions:
REMARK  status: ('A' for Active; 'I' for Inactive)
REMARK    1  A    between atoms: N1_1  and  C1_4
REMARK    2  A    between atoms: C2_7  and  O1_8
REMARK    3  A    between atoms: O1_8  and  C3_9
REMARK    4  A    between atoms: C3_9  and  C4_10
REMARK       I    between atoms: C4_10  and  N3_12
REMARK    5  A    between atoms: N3_12  and  N4_14
REMARK    6  A    between atoms: N7_22  and  C6_23
REMARK    7  A    between atoms: C7_25  and  C8_26
REMARK       I    between atoms: C8_26  and  N8_28
REMARK    8  A    between atoms: N8_28  and  C9_30
REMARK    9  A    between atoms: C9_30  and  C10_31
REMARK   10  A    between atoms: C10_31  and  O5_32
REMARK   11  A    between atoms: C12_35  and  O6_36
REMARK   12  A    between atoms: C13_38  and  O7_39
REMARK   13  A    between atoms: C14_41  and  O8_42
REMARK   14  A    between atoms: C15_44  and  O9_45
REMARK   15  A    between atoms: C16_47  and  O10_48
ROOT
HETATM    1  C6  UNL     1      22.959  16.361  20.670  1.00  0.00     0.279 C
HETATM    2  O3  UNL     1      22.453  17.636  20.799  1.00  0.00    -0.345 OA
HETATM    3  C7  UNL     1      21.469  17.779  19.826  1.00  0.00     0.247 C
HETATM    4  C15 UNL     1      20.838  16.436  19.651  1.00  0.00     0.189 C
HETATM    5  C16 UNL     1      21.966  15.492  19.961  1.00  0.00     0.200 C
ENDROOT
BRANCH   1   6
HETATM    6  N7  UNL     1      23.486  15.781  21.861  1.00  0.00    -0.227 N
HETATM    7  N6  UNL     1      23.281  14.537  22.323  1.00  0.00    -0.236 N
HETATM    8  N5  UNL     1      23.940  14.390  23.448  1.00  0.00    -0.279 N
ATOM      9  H6  UNL     1      22.708  13.824  21.874  1.00  0.00     0.208 HD
HETATM   10  C5  UNL     1      24.599  15.528  23.763  1.00  0.00     0.147 A
ATOM     11  H5  UNL     1      23.953  13.536  24.007  1.00  0.00     0.189 HD
HETATM   12  C2  UNL     1      25.411  15.959  24.761  1.00  0.00     0.190 A
HETATM   13  C17 UNL     1      24.295  16.409  22.732  1.00  0.00     0.174 A
HETATM   14  N2  UNL     1      25.900  17.213  24.736  1.00  0.00    -0.168 N
HETATM   15  C1  UNL     1      25.619  18.078  23.751  1.00  0.00     0.679 A
ATOM     16  H2  UNL     1      26.508  17.517  25.497  1.00  0.00     0.186 HD
HETATM   17  N9  UNL     1      24.813  17.647  22.762  1.00  0.00    -0.173 N
ATOM     18  H9  UNL     1      24.587  18.289  22.003  1.00  0.00     0.186 HD
BRANCH  12  19
HETATM   19  O1  UNL     1      25.728  15.104  25.794  1.00  0.00    -0.324 OA
BRANCH  19  20
HETATM   20  C3  UNL     1      25.124  15.165  27.058  1.00  0.00     0.282 C
BRANCH  20  21
HETATM   21  C4  UNL     1      23.772  14.592  26.971  1.00  0.00     0.259 C
HETATM   22  O2  UNL     1      23.630  13.392  26.647  1.00  0.00    -0.269 OA
HETATM   23  N3  UNL     1      22.642  15.378  27.249  1.00  0.00    -0.275 N
ATOM     24  H3  UNL     1      22.767  16.355  27.513  1.00  0.00     0.189 HD
BRANCH  23  25
HETATM   25  N4  UNL     1      21.358  14.852  27.171  1.00  0.00    -0.343 N
ATOM     26  H42 UNL     1      20.589  15.390  27.572  1.00  0.00     0.176 HD
ATOM     27  H41 UNL     1      21.180  13.952  26.726  1.00  0.00     0.176 HD
ENDBRANCH  23  25
ENDBRANCH  20  21
ENDBRANCH  19  20
ENDBRANCH  12  19
BRANCH  15  28
HETATM   28  N1  UNL     1      26.079  19.283  23.711  1.00  0.00    -0.234 N
ATOM     29  H12 UNL     1      25.834  19.936  24.456  1.00  0.00     0.174 HD
ATOM     30  H11 UNL     1      26.683  19.630  22.966  1.00  0.00     0.174 HD
ENDBRANCH  15  28
ENDBRANCH   1   6
BRANCH   5  31
HETATM   31  O10 UNL     1      21.576  14.484  20.846  1.00  0.00    -0.388 OA
ATOM     32  H10 UNL     1      21.777  13.649  20.439  1.00  0.00     0.210 HD
ENDBRANCH   5  31
BRANCH   3  33
HETATM   33  C8  UNL     1      21.954  18.409  18.590  1.00  0.00     0.249 C
HETATM   34  O4  UNL     1      23.161  18.174  18.236  1.00  0.00    -0.271 OA
HETATM   35  N8  UNL     1      21.161  19.253  17.779  1.00  0.00    -0.356 N
ATOM     36  H8  UNL     1      20.198  19.449  18.050  1.00  0.00     0.162 HD
BRANCH  35  37
HETATM   37  C9  UNL     1      21.695  19.841  16.577  1.00  0.00     0.163 C
BRANCH  37  38
HETATM   38  C10 UNL     1      21.411  19.039  15.351  1.00  0.00     0.104 C
HETATM   39  C11 UNL     1      22.731  18.796  14.637  1.00  0.00     0.076 C
HETATM   40  C12 UNL     1      23.041  20.119  13.972  1.00  0.00     0.152 C
HETATM   41  C13 UNL     1      21.711  20.823  13.778  1.00  0.00     0.178 C
HETATM   42  C14 UNL     1      20.667  19.872  14.357  1.00  0.00     0.185 C
BRANCH  38  43
HETATM   43  O5  UNL     1      20.819  17.824  15.612  1.00  0.00    -0.385 OA
ATOM     44  H5  UNL     1      20.427  17.420  14.847  1.00  0.00     0.210 HD
ENDBRANCH  38  43
BRANCH  40  45
HETATM   45  O6  UNL     1      23.643  19.946  12.727  1.00  0.00    -0.393 OA
ATOM     46  H6  UNL     1      23.601  20.736  12.201  1.00  0.00     0.210 HD
ENDBRANCH  40  45
BRANCH  41  47
HETATM   47  O7  UNL     1      21.451  21.062  12.426  1.00  0.00    -0.390 OA
ATOM     48  H7  UNL     1      20.871  21.806  12.309  1.00  0.00     0.210 HD
ENDBRANCH  41  47
BRANCH  42  49
HETATM   49  O8  UNL     1      20.197  19.091  13.292  1.00  0.00    -0.390 OA
ATOM     50  H8  UNL     1      20.712  19.234  12.507  1.00  0.00     0.210 HD
ENDBRANCH  42  49
ENDBRANCH  37  38
ENDBRANCH  35  37
ENDBRANCH   3  33
BRANCH   4  51
HETATM   51  O9  UNL     1      20.490  16.238  18.315  1.00  0.00    -0.390 OA
ATOM     52  H9  UNL     1      21.162  16.592  17.746  1.00  0.00     0.210 HD
ENDBRANCH   4  51
TORSDOF 15
ENDMDL