MODEL 4
REMARK VINA RESULT: -8.126800078      3.046      8.833
REMARK  17 active torsions:
REMARK  status: ('A' for Active; 'I' for Inactive)
REMARK    1  A    between atoms: N1_1  and  C1_4
REMARK    2  A    between atoms: N4_12  and  C5_13
REMARK    3  A    between atoms: N5_14  and  N6_16
REMARK    4  A    between atoms: N9_23  and  C8_24
REMARK    5  A    between atoms: C9_25  and  O2_26
REMARK    6  A    between atoms: C10_28  and  O3_29
REMARK    7  A    between atoms: C11_31  and  C12_32
REMARK    8  A    between atoms: C12_32  and  N10_33
REMARK    9  A    between atoms: N10_33  and  O4_34
REMARK   10  A    between atoms: N10_33  and  C13_36
REMARK   11  A    between atoms: C13_36  and  O5_37
REMARK   12  A    between atoms: C13_36  and  C14_39
REMARK   13  A    between atoms: C14_39  and  O6_40
REMARK   14  A    between atoms: C14_39  and  C15_42
REMARK   15  A    between atoms: C15_42  and  O7_43
REMARK   16  A    between atoms: C16_45  and  N11_46
REMARK   17  A    between atoms: N12_50  and  O8_51
ROOT
HETATM    1  C8  UNL     1      23.649  19.016  19.876  1.00  0.00     0.253 C
HETATM    2  C9  UNL     1      24.791  18.971  18.912  1.00  0.00     0.192 C
HETATM    3  C10 UNL     1      24.665  19.961  17.769  1.00  0.00     0.160 C
HETATM    4  C11 UNL     1      23.290  19.871  17.198  1.00  0.00     0.089 C
HETATM    5  C16 UNL     1      22.332  20.269  18.293  1.00  0.00     0.315 C
HETATM    6  N12 UNL     1      22.384  19.293  19.299  1.00  0.00    -0.238 N
ENDROOT
BRANCH   1   7
HETATM    7  N9  UNL     1      23.589  17.839  20.700  1.00  0.00    -0.256 N
HETATM    8  C3  UNL     1      22.862  16.712  20.494  1.00  0.00     0.146 A
HETATM    9  N3  UNL     1      22.025  16.409  19.486  1.00  0.00    -0.336 N
HETATM   10  C4  UNL     1      23.060  15.792  21.498  1.00  0.00     0.133 A
HETATM   11  C2  UNL     1      21.394  15.254  19.442  1.00  0.00     0.183 A
ATOM     12  H3  UNL     1      21.876  17.088  18.739  1.00  0.00     0.168 HD
HETATM   13  N2  UNL     1      21.556  14.340  20.392  1.00  0.00    -0.337 N
HETATM   14  C1  UNL     1      22.391  14.598  21.431  1.00  0.00     0.131 A
ATOM     15  H2  UNL     1      21.058  13.451  20.342  1.00  0.00     0.168 HD
HETATM   16  N4  UNL     1      23.929  16.379  22.334  1.00  0.00    -0.251 N
HETATM   17  C7  UNL     1      24.242  17.609  21.847  1.00  0.00     0.338 A
HETATM   18  O1  UNL     1      25.051  18.368  22.459  1.00  0.00    -0.246 OA
BRANCH  14  19
HETATM   19  N1  UNL     1      22.522  13.699  22.320  1.00  0.00    -0.383 N
ATOM     20  H12 UNL     1      22.754  13.921  23.288  1.00  0.00     0.157 HD
ATOM     21  H11 UNL     1      22.388  12.729  22.035  1.00  0.00     0.157 HD
ENDBRANCH  14  19
BRANCH  16  22
HETATM   22  C5  UNL     1      24.424  15.789  23.525  1.00  0.00     0.210 C
HETATM   23  N5  UNL     1      25.554  16.131  24.037  1.00  0.00    -0.293 N
ATOM     24  H5  UNL     1      26.122  16.847  23.585  1.00  0.00     0.187 HD
BRANCH  23  25
HETATM   25  N6  UNL     1      25.999  15.526  25.207  1.00  0.00    -0.275 N
HETATM   26  C6  UNL     1      25.944  16.101  26.357  1.00  0.00     0.215 C
HETATM   27  N7  UNL     1      26.436  15.368  27.475  1.00  0.00    -0.065 NA
HETATM   28  N8  UNL     1      25.427  17.407  26.556  1.00  0.00    -0.065 NA
ATOM     29  H6  UNL     1      26.388  14.584  25.150  1.00  0.00     0.189 HD
ENDBRANCH  23  25
ENDBRANCH  16  22
ENDBRANCH   1   7
BRANCH   2  30
HETATM   30  O2  UNL     1      25.028  17.735  18.360  1.00  0.00    -0.389 OA
ATOM     31  H2  UNL     1      25.551  17.153  18.899  1.00  0.00     0.210 HD
ENDBRANCH   2  30
BRANCH   6  32
HETATM   32  O8  UNL     1      21.311  18.965  19.943  1.00  0.00    -0.288 OA
ATOM     33  H8  UNL     1      20.835  19.633  20.422  1.00  0.00     0.244 HD
ENDBRANCH   6  32
BRANCH   3  34
HETATM   34  O3  UNL     1      24.920  21.217  18.347  1.00  0.00    -0.392 OA
ATOM     35  H3  UNL     1      25.799  21.150  18.700  1.00  0.00     0.210 HD
ENDBRANCH   3  34
BRANCH   5  36
HETATM   36  N11 UNL     1      20.980  20.442  17.825  1.00  0.00    -0.056 N
ATOM     37 3H11 UNL     1      20.936  21.153  17.095  1.00  0.00     0.276 HD
ATOM     38 2H11 UNL     1      20.674  19.632  17.286  1.00  0.00     0.276 HD
ATOM     39 1H11 UNL     1      20.321  20.649  18.575  1.00  0.00     0.276 HD
ENDBRANCH   5  36
BRANCH   4  40
HETATM   40  C12 UNL     1      23.032  20.535  15.895  1.00  0.00     0.169 C
BRANCH  40  41
HETATM   41  N10 UNL     1      22.847  19.715  14.760  1.00  0.00    -0.239 N
BRANCH  41  42
HETATM   42  O4  UNL     1      23.926  18.846  14.524  1.00  0.00    -0.286 OA
ATOM     43  H4  UNL     1      24.045  18.202  15.213  1.00  0.00     0.244 HD
ENDBRANCH  41  42
BRANCH  41  44
HETATM   44  C13 UNL     1      21.815  19.616  13.856  1.00  0.00     0.169 C
BRANCH  44  45
HETATM   45  O5  UNL     1      22.145  19.462  12.604  1.00  0.00    -0.346 OA
ATOM     46  H5  UNL     1      22.720  18.734  12.399  1.00  0.00     0.219 HD
ENDBRANCH  44  45
BRANCH  44  47
HETATM   47  C14 UNL     1      20.381  19.669  14.147  1.00  0.00     0.217 C
BRANCH  47  48
HETATM   48  O6  UNL     1      19.508  19.521  13.113  1.00  0.00    -0.385 OA
ATOM     49  H6  UNL     1      18.581  19.632  13.288  1.00  0.00     0.210 HD
ENDBRANCH  47  48
BRANCH  47  50
HETATM   50  C15 UNL     1      20.040  18.555  15.159  1.00  0.00     0.204 C
BRANCH  50  51
HETATM   51  O7  UNL     1      19.212  19.051  16.148  1.00  0.00    -0.398 OA
ATOM     52  H7  UNL     1      19.341  18.565  16.954  1.00  0.00     0.209 HD
ENDBRANCH  50  51
ENDBRANCH  47  50
ENDBRANCH  44  47
ENDBRANCH  41  44
ENDBRANCH  40  41
ENDBRANCH   4  40
TORSDOF 17
ENDMDL