MODEL 3
REMARK VINA RESULT: -8.453190957      2.726      4.256
REMARK  15 active torsions:
REMARK  status: ('A' for Active; 'I' for Inactive)
REMARK    1  A    between atoms: N1_1  and  N2_4
REMARK    2  A    between atoms: N2_4  and  C1_5
REMARK    3  A    between atoms: C1_5  and  O1_6
REMARK    4  A    between atoms: C1_5  and  C2_8
REMARK    5  A    between atoms: C2_8  and  O2_9
REMARK    6  A    between atoms: C3_11  and  N3_12
REMARK       I    between atoms: N3_12  and  C4_14
REMARK       I    between atoms: C4_14  and  N4_16
REMARK    7  A    between atoms: C6_18  and  C7_19
REMARK    8  A    between atoms: C7_19  and  N5_20
REMARK    9  A    between atoms: C12_33  and  O6_34
REMARK   10  A    between atoms: C13_36  and  O7_37
REMARK   11  A    between atoms: C14_39  and  O8_40
REMARK   12  A    between atoms: C15_42  and  C16_43
REMARK   13  A    between atoms: C16_43  and  O9_44
REMARK   14  A    between atoms: C16_43  and  C17_46
REMARK   15  A    between atoms: C17_46  and  O10_47
ROOT
HETATM    1  C2  UNL     1      21.586  20.709  16.341  1.00  0.00     0.149 C
HETATM    2  C3  UNL     1      22.844  19.938  16.440  1.00  0.00     0.061 C
HETATM    3  C12 UNL     1      23.646  19.643  15.242  1.00  0.00     0.198 C
HETATM    4  C13 UNL     1      23.749  20.839  14.359  1.00  0.00     0.181 C
HETATM    5  C14 UNL     1      23.174  22.089  14.943  1.00  0.00     0.159 C
HETATM    6  C15 UNL     1      21.801  21.940  15.523  1.00  0.00     0.092 C
ENDROOT
BRANCH   2   7
HETATM    7  N3  UNL     1      22.718  18.775  17.334  1.00  0.00    -0.309 N
HETATM    8  C4  UNL     1      23.773  18.322  18.167  1.00  0.00     0.346 C
HETATM    9  O3  UNL     1      24.857  18.978  18.106  1.00  0.00    -0.245 OA
HETATM   10  N4  UNL     1      23.635  17.203  19.021  1.00  0.00    -0.200 N
HETATM   11  C5  UNL     1      24.568  16.694  19.845  1.00  0.00     0.151 A
HETATM   12  N8  UNL     1      22.539  16.480  19.131  1.00  0.00    -0.232 N
HETATM   13  C6  UNL     1      24.011  15.608  20.489  1.00  0.00     0.063 A
HETATM   14  N7  UNL     1      22.762  15.516  20.016  1.00  0.00    -0.287 N
ATOM     15  H7  UNL     1      22.081  14.809  20.295  1.00  0.00     0.188 HD
ATOM     16  H8  UNL     1      21.668  16.635  18.623  1.00  0.00     0.209 HD
ATOM     17  H3  UNL     1      21.830  18.271  17.355  1.00  0.00     0.170 HD
BRANCH  13  18
HETATM   18  C7  UNL     1      24.677  14.757  21.475  1.00  0.00     0.193 C
BRANCH  18  19
HETATM   19  N5  UNL     1      23.824  14.438  22.603  1.00  0.00    -0.304 N
HETATM   20  C8  UNL     1      24.114  15.013  23.797  1.00  0.00     0.101 A
HETATM   21  C9  UNL     1      23.347  14.755  24.911  1.00  0.00     0.092 A
HETATM   22  C10 UNL     1      22.278  13.903  24.787  1.00  0.00     0.250 A
HETATM   23  O4  UNL     1      21.520  13.614  25.772  1.00  0.00    -0.268 OA
HETATM   24  N6  UNL     1      21.983  13.325  23.596  1.00  0.00    -0.275 N
HETATM   25  C11 UNL     1      22.771  13.612  22.526  1.00  0.00     0.329 A
ATOM     26  H6  UNL     1      21.189  12.692  23.506  1.00  0.00     0.173 HD
HETATM   27  O5  UNL     1      22.504  13.080  21.417  1.00  0.00    -0.246 OA
ENDBRANCH  18  19
ENDBRANCH  13  18
ENDBRANCH   2   7
BRANCH   1  28
HETATM   28  C1  UNL     1      20.325  20.041  16.015  1.00  0.00     0.271 C
BRANCH  28  29
HETATM   29  N2  UNL     1      20.037  19.841  14.594  1.00  0.00    -0.113 NA
BRANCH  29  30
HETATM   30  N1  UNL     1      20.265  18.488  14.240  1.00  0.00    -0.346 N
ATOM     31  H12 UNL     1      20.912  18.186  13.512  1.00  0.00     0.172 HD
ATOM     32  H11 UNL     1      19.689  17.876  14.819  1.00  0.00     0.172 HD
ENDBRANCH  29  30
ENDBRANCH  28  29
BRANCH  28  33
HETATM   33  O1  UNL     1      19.988  18.892  16.680  1.00  0.00    -0.374 OA
ATOM     34  H1  UNL     1      19.040  18.827  16.693  1.00  0.00     0.212 HD
ENDBRANCH  28  33
ENDBRANCH   1  28
BRANCH   1  35
HETATM   35  O2  UNL     1      21.424  21.187  17.691  1.00  0.00    -0.379 OA
ATOM     36  H2  UNL     1      21.473  20.411  18.237  1.00  0.00     0.211 HD
ENDBRANCH   1  35
BRANCH   3  37
HETATM   37  O6  UNL     1      23.310  18.539  14.491  1.00  0.00    -0.387 OA
ATOM     38  H6  UNL     1      23.058  18.674  13.585  1.00  0.00     0.210 HD
ENDBRANCH   3  37
BRANCH   6  39
HETATM   39  C16 UNL     1      21.473  23.246  16.204  1.00  0.00     0.151 C
BRANCH  39  40
HETATM   40  O9  UNL     1      22.697  23.948  16.438  1.00  0.00    -0.393 OA
ATOM     41  H9  UNL     1      22.494  24.760  16.886  1.00  0.00     0.210 HD
ENDBRANCH  39  40
BRANCH  39  42
HETATM   42  C17 UNL     1      20.599  24.171  15.382  1.00  0.00     0.196 C
BRANCH  42  43
HETATM   43  O10 UNL     1      19.418  24.383  16.153  1.00  0.00    -0.398 OA
ATOM     44  H10 UNL     1      18.752  24.667  15.538  1.00  0.00     0.209 HD
ENDBRANCH  42  43
ENDBRANCH  39  42
ENDBRANCH   6  39
BRANCH   4  45
HETATM   45  O7  UNL     1      23.219  20.585  13.071  1.00  0.00    -0.390 OA
ATOM     46  H7  UNL     1      23.591  19.800  12.687  1.00  0.00     0.210 HD
ENDBRANCH   4  45
BRANCH   5  47
HETATM   47  O8  UNL     1      23.088  23.004  13.885  1.00  0.00    -0.392 OA
ATOM     48  H8  UNL     1      22.163  23.199  13.783  1.00  0.00     0.210 HD
ENDBRANCH   5  47
TORSDOF 15
ENDMDL