MODEL 5
REMARK VINA RESULT: -7.910615105      1.967      3.059
REMARK  15 active torsions:
REMARK  status: ('A' for Active; 'I' for Inactive)
REMARK       I    between atoms: C2_2  and  N1_4
REMARK    1  A    between atoms: N1_4  and  C3_6
REMARK    2  A    between atoms: C4_7  and  C5_8
REMARK    3  A    between atoms: C5_8  and  O2_9
REMARK    4  A    between atoms: C5_8  and  C6_11
REMARK    5  A    between atoms: C6_11  and  O3_12
REMARK    6  A    between atoms: C6_11  and  C7_14
REMARK    7  A    between atoms: C7_14  and  O4_15
REMARK    8  A    between atoms: C8_18  and  O6_19
REMARK    9  A    between atoms: C9_21  and  N2_22
REMARK   10  A    between atoms: C10_25  and  C11_26
REMARK   11  A    between atoms: C12_29  and  N5_30
REMARK       I    between atoms: N5_30  and  C13_31
REMARK       I    between atoms: C13_31  and  N7_35
REMARK   12  A    between atoms: N7_35  and  N8_37
REMARK   13  A    between atoms: N8_37  and  N9_38
REMARK   14  A    between atoms: N8_37  and  O8_41
REMARK   15  A    between atoms: N11_47  and  O10_48
ROOT
HETATM    1  N2  UNL     1      23.748  18.661  19.325  1.00  0.00    -0.204 N
HETATM    2  N3  UNL     1      22.733  18.346  18.546  1.00  0.00    -0.274 N
ATOM      3  H3  UNL     1      22.117  17.583  18.828  1.00  0.00     0.189 HD
HETATM    4  C10 UNL     1      22.477  18.989  17.394  1.00  0.00     0.161 A
HETATM    5  C12 UNL     1      23.285  20.022  16.980  1.00  0.00     0.213 A
HETATM    6  C14 UNL     1      24.372  20.340  17.840  1.00  0.00     0.304 A
HETATM    7  O9  UNL     1      25.141  21.278  17.508  1.00  0.00    -0.263 OA
HETATM    8  N10 UNL     1      24.554  19.646  18.973  1.00  0.00    -0.245 N
ATOM      9  H10 UNL     1      25.338  19.885  19.580  1.00  0.00     0.192 HD
ENDROOT
BRANCH   1  10
HETATM   10  C9  UNL     1      23.995  17.955  20.552  1.00  0.00     0.283 C
HETATM   11  C8  UNL     1      25.408  17.408  20.520  1.00  0.00     0.300 C
HETATM   12  O5  UNL     1      25.711  16.664  21.632  1.00  0.00    -0.346 OA
HETATM   13  C4  UNL     1      24.720  16.555  22.559  1.00  0.00     0.195 C
HETATM   14  C3  UNL     1      23.384  16.155  21.956  1.00  0.00     0.219 C
HETATM   15  N11 UNL     1      23.112  16.843  20.732  1.00  0.00    -0.142 NA
BRANCH  11  16
HETATM   16  O6  UNL     1      25.606  16.579  19.403  1.00  0.00    -0.368 OA
ATOM     17  H6  UNL     1      24.756  16.234  19.159  1.00  0.00     0.212 HD
ENDBRANCH  11  16
BRANCH  13  18
HETATM   18  C5  UNL     1      25.059  15.575  23.628  1.00  0.00     0.181 C
BRANCH  18  19
HETATM   19  O2  UNL     1      26.413  15.285  23.753  1.00  0.00    -0.390 OA
ATOM     20  H2  UNL     1      26.975  15.698  23.108  1.00  0.00     0.210 HD
ENDBRANCH  18  19
BRANCH  18  21
HETATM   21  C6  UNL     1      24.454  15.778  24.982  1.00  0.00     0.173 C
BRANCH  21  22
HETATM   22  O3  UNL     1      23.391  14.824  25.133  1.00  0.00    -0.391 OA
ATOM     23  H3  UNL     1      23.084  14.874  26.030  1.00  0.00     0.210 HD
ENDBRANCH  21  22
BRANCH  21  24
HETATM   24  C7  UNL     1      25.369  15.627  26.154  1.00  0.00     0.198 C
BRANCH  24  25
HETATM   25  O4  UNL     1      26.451  16.451  26.220  1.00  0.00    -0.398 OA
ATOM     26  H4  UNL     1      26.484  17.079  26.932  1.00  0.00     0.209 HD
ENDBRANCH  24  25
ENDBRANCH  21  24
ENDBRANCH  18  21
ENDBRANCH  13  18
BRANCH  14  27
HETATM   27  N1  UNL     1      23.255  14.729  21.796  1.00  0.00    -0.340 N
HETATM   28  C2  UNL     1      22.004  14.055  21.878  1.00  0.00     0.214 C
HETATM   29  C1  UNL     1      21.855  12.608  21.719  1.00  0.00     0.117 C
HETATM   30  O1  UNL     1      20.977  14.742  22.099  1.00  0.00    -0.274 OA
ATOM     31  H1  UNL     1      24.095  14.180  21.617  1.00  0.00     0.164 HD
ENDBRANCH  14  27
BRANCH  15  32
HETATM   32  O10 UNL     1      23.280  15.961  19.710  1.00  0.00    -0.309 OA
ATOM     33  H10 UNL     1      24.162  15.611  19.768  1.00  0.00     0.237 HD
ENDBRANCH  15  32
ENDBRANCH   1  10
BRANCH   4  34
HETATM   34  C11 UNL     1      21.347  18.592  16.589  1.00  0.00     0.286 C
HETATM   35  N4  UNL     1      20.056  18.588  17.186  1.00  0.00    -0.056 NA
HETATM   36  O7  UNL     1      21.400  18.243  15.386  1.00  0.00    -0.269 OA
ENDBRANCH   4  34
BRANCH   5  37
HETATM   37  N5  UNL     1      23.141  20.641  15.989  1.00  0.00    -0.362 NA
HETATM   38  C13 UNL     1      22.980  21.334  14.878  1.00  0.00     0.271 C
HETATM   39  N6  UNL     1      22.669  22.616  14.953  1.00  0.00    -0.358 N
HETATM   40  N7  UNL     1      23.108  20.842  13.523  1.00  0.00    -0.218 N
ATOM     41  H62 UNL     1      22.579  22.962  15.909  1.00  0.00     0.160 HD
ATOM     42  H61 UNL     1      22.544  23.152  14.094  1.00  0.00     0.160 HD
ATOM     43  H7  UNL     1      22.510  21.233  12.795  1.00  0.00     0.195 HD
BRANCH  40  44
HETATM   44  N8  UNL     1      24.019  19.858  13.188  1.00  0.00    -0.098 N
BRANCH  44  45
HETATM   45  N9  UNL     1      23.897  18.701  13.744  1.00  0.00    -0.303 N
ATOM     46  H92 UNL     1      24.003  17.890  13.135  1.00  0.00     0.181 HD
ATOM     47  H91 UNL     1      23.704  18.666  14.746  1.00  0.00     0.181 HD
ENDBRANCH  44  45
BRANCH  44  48
HETATM   48  O8  UNL     1      25.054  20.003  12.304  1.00  0.00    -0.254 OA
ATOM     49  H8  UNL     1      25.586  20.784  12.203  1.00  0.00     0.248 HD
ENDBRANCH  44  48
ENDBRANCH  40  44
ENDBRANCH   5  37
TORSDOF 15
ENDMDL