MODEL 5
REMARK VINA RESULT: -9.044483547      1.017      2.815
REMARK  16 active torsions:
REMARK  status: ('A' for Active; 'I' for Inactive)
REMARK       I    between atoms: C2_2  and  N1_4
REMARK    1  A    between atoms: N1_4  and  C3_6
REMARK    2  A    between atoms: C4_7  and  O2_8
REMARK    3  A    between atoms: C5_10  and  O3_11
REMARK    4  A    between atoms: C6_13  and  O4_14
REMARK    5  A    between atoms: C6_13  and  C7_16
REMARK       I    between atoms: C7_16  and  N2_18
REMARK    6  A    between atoms: N2_18  and  N3_20
REMARK    7  A    between atoms: N3_20  and  N4_22
REMARK    8  A    between atoms: C8_25  and  O6_26
REMARK    9  A    between atoms: C9_28  and  O7_29
REMARK   10  A    between atoms: O7_29  and  C10_30
REMARK   11  A    between atoms: C10_30  and  C11_31
REMARK   12  A    between atoms: C11_31  and  O8_32
REMARK   13  A    between atoms: C12_35  and  C13_36
REMARK   14  A    between atoms: C13_36  and  O10_37
REMARK   15  A    between atoms: C13_36  and  C14_39
REMARK   16  A    between atoms: C14_39  and  O11_40
ROOT
HETATM    1  C3  UNL     1      22.517  21.097  18.011  1.00  0.00     0.147 C
HETATM    2  C4  UNL     1      22.761  21.912  16.792  1.00  0.00     0.175 C
HETATM    3  C5  UNL     1      21.991  21.476  15.583  1.00  0.00     0.195 C
HETATM    4  C6  UNL     1      21.799  20.008  15.461  1.00  0.00     0.196 C
HETATM    5  C8  UNL     1      21.695  19.232  16.731  1.00  0.00     0.196 C
HETATM    6  C9  UNL     1      22.832  19.641  17.642  1.00  0.00     0.179 C
ENDROOT
BRANCH   6   7
HETATM    7  O7  UNL     1      23.053  18.862  18.688  1.00  0.00    -0.373 OA
BRANCH   7   8
HETATM    8  C10 UNL     1      23.286  17.562  18.712  1.00  0.00     0.270 C
BRANCH   8   9
HETATM    9  C11 UNL     1      22.961  16.842  19.999  1.00  0.00     0.307 C
HETATM   10  O9  UNL     1      23.670  17.378  21.070  1.00  0.00    -0.298 OA
HETATM   11  C12 UNL     1      24.806  16.710  21.412  1.00  0.00     0.297 C
HETATM   12  O12 UNL     1      24.488  15.927  22.551  1.00  0.00    -0.346 OA
HETATM   13  C15 UNL     1      23.247  15.369  22.260  1.00  0.00     0.204 C
HETATM   14  C16 UNL     1      23.046  13.938  22.615  1.00  0.00     0.208 C
HETATM   15  C17 UNL     1      23.385  14.735  20.896  1.00  0.00     0.296 C
HETATM   16  O13 UNL     1      22.515  13.748  21.315  1.00  0.00    -0.356 OA
HETATM   17  O14 UNL     1      23.057  15.512  19.851  1.00  0.00    -0.298 OA
BRANCH   9  18
HETATM   18  O8  UNL     1      21.613  17.165  20.301  1.00  0.00    -0.341 OA
ATOM     19  H8  UNL     1      21.591  18.107  20.428  1.00  0.00     0.215 HD
ENDBRANCH   9  18
BRANCH  11  20
HETATM   20  C13 UNL     1      25.805  17.751  21.938  1.00  0.00     0.197 C
BRANCH  20  21
HETATM   21  O10 UNL     1      26.137  17.359  23.231  1.00  0.00    -0.389 OA
ATOM     22  H10 UNL     1      27.086  17.373  23.280  1.00  0.00     0.210 HD
ENDBRANCH  20  21
BRANCH  20  23
HETATM   23  C14 UNL     1      25.011  19.048  22.072  1.00  0.00     0.200 C
BRANCH  23  24
HETATM   24  O11 UNL     1      24.986  19.770  20.892  1.00  0.00    -0.398 OA
ATOM     25  H11 UNL     1      25.483  20.577  20.954  1.00  0.00     0.209 HD
ENDBRANCH  23  24
ENDBRANCH  20  23
ENDBRANCH  11  20
ENDBRANCH   8   9
ENDBRANCH   7   8
ENDBRANCH   6   7
BRANCH   1  26
HETATM   26  N1  UNL     1      23.372  21.564  19.061  1.00  0.00    -0.352 N
HETATM   27  C2  UNL     1      22.961  22.647  19.876  1.00  0.00     0.214 C
HETATM   28  C1  UNL     1      23.817  23.168  20.981  1.00  0.00     0.117 C
HETATM   29  O1  UNL     1      21.845  23.178  19.657  1.00  0.00    -0.274 OA
ATOM     30  H1  UNL     1      24.275  21.118  19.222  1.00  0.00     0.163 HD
ENDBRANCH   1  26
BRANCH   5  31
HETATM   31  O6  UNL     1      20.462  19.422  17.286  1.00  0.00    -0.389 OA
ATOM     32  H6  UNL     1      20.016  20.130  16.837  1.00  0.00     0.210 HD
ENDBRANCH   5  31
BRANCH   2  33
HETATM   33  O2  UNL     1      24.136  21.909  16.501  1.00  0.00    -0.391 OA
ATOM     34  H2  UNL     1      24.263  22.120  15.583  1.00  0.00     0.210 HD
ENDBRANCH   2  33
BRANCH   4  35
HETATM   35  O4  UNL     1      22.931  19.475  14.780  1.00  0.00    -0.375 OA
ATOM     36  H4  UNL     1      23.585  19.253  15.433  1.00  0.00     0.211 HD
ENDBRANCH   4  35
BRANCH   4  37
HETATM   37  C7  UNL     1      20.643  19.645  14.593  1.00  0.00     0.277 C
HETATM   38  O5  UNL     1      19.443  19.639  15.037  1.00  0.00    -0.268 OA
HETATM   39  N2  UNL     1      20.791  19.288  13.246  1.00  0.00    -0.253 N
ATOM     40  H2  UNL     1      21.726  19.274  12.839  1.00  0.00     0.191 HD
BRANCH  39  41
HETATM   41  N3  UNL     1      19.685  18.946  12.434  1.00  0.00    -0.247 N
ATOM     42  H3  UNL     1      18.732  19.052  12.780  1.00  0.00     0.207 HD
BRANCH  41  43
HETATM   43  N4  UNL     1      19.908  18.498  11.245  1.00  0.00    -0.331 N
ATOM     44  H42 UNL     1      19.239  18.690  10.499  1.00  0.00     0.178 HD
ATOM     45  H41 UNL     1      20.755  17.957  11.079  1.00  0.00     0.178 HD
ENDBRANCH  41  43
ENDBRANCH  39  41
ENDBRANCH   4  37
BRANCH   3  46
HETATM   46  O3  UNL     1      20.833  22.238  15.464  1.00  0.00    -0.389 OA
ATOM     47  H3  UNL     1      20.258  21.849  14.816  1.00  0.00     0.210 HD
ENDBRANCH   3  46
TORSDOF 16
ENDMDL