MODEL 4
REMARK VINA RESULT: -8.181258594      4.137      9.511
REMARK  15 active torsions:
REMARK  status: ('A' for Active; 'I' for Inactive)
REMARK       I    between atoms: C2_2  and  N1_4
REMARK    1  A    between atoms: N1_4  and  C3_5
REMARK    2  A    between atoms: C4_6  and  O2_7
REMARK    3  A    between atoms: O2_7  and  C5_8
REMARK    4  A    between atoms: C5_8  and  C6_9
REMARK    5  A    between atoms: C7_11  and  N2_12
REMARK    6  A    between atoms: C10_21  and  N6_22
REMARK    7  A    between atoms: C12_28  and  O4_29
REMARK    8  A    between atoms: C13_31  and  O5_32
REMARK    9  A    between atoms: C14_34  and  C15_35
REMARK   10  A    between atoms: C15_35  and  O6_36
REMARK   11  A    between atoms: C16_38  and  N8_39
REMARK   12  A    between atoms: C16_38  and  O7_43
REMARK   13  A    between atoms: C17_45  and  O8_46
REMARK   14  A    between atoms: C17_45  and  O9_48
REMARK   15  A    between atoms: C18_50  and  O10_51
ROOT
HETATM    1  C6  UNL     1      23.366  14.483  23.483  1.00  0.00     0.157 C
HETATM    2  O3  UNL     1      23.706  15.793  23.005  1.00  0.00    -0.353 OA
HETATM    3  C7  UNL     1      23.868  15.636  21.616  1.00  0.00     0.294 C
HETATM    4  C12 UNL     1      22.579  15.253  20.958  1.00  0.00     0.199 C
HETATM    5  C13 UNL     1      21.940  14.056  21.571  1.00  0.00     0.160 C
HETATM    6  C14 UNL     1      21.944  14.293  23.104  1.00  0.00     0.072 C
ENDROOT
BRANCH   1   7
HETATM    7  C5  UNL     1      23.699  14.372  24.927  1.00  0.00     0.201 C
BRANCH   7   8
HETATM    8  O2  UNL     1      24.838  15.071  25.297  1.00  0.00    -0.375 OA
BRANCH   8   9
HETATM    9  C4  UNL     1      24.530  16.115  26.177  1.00  0.00     0.228 C
HETATM   10  C3  UNL     1      24.584  15.547  27.626  1.00  0.00     0.234 C
HETATM   11  C18 UNL     1      25.992  15.857  27.972  1.00  0.00     0.224 C
HETATM   12  C17 UNL     1      26.305  17.221  27.416  1.00  0.00     0.251 C
HETATM   13  C16 UNL     1      25.501  17.222  26.102  1.00  0.00     0.310 C
BRANCH  10  14
HETATM   14  N1  UNL     1      23.599  16.033  28.463  1.00  0.00    -0.404 NA
HETATM   15  C2  UNL     1      22.618  16.516  29.297  1.00  0.00     0.283 C
HETATM   16  C1  UNL     1      22.888  17.818  30.098  1.00  0.00     0.134 C
HETATM   17  O1  UNL     1      21.526  16.034  29.493  1.00  0.00    -0.258 OA
ENDBRANCH  10  14
BRANCH  11  18
HETATM   18  O10 UNL     1      26.839  14.968  27.309  1.00  0.00    -0.387 OA
ATOM     19  H10 UNL     1      27.742  15.213  27.471  1.00  0.00     0.210 HD
ENDBRANCH  11  18
BRANCH  12  20
HETATM   20  O8  UNL     1      25.902  18.245  28.235  1.00  0.00    -0.360 OA
ATOM     21  H8  UNL     1      26.010  18.009  29.149  1.00  0.00     0.213 HD
ENDBRANCH  12  20
BRANCH  12  22
HETATM   22  O9  UNL     1      27.676  17.271  27.144  1.00  0.00    -0.360 OA
ATOM     23  H9  UNL     1      27.881  16.735  26.387  1.00  0.00     0.213 HD
ENDBRANCH  12  22
BRANCH  13  24
HETATM   24  N8  UNL     1      24.813  18.522  25.984  1.00  0.00    -0.039 N
ATOM     25  H83 UNL     1      24.415  18.820  26.874  1.00  0.00     0.278 HD
ATOM     26  H82 UNL     1      25.474  19.286  25.845  1.00  0.00     0.278 HD
ATOM     27  H81 UNL     1      24.108  18.497  25.246  1.00  0.00     0.278 HD
ENDBRANCH  13  24
BRANCH  13  28
HETATM   28  O7  UNL     1      26.411  17.164  25.072  1.00  0.00    -0.359 OA
ATOM     29  H7  UNL     1      26.314  17.818  24.390  1.00  0.00     0.212 HD
ENDBRANCH  13  28
ENDBRANCH   8   9
ENDBRANCH   7   8
ENDBRANCH   1   7
BRANCH   6  30
HETATM   30  C15 UNL     1      21.206  13.176  23.715  1.00  0.00     0.174 C
BRANCH  30  31
HETATM   31  O6  UNL     1      20.287  12.635  22.799  1.00  0.00    -0.400 OA
ATOM     32  H6  UNL     1      20.528  11.744  22.575  1.00  0.00     0.209 HD
ENDBRANCH  30  31
ENDBRANCH   6  30
BRANCH   3  33
HETATM   33  N2  UNL     1      24.310  16.898  21.053  1.00  0.00    -0.199 N
HETATM   34  N3  UNL     1      25.004  17.826  21.655  1.00  0.00    -0.264 N
HETATM   35  C8  UNL     1      25.216  18.844  20.781  1.00  0.00     0.154 A
ATOM     36  H3  UNL     1      25.331  17.792  22.620  1.00  0.00     0.190 HD
HETATM   37  N4  UNL     1      25.836  20.011  20.827  1.00  0.00    -0.335 N
HETATM   38  C11 UNL     1      24.606  18.464  19.610  1.00  0.00     0.139 A
HETATM   39  C9  UNL     1      25.932  20.889  19.813  1.00  0.00     0.183 A
ATOM     40  H4  UNL     1      26.280  20.268  21.710  1.00  0.00     0.168 HD
HETATM   41  N5  UNL     1      25.335  20.513  18.665  1.00  0.00    -0.337 N
HETATM   42  C10 UNL     1      24.688  19.351  18.535  1.00  0.00     0.132 A
ATOM     43  H5  UNL     1      25.379  21.142  17.863  1.00  0.00     0.168 HD
HETATM   44  N7  UNL     1      24.063  17.272  19.817  1.00  0.00    -0.275 N
ATOM     45  H7  UNL     1      23.539  16.732  19.128  1.00  0.00     0.189 HD
BRANCH  42  46
HETATM   46  N6  UNL     1      24.121  18.992  17.436  1.00  0.00    -0.383 N
ATOM     47  H62 UNL     1      24.026  19.703  16.711  1.00  0.00     0.157 HD
ATOM     48  H61 UNL     1      23.773  18.047  17.280  1.00  0.00     0.157 HD
ENDBRANCH  42  46
ENDBRANCH   3  33
BRANCH   5  49
HETATM   49  O5  UNL     1      22.716  12.922  21.332  1.00  0.00    -0.392 OA
ATOM     50  H5  UNL     1      23.433  12.880  21.954  1.00  0.00     0.210 HD
ENDBRANCH   5  49
BRANCH   4  51
HETATM   51  O4  UNL     1      21.631  16.277  20.957  1.00  0.00    -0.388 OA
ATOM     52  H4  UNL     1      21.927  17.065  20.518  1.00  0.00     0.210 HD
ENDBRANCH   4  51
TORSDOF 15
ENDMDL