MODEL 4
REMARK VINA RESULT: -10.083513607      1.628      2.522
REMARK  8 active torsions:
REMARK  status: ('A' for Active; 'I' for Inactive)
REMARK    1  A    between atoms: C2_2  and  C5_5
REMARK    2  A    between atoms: C5_5  and  N1_6
REMARK    3  A    between atoms: N1_6  and  C6_8
REMARK    4  A    between atoms: C6_8  and  C7_9
REMARK    5  A    between atoms: C10_12  and  C11_13
REMARK    6  A    between atoms: C14_16  and  C15_17
REMARK    7  A    between atoms: C16_18  and  C17_19
REMARK    8  A    between atoms: C18_20  and  C19_21
ROOT
HETATM    1  C11 UNL     1      -2.349   7.878  19.439  1.00  0.00    -0.026 A
HETATM    2  C12 UNL     1      -2.468   8.154  18.100  1.00  0.00     0.013 A
HETATM    3  C13 UNL     1      -3.190   9.284  17.727  1.00  0.00     0.012 A
HETATM    4  C14 UNL     1      -3.792  10.144  18.616  1.00  0.00    -0.036 A
HETATM    5  C25 UNL     1      -3.646   9.820  19.987  1.00  0.00     0.012 A
HETATM    6  C26 UNL     1      -2.940   8.716  20.356  1.00  0.00     0.013 A
ENDROOT
BRANCH   1   7
HETATM    7  C10 UNL     1      -1.604   6.696  19.825  1.00  0.00    -0.026 A
HETATM    8  C9  UNL     1      -0.289   6.577  19.454  1.00  0.00     0.013 A
HETATM    9  C8  UNL     1       0.429   5.444  19.820  1.00  0.00     0.013 A
HETATM   10  C7  UNL     1      -0.152   4.432  20.551  1.00  0.00    -0.021 A
HETATM   11  C28 UNL     1      -1.462   4.568  20.912  1.00  0.00     0.013 A
HETATM   12  C27 UNL     1      -2.205   5.701  20.554  1.00  0.00     0.013 A
BRANCH  10  13
HETATM   13  C6  UNL     1       0.640   3.212  20.941  1.00  0.00     0.098 C
BRANCH  13  14
HETATM   14  N1  UNL     1       0.018   2.535  21.989  1.00  0.00    -0.377 N
ATOM     15  H1  UNL     1      -0.771   2.992  22.444  1.00  0.00     0.164 HD
BRANCH  14  16
HETATM   16  C5  UNL     1       0.390   1.288  22.456  1.00  0.00     0.069 C
BRANCH  16  17
HETATM   17  C2  UNL     1      -0.729   0.367  22.833  1.00  0.00    -0.019 C
HETATM   18  C1  UNL     1      -0.343  -0.378  24.140  1.00  0.00     0.020 C
HETATM   19  C3  UNL     1      -1.062  -0.651  21.795  1.00  0.00     0.020 C
HETATM   20  C4  UNL     1      -1.962   1.158  23.225  1.00  0.00     0.020 C
ENDBRANCH  16  17
ENDBRANCH  14  16
ENDBRANCH  13  14
ENDBRANCH  10  13
ENDBRANCH   1   7
BRANCH   4  21
HETATM   21  C15 UNL     1      -4.481  11.352  18.292  1.00  0.00     0.011 C
HETATM   22  C16 UNL     1      -4.145  12.590  18.306  1.00  0.00     0.001 C
BRANCH  22  23
HETATM   23  C17 UNL     1      -2.952  13.276  18.660  1.00  0.00     0.001 C
HETATM   24  C18 UNL     1      -2.618  14.499  18.498  1.00  0.00     0.011 C
BRANCH  24  25
HETATM   25  C19 UNL     1      -3.231  15.643  17.951  1.00  0.00    -0.036 A
HETATM   26  C20 UNL     1      -2.911  16.924  18.463  1.00  0.00     0.011 A
HETATM   27  C21 UNL     1      -3.486  18.083  18.066  1.00  0.00     0.001 A
HETATM   28  C22 UNL     1      -4.456  18.026  17.091  1.00  0.00     0.000 A
HETATM   29  C23 UNL     1      -4.815  16.827  16.556  1.00  0.00     0.001 A
HETATM   30  C24 UNL     1      -4.198  15.652  16.994  1.00  0.00     0.011 A
ENDBRANCH  24  25
ENDBRANCH  22  23
ENDBRANCH   4  21
TORSDOF 8
ENDMDL