MODEL 2
REMARK VINA RESULT: -10.925674182      2.471      3.966
REMARK  7 active torsions:
REMARK  status: ('A' for Active; 'I' for Inactive)
REMARK    1  A    between atoms: C2_2  and  C3_3
REMARK    2  A    between atoms: C3_3  and  C4_4
REMARK    3  A    between atoms: C4_4  and  C5_5
REMARK    4  A    between atoms: C5_5  and  N1_6
REMARK       I    between atoms: N1_6  and  C6_8
REMARK    5  A    between atoms: C6_8  and  C7_10
REMARK    6  A    between atoms: C13_16  and  C14_17
REMARK    7  A    between atoms: C17_20  and  C18_21
ROOT
HETATM    1  C7  UNL     1      -2.159   4.376  20.203  1.00  0.00     0.043 A
HETATM    2  C8  UNL     1      -0.859   3.843  20.304  1.00  0.00     0.018 A
HETATM    3  C9  UNL     1       0.216   4.673  20.121  1.00  0.00     0.002 A
HETATM    4  C10 UNL     1      -0.004   6.003  19.842  1.00  0.00     0.012 A
HETATM    5  C11 UNL     1      -1.274   6.527  19.743  1.00  0.00    -0.024 A
HETATM    6  C12 UNL     1      -1.446   7.859  19.451  1.00  0.00     0.024 A
HETATM    7  C13 UNL     1      -2.696   8.448  19.322  1.00  0.00    -0.025 A
HETATM    8  C26 UNL     1      -3.770   7.603  19.508  1.00  0.00     0.013 A
HETATM    9  C27 UNL     1      -3.664   6.261  19.803  1.00  0.00     0.014 A
HETATM   10  C28 UNL     1      -2.387   5.701  19.926  1.00  0.00    -0.010 A
ENDROOT
BRANCH   7  11
HETATM   11  C14 UNL     1      -2.828   9.869  19.009  1.00  0.00    -0.026 A
HETATM   12  C15 UNL     1      -2.569  10.822  20.004  1.00  0.00     0.013 A
HETATM   13  C16 UNL     1      -2.666  12.172  19.783  1.00  0.00     0.013 A
HETATM   14  C17 UNL     1      -3.029  12.633  18.547  1.00  0.00    -0.026 A
HETATM   15  C24 UNL     1      -3.289  11.715  17.550  1.00  0.00     0.013 A
HETATM   16  C25 UNL     1      -3.191  10.349  17.776  1.00  0.00     0.013 A
BRANCH  14  17
HETATM   17  C18 UNL     1      -3.147  14.080  18.283  1.00  0.00    -0.026 A
HETATM   18  C19 UNL     1      -2.228  14.926  18.855  1.00  0.00     0.012 A
HETATM   19  C20 UNL     1      -2.337  16.285  18.598  1.00  0.00     0.001 A
HETATM   20  C21 UNL     1      -3.345  16.762  17.787  1.00  0.00     0.000 A
HETATM   21  C22 UNL     1      -4.248  15.880  17.234  1.00  0.00     0.001 A
HETATM   22  C23 UNL     1      -4.159  14.532  17.475  1.00  0.00     0.012 A
ENDBRANCH  14  17
ENDBRANCH   7  11
BRANCH   1  23
HETATM   23  C6  UNL     1      -3.312   3.500  20.413  1.00  0.00     0.252 C
HETATM   24  N1  UNL     1      -3.817   3.369  21.735  1.00  0.00    -0.357 N
ATOM     25  H1  UNL     1      -3.356   3.893  22.479  1.00  0.00     0.162 HD
HETATM   26  O1  UNL     1      -3.867   2.864  19.508  1.00  0.00    -0.268 OA
BRANCH  24  27
HETATM   27  C5  UNL     1      -4.944   2.541  22.085  1.00  0.00     0.123 C
BRANCH  27  28
HETATM   28  C4  UNL     1      -6.284   3.142  21.837  1.00  0.00     0.020 C
BRANCH  28  29
HETATM   29  C3  UNL     1      -7.250   2.532  22.865  1.00  0.00     0.001 C
BRANCH  29  30
HETATM   30  C2  UNL     1      -8.523   3.362  22.927  1.00  0.00    -0.004 C
HETATM   31  C1  UNL     1      -9.071   3.374  24.359  1.00  0.00     0.005 C
ENDBRANCH  29  30
ENDBRANCH  28  29
ENDBRANCH  27  28
ENDBRANCH  24  27
ENDBRANCH   1  23
TORSDOF 7
ENDMDL