MODEL 5
REMARK VINA RESULT: -10.105664938      0.628      1.486
REMARK  7 active torsions:
REMARK  status: ('A' for Active; 'I' for Inactive)
REMARK    1  A    between atoms: C7_7  and  N1_8
REMARK    2  A    between atoms: N1_8  and  C8_10
REMARK    3  A    between atoms: C11_13  and  C12_14
REMARK    4  A    between atoms: C12_14  and  C13_15
REMARK    5  A    between atoms: C13_15  and  C14_16
REMARK    6  A    between atoms: C14_16  and  C15_17
REMARK    7  A    between atoms: C14_16  and  C21_23
ROOT
HETATM    1  C8  UNL     1      -1.742   5.390  19.330  1.00  0.00     0.032 A
HETATM    2  C9  UNL     1      -2.605   5.404  18.220  1.00  0.00     0.030 A
HETATM    3  C10 UNL     1      -3.035   6.557  17.619  1.00  0.00     0.009 A
HETATM    4  C11 UNL     1      -2.626   7.780  18.097  1.00  0.00    -0.058 A
HETATM    5  C27 UNL     1      -1.780   7.806  19.184  1.00  0.00     0.009 A
HETATM    6  C28 UNL     1      -1.352   6.629  19.780  1.00  0.00     0.030 A
ENDROOT
BRANCH   4   7
HETATM    7  C12 UNL     1      -3.094   9.061  17.444  1.00  0.00     0.039 C
BRANCH   7   8
HETATM    8  C13 UNL     1      -4.053   9.698  18.370  1.00  0.00     0.019 C
BRANCH   8   9
HETATM    9  C14 UNL     1      -3.534  10.623  19.402  1.00  0.00     0.052 C
BRANCH   9  10
HETATM   10  C15 UNL     1      -4.188  10.479  20.741  1.00  0.00    -0.050 A
HETATM   11  C16 UNL     1      -4.465  11.588  21.512  1.00  0.00     0.008 A
HETATM   12  C17 UNL     1      -5.071  11.439  22.739  1.00  0.00     0.001 A
HETATM   13  C18 UNL     1      -5.426  10.209  23.251  1.00  0.00     0.000 A
HETATM   14  C19 UNL     1      -5.147   9.111  22.477  1.00  0.00     0.001 A
HETATM   15  C20 UNL     1      -4.541   9.250  21.252  1.00  0.00     0.008 A
ENDBRANCH   9  10
BRANCH   9  16
HETATM   16  C21 UNL     1      -3.339  12.022  19.014  1.00  0.00    -0.050 A
HETATM   17  C22 UNL     1      -4.202  12.582  18.102  1.00  0.00     0.008 A
HETATM   18  C23 UNL     1      -4.054  13.925  17.723  1.00  0.00     0.001 A
HETATM   19  C24 UNL     1      -3.040  14.685  18.265  1.00  0.00     0.000 A
HETATM   20  C25 UNL     1      -2.189  14.108  19.173  1.00  0.00     0.001 A
HETATM   21  C26 UNL     1      -2.345  12.785  19.540  1.00  0.00     0.008 A
ENDBRANCH   9  16
ENDBRANCH   8   9
ENDBRANCH   7   8
ENDBRANCH   4   7
BRANCH   1  22
HETATM   22  N1  UNL     1      -1.306   4.156  19.864  1.00  0.00    -0.356 N
ATOM     23  H1  UNL     1      -0.398   3.818  19.547  1.00  0.00     0.166 HD
BRANCH  22  24
HETATM   24  C7  UNL     1      -1.987   3.352  20.781  1.00  0.00     0.039 A
HETATM   25  C5  UNL     1      -1.241   2.502  21.605  1.00  0.00    -0.035 A
HETATM   26  C4  UNL     1      -1.893   1.690  22.477  1.00  0.00     0.009 A
HETATM   27  C6  UNL     1       0.254   2.532  21.487  1.00  0.00     0.050 C
HETATM   28  C3  UNL     1      -3.262   1.649  22.599  1.00  0.00     0.007 A
HETATM   29  C2  UNL     1      -4.008   2.479  21.794  1.00  0.00    -0.060 A
HETATM   30  C1  UNL     1      -5.493   2.491  21.871  1.00  0.00     0.048 C
HETATM   31  C29 UNL     1      -3.340   3.319  20.893  1.00  0.00     0.036 A
ENDBRANCH  22  24
ENDBRANCH   1  22
TORSDOF 7
ENDMDL