MODEL 3
REMARK VINA RESULT: -9.294022878      2.257      3.761
REMARK  6 active torsions:
REMARK  status: ('A' for Active; 'I' for Inactive)
REMARK    1  A    between atoms: C2_2  and  C3_3
REMARK    2  A    between atoms: C3_3  and  C4_4
REMARK    3  A    between atoms: C10_12  and  C11_13
REMARK    4  A    between atoms: C11_13  and  C12_14
REMARK    5  A    between atoms: C13_15  and  C14_16
REMARK    6  A    between atoms: C13_15  and  C16_18
ROOT
HETATM    1  C4  UNL     1      -2.185   3.985  16.030  1.00  0.00    -0.029 A
HETATM    2  C5  UNL     1      -3.025   4.702  15.143  1.00  0.00     0.096 A
HETATM    3  N1  UNL     1      -3.448   5.795  15.772  1.00  0.00    -0.364 N
ATOM      4  H1  UNL     1      -4.069   6.493  15.365  1.00  0.00     0.165 HD
HETATM    5  C6  UNL     1      -2.938   5.855  17.039  1.00  0.00     0.054 A
HETATM    6  C7  UNL     1      -3.247   6.942  17.915  1.00  0.00    -0.009 A
HETATM    7  C8  UNL     1      -4.077   6.863  19.021  1.00  0.00     0.014 A
HETATM    8  C9  UNL     1      -4.368   7.929  19.850  1.00  0.00     0.008 A
HETATM    9  C10 UNL     1      -3.808   9.173  19.586  1.00  0.00    -0.055 A
HETATM   10  C22 UNL     1      -2.984   9.278  18.500  1.00  0.00     0.008 A
HETATM   11  C23 UNL     1      -2.691   8.204  17.665  1.00  0.00     0.014 A
HETATM   12  C24 UNL     1      -2.168   4.731  17.166  1.00  0.00     0.011 A
HETATM   13  C25 UNL     1      -1.404   4.456  18.355  1.00  0.00     0.001 A
HETATM   14  C26 UNL     1      -0.002   4.358  18.368  1.00  0.00     0.039 A
HETATM   15  C27 UNL     1       0.354   4.106  19.660  1.00  0.00     0.142 A
HETATM   16  O1  UNL     1      -0.741   4.057  20.362  1.00  0.00    -0.334 OA
HETATM   17  C28 UNL     1      -1.809   4.258  19.634  1.00  0.00     0.153 A
ENDROOT
BRANCH   1  18
HETATM   18  C3  UNL     1      -1.540   2.697  15.715  1.00  0.00     0.040 C
BRANCH  18  19
HETATM   19  C2  UNL     1      -0.549   2.687  14.628  1.00  0.00     0.000 C
HETATM   20  C1  UNL     1       0.464   3.766  14.561  1.00  0.00     0.005 C
ENDBRANCH  18  19
ENDBRANCH   1  18
BRANCH   9  21
HETATM   21  C11 UNL     1      -4.109  10.359  20.455  1.00  0.00     0.066 C
BRANCH  21  22
HETATM   22  C12 UNL     1      -4.063  11.586  19.638  1.00  0.00    -0.014 C
HETATM   23  C13 UNL     1      -3.101  12.441  19.518  1.00  0.00    -0.052 C
BRANCH  23  24
HETATM   24  C14 UNL     1      -1.835  12.260  20.258  1.00  0.00     0.034 C
HETATM   25  C15 UNL     1      -2.060  12.618  21.738  1.00  0.00     0.010 C
ENDBRANCH  23  24
BRANCH  23  26
HETATM   26  C16 UNL     1      -3.228  13.604  18.645  1.00  0.00    -0.030 A
HETATM   27  C17 UNL     1      -4.048  13.674  17.539  1.00  0.00     0.012 A
HETATM   28  C18 UNL     1      -4.179  14.789  16.734  1.00  0.00     0.001 A
HETATM   29  C19 UNL     1      -3.465  15.913  17.026  1.00  0.00     0.000 A
HETATM   30  C20 UNL     1      -2.635  15.891  18.116  1.00  0.00     0.001 A
HETATM   31  C21 UNL     1      -2.508  14.775  18.915  1.00  0.00     0.012 A
ENDBRANCH  23  26
ENDBRANCH  21  22
ENDBRANCH   9  21
TORSDOF 6
ENDMDL