MODEL 4
REMARK VINA RESULT: -9.117972387      1.846      2.470
REMARK  10 active torsions:
REMARK  status: ('A' for Active; 'I' for Inactive)
REMARK    1  A    between atoms: C2_2  and  C3_3
REMARK    2  A    between atoms: C4_4  and  C5_5
REMARK    3  A    between atoms: C6_6  and  C7_7
REMARK    4  A    between atoms: C15_17  and  C16_18
REMARK    5  A    between atoms: C16_18  and  C17_19
REMARK    6  A    between atoms: C17_19  and  C18_20
REMARK    7  A    between atoms: C18_20  and  C20_22
REMARK    8  A    between atoms: C20_22  and  C21_23
REMARK    9  A    between atoms: C21_23  and  O1_24
REMARK   10  A    between atoms: C21_23  and  C22_26
ROOT
HETATM    1  C1  UNL     1      -2.542   7.786  17.925  1.00  0.00     0.048 C
HETATM    2  C2  UNL     1      -2.554   7.516  19.379  1.00  0.00    -0.066 C
HETATM    3  C15 UNL     1      -1.475   6.992  20.010  1.00  0.00    -0.020 C
ENDROOT
BRANCH   2   4
HETATM    4  C3  UNL     1      -3.706   7.788  20.232  1.00  0.00     0.006 C
HETATM    5  C4  UNL     1      -4.274   8.872  20.600  1.00  0.00     0.001 C
BRANCH   5   6
HETATM    6  C5  UNL     1      -3.999  10.251  20.310  1.00  0.00     0.002 C
HETATM    7  C6  UNL     1      -4.014  10.721  19.059  1.00  0.00     0.029 C
BRANCH   7   8
HETATM    8  C7  UNL     1      -3.732  12.121  18.799  1.00  0.00     0.033 A
HETATM    9  C8  UNL     1      -4.470  13.008  18.030  1.00  0.00     0.043 A
HETATM   10  C9  UNL     1      -3.882  14.255  18.020  1.00  0.00    -0.007 A
HETATM   11  C10 UNL     1      -4.175  15.467  17.438  1.00  0.00     0.014 A
HETATM   12  C14 UNL     1      -2.757  14.110  18.806  1.00  0.00     0.043 A
HETATM   13  C11 UNL     1      -3.387  16.594  17.595  1.00  0.00     0.001 A
HETATM   14  C12 UNL     1      -2.264  16.445  18.383  1.00  0.00     0.002 A
HETATM   15  C13 UNL     1      -1.958  15.237  18.972  1.00  0.00     0.030 A
HETATM   16  N1  UNL     1      -2.685  12.845  19.258  1.00  0.00    -0.356 N
ATOM     17  H1  UNL     1      -1.946  12.483  19.861  1.00  0.00     0.166 HD
ENDBRANCH   7   8
ENDBRANCH   5   6
ENDBRANCH   2   4
BRANCH   3  18
HETATM   18  C16 UNL     1      -0.201   6.626  19.408  1.00  0.00     0.032 C
BRANCH  18  19
HETATM   19  C17 UNL     1       0.615   5.627  20.129  1.00  0.00     0.037 C
BRANCH  19  20
HETATM   20  C18 UNL     1       0.272   4.207  19.897  1.00  0.00    -0.081 C
HETATM   21  C19 UNL     1       0.221   3.372  21.172  1.00  0.00     0.043 C
BRANCH  20  22
HETATM   22  C20 UNL     1       0.134   3.659  18.751  1.00  0.00     0.040 C
BRANCH  22  23
HETATM   23  C21 UNL     1      -0.666   3.741  17.595  1.00  0.00     0.076 C
BRANCH  23  24
HETATM   24  O1  UNL     1       0.060   3.417  16.468  1.00  0.00    -0.360 OA
ATOM     25  H1  UNL     1      -0.264   3.886  15.709  1.00  0.00     0.217 HD
ENDBRANCH  23  24
BRANCH  23  26
HETATM   26  C22 UNL     1      -2.005   4.065  17.292  1.00  0.00    -0.003 A
HETATM   27  C23 UNL     1      -2.502   4.543  16.127  1.00  0.00     0.014 A
HETATM   28  C24 UNL     1      -3.839   4.913  15.983  1.00  0.00     0.001 A
HETATM   29  C25 UNL     1      -4.731   4.806  17.027  1.00  0.00     0.000 A
HETATM   30  C26 UNL     1      -4.266   4.326  18.212  1.00  0.00     0.001 A
HETATM   31  C27 UNL     1      -2.953   3.966  18.351  1.00  0.00     0.014 A
ENDBRANCH  23  26
ENDBRANCH  22  23
ENDBRANCH  20  22
ENDBRANCH  19  20
ENDBRANCH  18  19
ENDBRANCH   3  18
TORSDOF 10
ENDMDL