MODEL 4
REMARK VINA RESULT: -11.146609353      0.871      3.533
REMARK  8 active torsions:
REMARK  status: ('A' for Active; 'I' for Inactive)
REMARK    1  A    between atoms: C2_2  and  C3_3
REMARK    2  A    between atoms: C3_3  and  C4_4
REMARK    3  A    between atoms: C7_7  and  N1_8
REMARK    4  A    between atoms: N1_8  and  C8_10
REMARK    5  A    between atoms: C8_10  and  C9_11
REMARK    6  A    between atoms: C12_14  and  C13_15
REMARK    7  A    between atoms: C13_15  and  C14_16
REMARK    8  A    between atoms: C13_15  and  C20_22
ROOT
HETATM    1  C9  UNL     1      -3.021  10.249  18.240  1.00  0.00    -0.041 A
HETATM    2  C10 UNL     1      -2.925  10.051  19.604  1.00  0.00     0.009 A
HETATM    3  C11 UNL     1      -2.981   8.791  20.182  1.00  0.00     0.009 A
HETATM    4  C12 UNL     1      -3.139   7.659  19.382  1.00  0.00    -0.045 A
HETATM    5  C26 UNL     1      -3.234   7.858  18.018  1.00  0.00     0.009 A
HETATM    6  C27 UNL     1      -3.176   9.112  17.468  1.00  0.00     0.009 A
ENDROOT
BRANCH   4   7
HETATM    7  C13 UNL     1      -3.197   6.357  20.049  1.00  0.00     0.084 C
BRANCH   7   8
HETATM    8  C14 UNL     1      -4.079   5.369  19.402  1.00  0.00    -0.045 A
HETATM    9  C15 UNL     1      -3.514   4.384  18.622  1.00  0.00     0.008 A
HETATM   10  C16 UNL     1      -4.374   3.465  18.012  1.00  0.00     0.001 A
HETATM   11  C17 UNL     1      -5.737   3.550  18.191  1.00  0.00     0.000 A
HETATM   12  C18 UNL     1      -6.255   4.552  18.979  1.00  0.00     0.001 A
HETATM   13  C19 UNL     1      -5.447   5.479  19.600  1.00  0.00     0.008 A
ENDBRANCH   7   8
BRANCH   7  14
HETATM   14  C20 UNL     1      -1.811   5.826  20.234  1.00  0.00    -0.045 A
HETATM   15  C21 UNL     1      -1.547   4.927  21.270  1.00  0.00     0.008 A
HETATM   16  C22 UNL     1      -0.275   4.436  21.443  1.00  0.00     0.001 A
HETATM   17  C23 UNL     1       0.779   4.794  20.630  1.00  0.00     0.000 A
HETATM   18  C24 UNL     1       0.495   5.686  19.611  1.00  0.00     0.001 A
HETATM   19  C25 UNL     1      -0.780   6.184  19.428  1.00  0.00     0.008 A
ENDBRANCH   7  14
ENDBRANCH   4   7
BRANCH   1  20
HETATM   20  C8  UNL     1      -2.966  11.595  17.619  1.00  0.00     0.158 C
BRANCH  20  21
HETATM   21  N1  UNL     1      -2.751  12.613  18.631  1.00  0.00    -0.386 N
ATOM     22  H1  UNL     1      -2.426  12.320  19.553  1.00  0.00     0.160 HD
BRANCH  21  23
HETATM   23  C7  UNL     1      -2.967  13.980  18.405  1.00  0.00     0.028 A
HETATM   24  C6  UNL     1      -4.057  14.389  17.665  1.00  0.00     0.029 A
HETATM   25  C5  UNL     1      -4.264  15.734  17.444  1.00  0.00     0.009 A
HETATM   26  C4  UNL     1      -3.397  16.708  17.951  1.00  0.00    -0.058 A
HETATM   27  C29 UNL     1      -2.317  16.282  18.686  1.00  0.00     0.009 A
HETATM   28  C28 UNL     1      -2.103  14.924  18.911  1.00  0.00     0.029 A
BRANCH  26  29
HETATM   29  C3  UNL     1      -3.664  18.138  17.687  1.00  0.00     0.038 C
BRANCH  29  30
HETATM   30  C2  UNL     1      -4.834  18.354  16.749  1.00  0.00     0.000 C
HETATM   31  C1  UNL     1      -4.496  19.492  15.787  1.00  0.00     0.005 C
ENDBRANCH  29  30
ENDBRANCH  26  29
ENDBRANCH  21  23
ENDBRANCH  20  21
ENDBRANCH   1  20
TORSDOF 8
ENDMDL