MODEL 3
REMARK VINA RESULT: -10.425470718      3.214      9.663
REMARK  9 active torsions:
REMARK  status: ('A' for Active; 'I' for Inactive)
REMARK    1  A    between atoms: C2_2  and  C3_3
REMARK    2  A    between atoms: C3_3  and  C4_4
REMARK    3  A    between atoms: C4_4  and  C5_5
REMARK    4  A    between atoms: C5_5  and  C6_6
REMARK    5  A    between atoms: C7_7  and  C9_9
REMARK    6  A    between atoms: C10_10  and  N1_11
REMARK    7  A    between atoms: C19_20  and  C20_21
REMARK    8  A    between atoms: C21_22  and  C22_23
REMARK    9  A    between atoms: C22_23  and  C24_25
ROOT
HETATM    1  C4  UNL     1      -3.981  10.468  20.379  1.00  0.00     0.011 C
ENDROOT
BRANCH   1   2
HETATM    2  C3  UNL     1      -4.366   9.244  21.586  1.00  0.00    -0.037 C
HETATM    3  C19 UNL     1      -3.652   8.458  20.951  1.00  0.00     0.011 C
BRANCH   2   4
HETATM    4  C2  UNL     1      -5.159  10.119  22.292  1.00  0.00     0.001 C
HETATM    5  C1  UNL     1      -5.405   9.793  23.611  1.00  0.00     0.012 C
ENDBRANCH   2   4
BRANCH   3   6
HETATM    6  C20 UNL     1      -2.426   8.477  20.227  1.00  0.00    -0.002 C
HETATM    7  C21 UNL     1      -1.884   7.449  19.606  1.00  0.00    -0.018 C
BRANCH   7   8
HETATM    8  C22 UNL     1      -2.405   6.085  19.520  1.00  0.00     0.037 C
HETATM    9  C23 UNL     1      -2.502   5.765  18.005  1.00  0.00     0.019 C
BRANCH   8  10
HETATM   10  C24 UNL     1      -1.412   5.145  20.142  1.00  0.00    -0.051 A
HETATM   11  C25 UNL     1      -0.041   5.356  19.890  1.00  0.00     0.008 A
HETATM   12  C26 UNL     1       0.881   4.494  20.453  1.00  0.00     0.001 A
HETATM   13  C27 UNL     1       0.511   3.427  21.260  1.00  0.00     0.000 A
HETATM   14  C28 UNL     1      -0.824   3.239  21.494  1.00  0.00     0.001 A
HETATM   15  C29 UNL     1      -1.752   4.090  20.937  1.00  0.00     0.008 A
ENDBRANCH   8  10
ENDBRANCH   7   8
ENDBRANCH   3   6
ENDBRANCH   1   2
BRANCH   1  16
HETATM   16  C5  UNL     1      -4.826  10.745  19.532  1.00  0.00     0.001 C
BRANCH  16  17
HETATM   17  C6  UNL     1      -4.472  10.452  18.108  1.00  0.00     0.007 C
HETATM   18  C7  UNL     1      -3.834  11.237  17.362  1.00  0.00    -0.061 C
HETATM   19  C8  UNL     1      -3.564  10.774  15.943  1.00  0.00     0.048 C
BRANCH  18  20
HETATM   20  C9  UNL     1      -3.342  12.546  17.712  1.00  0.00     0.024 C
HETATM   21  C10 UNL     1      -4.012  13.658  17.516  1.00  0.00     0.097 C
BRANCH  21  22
HETATM   22  N1  UNL     1      -3.462  14.906  17.887  1.00  0.00    -0.332 N
HETATM   23  C11 UNL     1      -2.360  15.154  18.647  1.00  0.00     0.097 A
HETATM   24  C12 UNL     1      -2.173  16.510  18.785  1.00  0.00     0.031 A
HETATM   25  C13 UNL     1      -3.192  17.114  18.087  1.00  0.00    -0.008 A
HETATM   26  C14 UNL     1      -3.501  18.441  17.889  1.00  0.00     0.014 A
HETATM   27  C18 UNL     1      -3.977  16.127  17.540  1.00  0.00     0.048 A
HETATM   28  C15 UNL     1      -4.599  18.836  17.140  1.00  0.00     0.001 A
HETATM   29  C16 UNL     1      -5.389  17.856  16.589  1.00  0.00     0.002 A
HETATM   30  C17 UNL     1      -5.079  16.502  16.786  1.00  0.00     0.031 A
ENDBRANCH  21  22
ENDBRANCH  18  20
ENDBRANCH  16  17
ENDBRANCH   1  16
TORSDOF 9
ENDMDL