MODEL 1
REMARK VINA RESULT: -10.115914226      0.000      0.000
REMARK  10 active torsions:
REMARK  status: ('A' for Active; 'I' for Inactive)
REMARK    1  A    between atoms: C2_2  and  C3_3
REMARK    2  A    between atoms: C2_2  and  C13_13
REMARK    3  A    between atoms: C3_3  and  C4_4
REMARK    4  A    between atoms: C4_4  and  C5_5
REMARK    5  A    between atoms: C6_6  and  C7_7
REMARK    6  A    between atoms: C13_13  and  C14_14
REMARK    7  A    between atoms: C14_14  and  C15_15
REMARK    8  A    between atoms: C15_15  and  N2_25
REMARK    9  A    between atoms: N1_16  and  C16_18
REMARK   10  A    between atoms: N2_25  and  C23_27
ROOT
HETATM    1  C15 UNL     1      -3.689   8.645  19.436  1.00  0.00     0.082 C
HETATM    2  N1  UNL     1      -3.577   7.391  19.732  1.00  0.00    -0.346 N
ATOM      3  H1  UNL     1      -4.304   6.972  20.313  1.00  0.00     0.167 HD
ENDROOT
BRANCH   1   4
HETATM    4  C14 UNL     1      -2.726   9.404  18.606  1.00  0.00     0.081 C
BRANCH   4   5
HETATM    5  C13 UNL     1      -3.313   9.716  17.227  1.00  0.00     0.045 C
BRANCH   5   6
HETATM    6  C2  UNL     1      -3.566  11.162  17.072  1.00  0.00    -0.060 C
HETATM    7  C1  UNL     1      -3.717  11.687  15.854  1.00  0.00     0.019 C
BRANCH   6   8
HETATM    8  C3  UNL     1      -3.664  12.047  18.204  1.00  0.00     0.061 C
BRANCH   8   9
HETATM    9  C4  UNL     1      -2.947  13.012  18.562  1.00  0.00    -0.128 C
BRANCH   9  10
HETATM   10  C5  UNL     1      -2.150  14.085  18.959  1.00  0.00     0.056 C
HETATM   11  C6  UNL     1      -2.254  15.351  18.718  1.00  0.00     0.019 C
BRANCH  11  12
HETATM   12  C7  UNL     1      -3.209  16.092  17.968  1.00  0.00    -0.036 A
HETATM   13  C8  UNL     1      -4.013  15.694  16.947  1.00  0.00     0.011 A
HETATM   14  C9  UNL     1      -4.864  16.539  16.233  1.00  0.00     0.001 A
HETATM   15  C10 UNL     1      -4.910  17.856  16.565  1.00  0.00     0.000 A
HETATM   16  C11 UNL     1      -4.125  18.327  17.586  1.00  0.00     0.001 A
HETATM   17  C12 UNL     1      -3.302  17.473  18.267  1.00  0.00     0.011 A
ENDBRANCH  11  12
ENDBRANCH   9  10
ENDBRANCH   8   9
ENDBRANCH   6   8
ENDBRANCH   5   6
ENDBRANCH   4   5
ENDBRANCH   1   4
BRANCH   1  18
HETATM   18  N2  UNL     1      -4.844   9.287  19.952  1.00  0.00    -0.346 N
ATOM     19  H2  UNL     1      -5.686   9.319  19.377  1.00  0.00     0.167 HD
BRANCH  18  20
HETATM   20  C23 UNL     1      -4.874   9.891  21.251  1.00  0.00     0.033 A
HETATM   21  C24 UNL     1      -5.267   9.180  22.363  1.00  0.00     0.029 A
HETATM   22  C25 UNL     1      -5.320   9.697  23.638  1.00  0.00     0.002 A
HETATM   23  C26 UNL     1      -4.950  11.029  23.807  1.00  0.00     0.000 A
HETATM   24  C27 UNL     1      -4.549  11.793  22.732  1.00  0.00     0.002 A
HETATM   25  C28 UNL     1      -4.519  11.202  21.469  1.00  0.00     0.029 A
ENDBRANCH  18  20
ENDBRANCH   1  18
BRANCH   2  26
HETATM   26  C16 UNL     1      -2.505   6.557  19.301  1.00  0.00     0.033 A
HETATM   27  C17 UNL     1      -2.538   5.851  18.141  1.00  0.00     0.029 A
HETATM   28  C18 UNL     1      -1.487   5.055  17.763  1.00  0.00     0.003 A
HETATM   29  C19 UNL     1      -0.371   4.964  18.568  1.00  0.00     0.007 A
HETATM   30  C20 UNL     1      -0.328   5.677  19.749  1.00  0.00    -0.060 A
HETATM   31  C21 UNL     1       0.851   5.605  20.642  1.00  0.00     0.048 C
HETATM   32  C22 UNL     1      -1.397   6.473  20.114  1.00  0.00     0.036 A
ENDBRANCH   2  26
TORSDOF 10
ENDMDL