MODEL 1
REMARK VINA RESULT: -11.624188072      0.000      0.000
REMARK  7 active torsions:
REMARK  status: ('A' for Active; 'I' for Inactive)
REMARK    1  A    between atoms: C2_2  and  C3_3
REMARK    2  A    between atoms: C7_7  and  C8_8
REMARK    3  A    between atoms: C13_13  and  C14_14
REMARK    4  A    between atoms: C14_14  and  C15_15
REMARK    5  A    between atoms: C20_20  and  O1_21
REMARK    6  A    between atoms: O1_21  and  C21_22
REMARK    7  A    between atoms: C21_22  and  C22_23
ROOT
HETATM    1  C3  UNL     1      -4.890  10.667  22.026  1.00  0.00     0.032 A
HETATM    2  C4  UNL     1      -4.806   9.305  21.866  1.00  0.00     0.043 A
HETATM    3  C5  UNL     1      -4.147   9.041  20.661  1.00  0.00    -0.004 A
HETATM    4  C6  UNL     1      -3.789   7.890  20.000  1.00  0.00     0.026 A
HETATM    5  C7  UNL     1      -3.121   7.924  18.777  1.00  0.00    -0.022 A
HETATM    6  C19 UNL     1      -2.834   9.160  18.259  1.00  0.00     0.051 A
HETATM    7  C20 UNL     1      -3.185  10.340  18.905  1.00  0.00     0.097 A
HETATM    8  C28 UNL     1      -3.855  10.273  20.130  1.00  0.00     0.076 A
HETATM    9  N1  UNL     1      -4.311  11.249  20.967  1.00  0.00    -0.353 N
ATOM     10  H1  UNL     1      -4.225  12.254  20.813  1.00  0.00     0.166 HD
ENDROOT
BRANCH   5  11
HETATM   11  C8  UNL     1      -2.684   6.732  18.067  1.00  0.00    -0.019 A
HETATM   12  C9  UNL     1      -3.364   6.422  16.867  1.00  0.00     0.013 A
HETATM   13  C10 UNL     1      -3.041   5.306  16.169  1.00  0.00     0.001 A
HETATM   14  C11 UNL     1      -2.046   4.485  16.643  1.00  0.00     0.001 A
HETATM   15  C12 UNL     1      -1.386   4.780  17.799  1.00  0.00     0.008 A
HETATM   16  C13 UNL     1      -1.706   5.919  18.525  1.00  0.00    -0.044 A
BRANCH  16  17
HETATM   17  C14 UNL     1      -0.938   6.220  19.741  1.00  0.00     0.066 C
BRANCH  17  18
HETATM   18  C15 UNL     1      -1.204   5.225  20.842  1.00  0.00    -0.020 C
HETATM   19  C16 UNL     1      -0.340   4.308  21.213  1.00  0.00    -0.091 C
HETATM   20  C17 UNL     1       0.984   4.218  20.531  1.00  0.00     0.042 C
HETATM   21  C18 UNL     1      -0.624   3.332  22.303  1.00  0.00     0.042 C
ENDBRANCH  17  18
ENDBRANCH  16  17
ENDBRANCH   5  11
BRANCH   7  22
HETATM   22  O1  UNL     1      -2.916  11.585  18.420  1.00  0.00    -0.344 OA
BRANCH  22  23
HETATM   23  C21 UNL     1      -3.749  12.457  17.732  1.00  0.00     0.214 C
BRANCH  23  24
HETATM   24  C22 UNL     1      -3.397  13.890  17.939  1.00  0.00    -0.034 A
HETATM   25  C23 UNL     1      -4.151  14.909  17.391  1.00  0.00     0.009 A
HETATM   26  C24 UNL     1      -3.845  16.243  17.581  1.00  0.00     0.001 A
HETATM   27  C25 UNL     1      -2.753  16.607  18.342  1.00  0.00     0.000 A
HETATM   28  C26 UNL     1      -1.997  15.585  18.892  1.00  0.00     0.001 A
HETATM   29  C27 UNL     1      -2.294  14.269  18.708  1.00  0.00     0.009 A
ENDBRANCH  23  24
ENDBRANCH  22  23
ENDBRANCH   7  22
BRANCH   1  30
HETATM   30  C2  UNL     1      -5.519  11.326  23.184  1.00  0.00     0.019 C
HETATM   31  C1  UNL     1      -5.153  11.066  24.415  1.00  0.00     0.013 C
ENDBRANCH   1  30
TORSDOF 7
ENDMDL