MODEL 1
REMARK VINA RESULT: -11.048244633      0.000      0.000
REMARK  6 active torsions:
REMARK  status: ('A' for Active; 'I' for Inactive)
REMARK    1  A    between atoms: C2_2  and  C3_3
REMARK    2  A    between atoms: C3_3  and  C4_4
REMARK    3  A    between atoms: C4_4  and  C5_5
REMARK    4  A    between atoms: C5_5  and  C6_6
REMARK    5  A    between atoms: C9_9  and  N1_10
REMARK       I    between atoms: N1_10  and  C10_12
REMARK    6  A    between atoms: C10_12  and  C11_14
ROOT
HETATM    1  C6  UNL     1      -3.897  12.815  18.044  1.00  0.00    -0.057 A
HETATM    2  C7  UNL     1      -3.071  12.014  17.300  1.00  0.00     0.009 A
HETATM    3  C8  UNL     1      -2.653  10.765  17.803  1.00  0.00     0.031 A
HETATM    4  C9  UNL     1      -3.081  10.362  19.043  1.00  0.00     0.046 A
HETATM    5  C21 UNL     1      -3.924  11.171  19.809  1.00  0.00     0.001 A
HETATM    6  C22 UNL     1      -4.428  10.741  21.092  1.00  0.00    -0.024 A
HETATM    7  C23 UNL     1      -4.173  11.577  22.188  1.00  0.00     0.012 A
HETATM    8  C24 UNL     1      -4.644  11.280  23.447  1.00  0.00     0.001 A
HETATM    9  C25 UNL     1      -5.383  10.150  23.671  1.00  0.00     0.000 A
HETATM   10  C26 UNL     1      -5.634   9.325  22.581  1.00  0.00     0.001 A
HETATM   11  C27 UNL     1      -5.173   9.605  21.325  1.00  0.00     0.012 A
HETATM   12  C28 UNL     1      -4.308  12.382  19.281  1.00  0.00     0.021 A
ENDROOT
BRANCH   4  13
HETATM   13  N1  UNL     1      -2.657   9.174  19.644  1.00  0.00    -0.322 N
HETATM   14  C10 UNL     1      -3.023   7.885  19.249  1.00  0.00     0.256 C
HETATM   15  O1  UNL     1      -3.788   7.639  18.309  1.00  0.00    -0.267 OA
ATOM     16  H1  UNL     1      -2.026   9.255  20.441  1.00  0.00     0.169 HD
BRANCH  14  17
HETATM   17  C11 UNL     1      -2.496   6.689  19.964  1.00  0.00     0.033 A
HETATM   18  C12 UNL     1      -3.252   5.972  20.853  1.00  0.00     0.018 A
HETATM   19  C13 UNL     1      -2.695   4.850  21.485  1.00  0.00     0.013 A
HETATM   20  C14 UNL     1      -1.403   4.444  21.237  1.00  0.00    -0.026 A
HETATM   21  C15 UNL     1      -0.839   3.338  21.852  1.00  0.00     0.012 A
HETATM   22  C19 UNL     1      -0.652   5.172  20.341  1.00  0.00    -0.025 A
HETATM   23  C16 UNL     1       0.461   2.931  21.601  1.00  0.00     0.001 A
HETATM   24  C17 UNL     1       1.210   3.670  20.698  1.00  0.00     0.001 A
HETATM   25  C18 UNL     1       0.643   4.770  20.087  1.00  0.00     0.012 A
HETATM   26  C20 UNL     1      -1.222   6.275  19.730  1.00  0.00     0.029 A
ENDBRANCH  14  17
ENDBRANCH   4  13
BRANCH   1  27
HETATM   27  C5  UNL     1      -4.331  14.117  17.518  1.00  0.00     0.038 C
BRANCH  27  28
HETATM   28  C4  UNL     1      -3.452  15.258  18.012  1.00  0.00     0.005 C
BRANCH  28  29
HETATM   29  C3  UNL     1      -3.624  16.394  17.036  1.00  0.00    -0.000 C
BRANCH  29  30
HETATM   30  C2  UNL     1      -3.954  17.697  17.705  1.00  0.00    -0.005 C
HETATM   31  C1  UNL     1      -4.725  18.646  16.845  1.00  0.00     0.005 C
ENDBRANCH  29  30
ENDBRANCH  28  29
ENDBRANCH  27  28
ENDBRANCH   1  27
TORSDOF 6
ENDMDL