MODEL 4
REMARK VINA RESULT: -5.231208812      2.483      4.634
REMARK  2 active torsions:
REMARK  status: ('A' for Active; 'I' for Inactive)
REMARK    1  A    between atoms: N1_2  and  C2_5
REMARK    2  A    between atoms: C2_5  and  C3_6
ROOT
HETATM    1  C3  UNL     1      16.374  48.651  68.816  1.00  0.00     0.017 C
HETATM    2  C4  UNL     1      15.473  49.775  68.355  1.00  0.00     0.007 C
HETATM    3  C5  UNL     1      14.286  49.581  69.279  1.00  0.00     0.007 C
HETATM    4  C6  UNL     1      14.875  49.103  70.566  1.00  0.00     0.017 C
HETATM    5  C7  UNL     1      14.268  47.801  71.041  1.00  0.00     0.237 C
HETATM    6  N2  UNL     1      15.255  46.814  70.661  1.00  0.00    -0.074 N
ATOM      7  H21 UNL     1      15.198  46.496  69.693  1.00  0.00     0.277 HD
ATOM      8  H22 UNL     1      15.122  45.890  71.074  1.00  0.00     0.277 HD
HETATM    9  C8  UNL     1      16.508  47.481  71.023  1.00  0.00     0.237 C
HETATM   10  C9  UNL     1      16.341  48.804  70.298  1.00  0.00     0.022 C
ENDROOT
BRANCH   1  11
HETATM   11  C2  UNL     1      17.738  48.724  68.211  1.00  0.00     0.237 C
BRANCH  11  12
HETATM   12  N1  UNL     1      17.935  47.859  67.096  1.00  0.00    -0.079 N
HETATM   13  C1  UNL     1      17.126  46.654  67.337  1.00  0.00     0.267 C
ATOM     14  H12 UNL     1      18.917  47.653  66.919  1.00  0.00     0.276 HD
ATOM     15  H11 UNL     1      17.731  48.305  66.202  1.00  0.00     0.276 HD
ENDBRANCH  11  12
ENDBRANCH   1  11
TORSDOF 2
ENDMDL