MODEL 3
REMARK VINA RESULT: -4.631043849      2.053      3.429
REMARK  3 active torsions:
REMARK  status: ('A' for Active; 'I' for Inactive)
REMARK    1  A    between atoms: S1_2  and  C2_3
REMARK    2  A    between atoms: C2_3  and  C3_4
REMARK    3  A    between atoms: C3_4  and  N1_5
ROOT
HETATM    1  C3  UNL     1      16.365  48.308  70.494  1.00  0.00     0.135 C
HETATM    2  C4  UNL     1      15.806  49.397  69.624  1.00  0.00     0.067 C
HETATM    3  C5  UNL     1      14.337  49.220  69.325  1.00  0.00     0.235 C
HETATM    4  N2  UNL     1      13.695  48.863  70.594  1.00  0.00    -0.075 N
ATOM      5  H21 UNL     1      12.695  49.062  70.611  1.00  0.00     0.277 HD
ATOM      6  H22 UNL     1      13.959  49.474  71.367  1.00  0.00     0.277 HD
HETATM    7  C6  UNL     1      14.006  47.477  70.830  1.00  0.00     0.235 C
HETATM    8  C7  UNL     1      15.436  47.132  70.650  1.00  0.00     0.067 C
ENDROOT
BRANCH   1   9
HETATM    9  C2  UNL     1      17.635  47.753  69.887  1.00  0.00     0.112 C
BRANCH   9  10
HETATM   10  S1  UNL     1      17.391  46.389  68.771  1.00  0.00    -0.171 SA
HETATM   11  C1  UNL     1      16.826  46.889  67.155  1.00  0.00     0.089 C
ENDBRANCH   9  10
ENDBRANCH   1   9
BRANCH   1  12
HETATM   12  N1  UNL     1      16.605  48.886  71.794  1.00  0.00    -0.070 N
ATOM     13  H13 UNL     1      15.800  49.422  72.118  1.00  0.00     0.275 HD
ATOM     14  H12 UNL     1      16.622  48.171  72.522  1.00  0.00     0.275 HD
ATOM     15  H11 UNL     1      17.456  49.449  71.805  1.00  0.00     0.275 HD
ENDBRANCH   1  12
TORSDOF 3
ENDMDL