MODEL 2
REMARK VINA RESULT: -5.671384853      3.372      5.073
REMARK  2 active torsions:
REMARK  status: ('A' for Active; 'I' for Inactive)
REMARK    1  A    between atoms: C3_6  and  C4_7
REMARK    2  A    between atoms: C4_7  and  C5_8
ROOT
HETATM    1  C1  UNL     1      16.521  46.635  71.003  1.00  0.00     0.259 C
HETATM    2  C2  UNL     1      16.821  48.031  71.468  1.00  0.00     0.260 C
HETATM    3  N1  UNL     1      16.443  48.997  70.450  1.00  0.00    -0.068 N
ATOM      4  H11 UNL     1      16.920  48.844  69.561  1.00  0.00     0.277 HD
ATOM      5  H12 UNL     1      16.806  49.932  70.637  1.00  0.00     0.277 HD
HETATM    6  C3  UNL     1      15.018  48.968  70.328  1.00  0.00     0.211 C
HETATM    7  C9  UNL     1      14.462  47.580  70.184  1.00  0.00     0.265 C
HETATM    8  N2  UNL     1      15.493  46.576  70.004  1.00  0.00    -0.072 N
ATOM      9  H21 UNL     1      15.086  45.642  69.957  1.00  0.00     0.277 HD
ATOM     10  H22 UNL     1      15.894  46.633  69.067  1.00  0.00     0.277 HD
ENDROOT
BRANCH   6  11
HETATM   11  C4  UNL     1      14.465  49.817  69.230  1.00  0.00     0.041 C
BRANCH  11  12
HETATM   12  C5  UNL     1      15.550  50.437  68.360  1.00  0.00     0.013 C
HETATM   13  C6  UNL     1      15.201  51.887  68.096  1.00  0.00     0.033 C
HETATM   14  C7  UNL     1      15.418  52.054  66.606  1.00  0.00     0.168 C
HETATM   15  O1  UNL     1      16.123  50.930  66.231  1.00  0.00    -0.391 OA
HETATM   16  C8  UNL     1      15.559  49.864  66.968  1.00  0.00     0.172 C
ENDBRANCH  11  12
ENDBRANCH   6  11
TORSDOF 2
ENDMDL