MODEL 1
REMARK VINA RESULT: -5.093520994      0.000      0.000
REMARK  2 active torsions:
REMARK  status: ('A' for Active; 'I' for Inactive)
REMARK    1  A    between atoms: C3_3  and  C4_4
REMARK    2  A    between atoms: C6_7  and  O1_8
ROOT
HETATM    1  C1  UNL     1      15.363  52.290  68.147  1.00  0.00     0.015 C
HETATM    2  C2  UNL     1      15.348  51.097  68.315  1.00  0.00    -0.077 C
HETATM    3  C3  UNL     1      15.330  49.665  68.542  1.00  0.00     0.198 C
HETATM    4  C5  UNL     1      16.317  49.268  69.597  1.00  0.00     0.086 C
HETATM    5  C6  UNL     1      15.388  48.916  70.766  1.00  0.00     0.149 C
HETATM    6  C8  UNL     1      14.243  48.262  69.985  1.00  0.00     0.266 C
HETATM    7  N1  UNL     1      14.023  49.286  68.978  1.00  0.00    -0.052 N
ATOM      8  H11 UNL     1      13.404  48.995  68.221  1.00  0.00     0.279 HD
ATOM      9  H12 UNL     1      13.452  50.068  69.302  1.00  0.00     0.279 HD
ENDROOT
BRANCH   3  10
HETATM   10  C4  UNL     1      15.624  48.901  67.258  1.00  0.00     0.138 C
HETATM   11  S1  UNL     1      17.268  48.138  67.484  1.00  0.00    -0.094 SA
ENDBRANCH   3  10
BRANCH   5  12
HETATM   12  O1  UNL     1      15.969  48.066  71.663  1.00  0.00    -0.389 OA
HETATM   13  C7  UNL     1      16.184  46.834  71.002  1.00  0.00     0.202 C
ENDBRANCH   5  12
TORSDOF 2
ENDMDL