MODEL 4
REMARK VINA RESULT: -5.480356864      0.973      1.900
REMARK  2 active torsions:
REMARK  status: ('A' for Active; 'I' for Inactive)
REMARK    1  A    between atoms: C3_4  and  N1_5
REMARK    2  A    between atoms: N1_5  and  C4_8
ROOT
HETATM    1  C4  UNL     1      16.128  47.550  69.496  1.00  0.00     0.192 C
HETATM    2  C5  UNL     1      15.645  47.439  70.910  1.00  0.00     0.060 C
HETATM    3  C6  UNL     1      14.126  47.496  70.830  1.00  0.00     0.234 C
HETATM    4  N2  UNL     1      13.828  48.866  70.465  1.00  0.00    -0.075 N
ATOM      5  H21 UNL     1      14.246  49.524  71.124  1.00  0.00     0.277 HD
ATOM      6  H22 UNL     1      12.845  49.085  70.622  1.00  0.00     0.277 HD
HETATM    7  C7  UNL     1      14.218  49.161  69.115  1.00  0.00     0.234 C
HETATM    8  C8  UNL     1      15.508  48.607  68.672  1.00  0.00     0.060 C
ENDROOT
BRANCH   1   9
HETATM    9  N1  UNL     1      17.590  47.686  69.466  1.00  0.00    -0.044 N
ATOM     10  H12 UNL     1      17.975  47.803  70.404  1.00  0.00     0.280 HD
ATOM     11  H11 UNL     1      17.874  48.580  69.066  1.00  0.00     0.280 HD
BRANCH   9  12
HETATM   12  C3  UNL     1      18.208  46.576  68.775  1.00  0.00     0.321 C
HETATM   13  O1  UNL     1      19.425  46.346  69.380  1.00  0.00    -0.359 OA
HETATM   14  C2  UNL     1      20.241  45.711  68.484  1.00  0.00     0.170 C
HETATM   15  C1  UNL     1      19.714  45.949  67.107  1.00  0.00     0.030 C
HETATM   16  C9  UNL     1      18.567  46.907  67.350  1.00  0.00     0.063 C
ENDBRANCH   9  12
ENDBRANCH   1   9
TORSDOF 2
ENDMDL