MODEL 1
REMARK VINA RESULT: -5.573117202      0.000      0.000
REMARK  3 active torsions:
REMARK  status: ('A' for Active; 'I' for Inactive)
REMARK    1  A    between atoms: O1_2  and  C2_3
REMARK    2  A    between atoms: C7_8  and  N1_9
REMARK    3  A    between atoms: N1_9  and  N2_10
ROOT
HETATM    1  C2  UNL     1      15.623  50.504  68.057  1.00  0.00     0.058 C
HETATM    2  C3  UNL     1      15.007  51.652  67.280  1.00  0.00     0.046 C
HETATM    3  C4  UNL     1      15.717  49.337  67.061  1.00  0.00     0.038 C
HETATM    4  C5  UNL     1      16.203  48.084  67.732  1.00  0.00     0.004 C
HETATM    5  C6  UNL     1      15.705  47.955  69.151  1.00  0.00     0.023 C
HETATM    6  C7  UNL     1      14.373  48.670  69.225  1.00  0.00     0.101 C
HETATM    7  C8  UNL     1      14.692  50.167  69.180  1.00  0.00     0.060 C
ENDROOT
BRANCH   6   8
HETATM    8  N1  UNL     1      13.668  48.409  70.453  1.00  0.00    -0.143 NA
BRANCH   8   9
HETATM    9  N2  UNL     1      13.658  47.074  70.811  1.00  0.00    -0.348 N
ATOM     10  H22 UNL     1      13.722  46.323  70.123  1.00  0.00     0.172 HD
ATOM     11  H21 UNL     1      13.583  46.922  71.817  1.00  0.00     0.172 HD
ENDBRANCH   8   9
ENDBRANCH   6   8
BRANCH   1  12
HETATM   12  O1  UNL     1      16.916  50.758  68.442  1.00  0.00    -0.385 OA
HETATM   13  C1  UNL     1      17.618  51.596  67.611  1.00  0.00     0.202 C
ENDBRANCH   1  12
TORSDOF 3
ENDMDL