MODEL 5
REMARK VINA RESULT: -5.617276024      1.748      2.861
REMARK  5 active torsions:
REMARK  status: ('A' for Active; 'I' for Inactive)
REMARK    1  A    between atoms: C2_2  and  C3_3
REMARK    2  A    between atoms: C4_4  and  C5_5
REMARK    3  A    between atoms: C7_7  and  N1_8
REMARK    4  A    between atoms: C7_7  and  C8_12
REMARK    5  A    between atoms: C8_12  and  C10_15
ROOT
HETATM    1  C8  UNL     1      16.070  47.880  69.790  1.00  0.00     0.167 C
HETATM    2  C9  UNL     1      16.589  47.849  71.181  1.00  0.00     0.071 C
HETATM    3  N2  UNL     1      16.999  47.824  72.262  1.00  0.00    -0.196 NA
ENDROOT
BRANCH   1   4
HETATM    4  C7  UNL     1      17.073  47.265  68.887  1.00  0.00     0.159 A
HETATM    5  C5  UNL     1      17.490  47.778  67.597  1.00  0.00     0.105 A
HETATM    6  C6  UNL     1      16.538  46.568  67.664  1.00  0.00     0.061 A
BRANCH   5   7
HETATM    7  C4  UNL     1      16.990  49.021  67.017  1.00  0.00    -0.099 C
HETATM    8  C3  UNL     1      16.584  50.044  66.563  1.00  0.00    -0.106 C
BRANCH   8   9
HETATM    9  C2  UNL     1      16.059  51.302  65.995  1.00  0.00     0.089 C
HETATM   10  C1  UNL     1      15.154  51.926  67.040  1.00  0.00     0.018 C
ENDBRANCH   8   9
ENDBRANCH   5   7
BRANCH   4  11
HETATM   11  N1  UNL     1      18.075  46.455  69.608  1.00  0.00    -0.067 N
ATOM     12  H13 UNL     1      17.871  46.456  70.607  1.00  0.00     0.275 HD
ATOM     13  H12 UNL     1      17.940  45.467  69.396  1.00  0.00     0.275 HD
ATOM     14  H11 UNL     1      19.048  46.715  69.452  1.00  0.00     0.275 HD
ENDBRANCH   4  11
ENDBRANCH   1   4
BRANCH   1  15
HETATM   15  C10 UNL     1      14.741  47.290  69.812  1.00  0.00     0.074 C
HETATM   16  N3  UNL     1      14.090  47.176  70.897  1.00  0.00    -0.410 N
ATOM     17  H32 UNL     1      14.522  47.509  71.759  1.00  0.00     0.155 HD
ATOM     18  H31 UNL     1      13.157  46.763  70.913  1.00  0.00     0.155 HD
ENDBRANCH   1  15
TORSDOF 5
ENDMDL