MODEL 1
REMARK VINA RESULT: -5.826733814      0.000      0.000
REMARK  1 active torsions:
REMARK  status: ('A' for Active; 'I' for Inactive)
REMARK    1  A    between atoms: C2_2  and  C3_3
ROOT
HETATM    1  C3  UNL     1      14.645  49.150  68.983  1.00  0.00     0.125 C
HETATM    2  C4  UNL     1      16.088  48.712  69.146  1.00  0.00     0.104 C
HETATM    3  C5  UNL     1      15.894  47.313  69.673  1.00  0.00     0.310 C
HETATM    4  C6  UNL     1      14.578  47.395  70.357  1.00  0.00     0.238 C
HETATM    5  O1  UNL     1      14.084  48.691  70.174  1.00  0.00    -0.381 OA
HETATM    6  N1  UNL     1      15.953  46.398  68.577  1.00  0.00    -0.036 N
ATOM      7  H11 UNL     1      15.405  46.673  67.763  1.00  0.00     0.280 HD
ATOM      8  H12 UNL     1      15.469  45.514  68.733  1.00  0.00     0.280 HD
HETATM    9  C7  UNL     1      17.387  46.274  68.335  1.00  0.00     0.268 C
HETATM   10  C8  UNL     1      18.072  46.881  69.541  1.00  0.00     0.210 C
HETATM   11  C9  UNL     1      19.213  46.009  70.008  1.00  0.00     0.042 C
HETATM   12  N2  UNL     1      16.979  46.885  70.520  1.00  0.00    -0.033 N
ATOM     13  H21 UNL     1      16.831  46.013  71.028  1.00  0.00     0.280 HD
ATOM     14  H22 UNL     1      17.136  47.441  71.360  1.00  0.00     0.280 HD
ENDROOT
BRANCH   1  15
HETATM   15  C2  UNL     1      14.519  50.630  68.856  1.00  0.00     0.027 C
HETATM   16  C1  UNL     1      15.020  51.021  67.473  1.00  0.00     0.007 C
ENDBRANCH   1  15
TORSDOF 1
ENDMDL