MODEL 3
REMARK VINA RESULT: -5.187856078      1.883      3.808
REMARK  4 active torsions:
REMARK  status: ('A' for Active; 'I' for Inactive)
REMARK    1  A    between atoms: O1_2  and  C2_3
REMARK    2  A    between atoms: C2_3  and  C3_4
REMARK    3  A    between atoms: C8_10  and  C9_11
REMARK    4  A    between atoms: C9_11  and  N1_12
ROOT
HETATM    1  C3  UNL     1      16.018  47.691  69.646  1.00  0.00     0.044 C
HETATM    2  C4  UNL     1      16.544  46.855  68.532  1.00  0.00    -0.008 C
HETATM    3  C5  UNL     1      16.421  47.652  67.227  1.00  0.00     0.010 C
HETATM    4  C6  UNL     1      17.917  46.341  68.670  1.00  0.00     0.031 C
HETATM    5  C7  UNL     1      18.381  46.199  70.103  1.00  0.00     0.168 C
HETATM    6  O2  UNL     1      18.049  47.359  70.757  1.00  0.00    -0.384 OA
HETATM    7  C8  UNL     1      16.658  47.464  70.963  1.00  0.00     0.153 C
ENDROOT
BRANCH   7   8
HETATM    8  C9  UNL     1      16.533  48.616  71.925  1.00  0.00     0.261 C
BRANCH   8   9
HETATM    9  N1  UNL     1      17.639  48.679  72.849  1.00  0.00    -0.077 N
ATOM     10  H13 UNL     1      17.440  48.149  73.698  1.00  0.00     0.274 HD
ATOM     11  H12 UNL     1      18.437  48.143  72.507  1.00  0.00     0.274 HD
ATOM     12  H11 UNL     1      17.906  49.638  73.068  1.00  0.00     0.274 HD
ENDBRANCH   8   9
ENDBRANCH   7   8
BRANCH   1  13
HETATM   13  C2  UNL     1      14.518  47.533  69.642  1.00  0.00     0.174 C
BRANCH  13  14
HETATM   14  O1  UNL     1      13.826  48.674  69.932  1.00  0.00    -0.395 OA
HETATM   15  C1  UNL     1      14.339  49.701  69.141  1.00  0.00     0.201 C
ENDBRANCH  13  14
ENDBRANCH   1  13
TORSDOF 4
ENDMDL