MODEL 4
REMARK VINA RESULT: -7.112159170      2.469      6.371
REMARK  3 active torsions:
REMARK  status: ('A' for Active; 'I' for Inactive)
REMARK       I    between atoms: C1_2  and  N2_4
REMARK    1  A    between atoms: N2_4  and  N3_6
REMARK    2  A    between atoms: C2_8  and  C3_9
REMARK    3  A    between atoms: N6_19  and  O3_20
ROOT
HETATM    1  C3  UNL     1      12.264  21.357  13.355  1.00  0.00     0.081 A
HETATM    2  C4  UNL     1      13.519  21.681  12.846  1.00  0.00     0.090 A
HETATM    3  N4  UNL     1      14.282  22.723  13.203  1.00  0.00    -0.309 N
ATOM      4  H4  UNL     1      14.074  23.441  13.898  1.00  0.00     0.176 HD
HETATM    5  S1  UNL     1      15.680  22.579  12.236  1.00  0.00     0.068 SA
HETATM    6  N5  UNL     1      15.286  21.196  11.383  1.00  0.00    -0.306 N
ATOM      7  H5  UNL     1      15.842  20.723  10.670  1.00  0.00     0.176 HD
HETATM    8  C5  UNL     1      14.078  20.847  11.845  1.00  0.00     0.139 A
HETATM    9  C6  UNL     1      13.364  19.733  11.400  1.00  0.00     0.304 A
HETATM   10  O2  UNL     1      13.834  18.956  10.498  1.00  0.00    -0.263 OA
HETATM   11  N6  UNL     1      12.160  19.426  11.893  1.00  0.00    -0.146 N
HETATM   12  C7  UNL     1      11.643  20.215  12.832  1.00  0.00     0.288 A
HETATM   13  O4  UNL     1      10.486  19.906  13.294  1.00  0.00    -0.265 OA
ENDROOT
BRANCH   1  14
HETATM   14  C2  UNL     1      11.572  22.125  14.384  1.00  0.00     0.126 C
HETATM   15  N3  UNL     1      10.711  23.020  14.214  1.00  0.00    -0.307 N
ATOM     16  H3  UNL     1      10.457  23.247  13.252  1.00  0.00     0.186 HD
BRANCH  15  17
HETATM   17  N2  UNL     1      10.081  23.723  15.212  1.00  0.00    -0.254 N
HETATM   18  C1  UNL     1       8.809  24.337  15.077  1.00  0.00     0.347 C
HETATM   19  N1  UNL     1       8.246  25.041  16.173  1.00  0.00    -0.038 NA
HETATM   20  O1  UNL     1       8.143  24.289  14.018  1.00  0.00    -0.249 OA
ATOM     21  H2  UNL     1      10.558  23.809  16.109  1.00  0.00     0.191 HD
ENDBRANCH  15  17
ENDBRANCH   1  14
BRANCH  11  22
HETATM   22  O3  UNL     1      11.465  18.314  11.437  1.00  0.00    -0.277 OA
ATOM     23  H3  UNL     1      10.615  18.090  11.794  1.00  0.00     0.245 HD
ENDBRANCH  11  22
TORSDOF 3
ENDMDL