MODEL 3
REMARK VINA RESULT: -6.558688485      1.495      4.805
REMARK  5 active torsions:
REMARK  status: ('A' for Active; 'I' for Inactive)
REMARK    1  A    between atoms: C1_2  and  O2_4
REMARK    2  A    between atoms: O2_4  and  C2_5
REMARK       I    between atoms: C2_5  and  N2_7
REMARK    3  A    between atoms: C3_8  and  O4_9
REMARK    4  A    between atoms: C5_13  and  N4_14
REMARK    5  A    between atoms: C6_17  and  C7_18
ROOT
HETATM    1  C2  UNL     1      16.289  21.020  12.080  1.00  0.00     0.382 C
HETATM    2  O3  UNL     1      15.846  22.034  12.755  1.00  0.00    -0.237 OA
HETATM    3  N2  UNL     1      17.361  20.287  12.653  1.00  0.00    -0.228 N
HETATM    4  C3  UNL     1      17.934  20.589  13.871  1.00  0.00     0.179 A
HETATM    5  C4  UNL     1      18.928  19.723  14.164  1.00  0.00     0.133 A
HETATM    6  N3  UNL     1      19.785  19.648  15.297  1.00  0.00    -0.095 NA
HETATM    7  C5  UNL     1      18.986  18.846  13.105  1.00  0.00     0.163 A
HETATM    8  C6  UNL     1      17.997  19.220  12.172  1.00  0.00     0.146 A
ENDROOT
BRANCH   1   9
HETATM    9  O2  UNL     1      15.651  20.812  10.907  1.00  0.00    -0.211 OA
BRANCH   9  10
HETATM   10  C1  UNL     1      14.534  20.010  10.731  1.00  0.00     0.381 C
HETATM   11  N1  UNL     1      14.374  19.162   9.613  1.00  0.00    -0.032 NA
HETATM   12  O1  UNL     1      13.655  20.089  11.651  1.00  0.00    -0.242 OA
ENDBRANCH   9  10
ENDBRANCH   1   9
BRANCH   4  13
HETATM   13  O4  UNL     1      17.546  21.631  14.674  1.00  0.00    -0.344 OA
ATOM     14  H4  UNL     1      17.760  22.542  14.512  1.00  0.00     0.219 HD
ENDBRANCH   4  13
BRANCH   8  15
HETATM   15  C7  UNL     1      17.790  18.502  10.928  1.00  0.00     0.284 C
HETATM   16  N5  UNL     1      18.241  19.075   9.675  1.00  0.00    -0.056 NA
HETATM   17  O7  UNL     1      17.245  17.391  10.784  1.00  0.00    -0.269 OA
ENDBRANCH   8  15
BRANCH   7  18
HETATM   18  N4  UNL     1      19.908  17.772  12.993  1.00  0.00    -0.111 N
HETATM   19  O5  UNL     1      19.752  16.687  13.620  1.00  0.00    -0.532 OA
HETATM   20  O6  UNL     1      21.040  17.830  12.204  1.00  0.00    -0.532 OA
ENDBRANCH   7  18
TORSDOF 5
ENDMDL