MODEL 4
REMARK VINA RESULT: -7.292325997      1.846      2.669
REMARK  4 active torsions:
REMARK  status: ('A' for Active; 'I' for Inactive)
REMARK    1  A    between atoms: N1_1  and  C1_4
REMARK    2  A    between atoms: C2_9  and  C3_10
REMARK    3  A    between atoms: C5_15  and  C6_16
REMARK    4  A    between atoms: N6_17  and  O1_19
ROOT
HETATM    1  C3  UNL     1      14.962  20.991  11.787  1.00  0.00     0.115 A
HETATM    2  N4  UNL     1      14.022  21.550  12.630  1.00  0.00    -0.284 N
ATOM      3  H4  UNL     1      14.159  22.390  13.193  1.00  0.00     0.188 HD
HETATM    4  N5  UNL     1      12.923  20.831  12.591  1.00  0.00    -0.198 N
HETATM    5  C4  UNL     1      13.073  19.798  11.753  1.00  0.00     0.143 A
HETATM    6  C5  UNL     1      14.386  19.884  11.223  1.00  0.00     0.048 A
HETATM    7  C7  UNL     1      11.848  19.005  11.718  1.00  0.00     0.279 A
HETATM    8  O2  UNL     1      11.616  17.962  11.047  1.00  0.00    -0.265 OA
HETATM    9  N7  UNL     1      10.964  19.675  12.619  1.00  0.00    -0.272 N
ATOM     10  H7  UNL     1      10.011  19.382  12.834  1.00  0.00     0.174 HD
HETATM   11  C8  UNL     1      11.617  20.811  13.169  1.00  0.00     0.349 A
HETATM   12  O3  UNL     1      11.128  21.635  14.004  1.00  0.00    -0.245 OA
ENDROOT
BRANCH   1  13
HETATM   13  C2  UNL     1      16.292  21.530  11.584  1.00  0.00     0.195 A
HETATM   14  N3  UNL     1      16.546  22.881  11.649  1.00  0.00    -0.275 N
HETATM   15  N2  UNL     1      17.815  23.115  11.434  1.00  0.00    -0.263 N
ATOM     16  H3  UNL     1      15.845  23.598  11.838  1.00  0.00     0.189 HD
HETATM   17  C1  UNL     1      18.391  21.909  11.226  1.00  0.00     0.238 A
ATOM     18  H2  UNL     1      18.277  24.024  11.425  1.00  0.00     0.190 HD
HETATM   19  O4  UNL     1      17.456  21.028  11.327  1.00  0.00    -0.258 OA
BRANCH  17  20
HETATM   20  N1  UNL     1      19.640  21.718  10.979  1.00  0.00    -0.364 N
ATOM     21  H12 UNL     1      20.361  22.417  10.803  1.00  0.00     0.159 HD
ATOM     22  H11 UNL     1      20.094  20.806  10.922  1.00  0.00     0.159 HD
ENDBRANCH  17  20
ENDBRANCH   1  13
BRANCH   6  23
HETATM   23  C6  UNL     1      14.943  18.948  10.272  1.00  0.00     0.130 C
HETATM   24  N6  UNL     1      15.558  19.185   9.191  1.00  0.00    -0.280 N
ATOM     25  H6  UNL     1      15.696  20.160   8.924  1.00  0.00     0.193 HD
BRANCH  24  26
HETATM   26  O1  UNL     1      16.049  18.217   8.356  1.00  0.00    -0.290 OA
ATOM     27  H1  UNL     1      16.507  18.395   7.543  1.00  0.00     0.244 HD
ENDBRANCH  24  26
ENDBRANCH   6  23
TORSDOF 4
ENDMDL