MODEL 1
REMARK VINA RESULT: -8.221346821      0.000      0.000
REMARK  5 active torsions:
REMARK  status: ('A' for Active; 'I' for Inactive)
REMARK    1  A    between atoms: O1_2  and  C2_3
REMARK    2  A    between atoms: C2_3  and  C3_5
REMARK    3  A    between atoms: N3_9  and  C4_10
REMARK    4  A    between atoms: C5_13  and  N5_14
REMARK    5  A    between atoms: C6_19  and  N7_20
ROOT
HETATM    1  C4  UNL     1      13.652  20.556  11.923  1.00  0.00     0.183 A
HETATM    2  N4  UNL     1      13.881  21.668  12.645  1.00  0.00    -0.172 N
ATOM      3  H4  UNL     1      14.777  22.140  12.521  1.00  0.00     0.186 HD
HETATM    4  C5  UNL     1      13.007  22.196  13.519  1.00  0.00     0.679 A
HETATM    5  N6  UNL     1      11.838  21.593  13.692  1.00  0.00    -0.176 N
ATOM      6  H6  UNL     1      11.159  21.974  14.351  1.00  0.00     0.186 HD
HETATM    7  C6  UNL     1      11.550  20.473  12.995  1.00  0.00     0.139 A
HETATM    8  C7  UNL     1      12.433  19.920  12.095  1.00  0.00     0.136 A
HETATM    9  C8  UNL     1      12.172  18.733  11.333  1.00  0.00     0.107 C
HETATM   10  N8  UNL     1      11.943  17.768  10.725  1.00  0.00    -0.191 NA
ENDROOT
BRANCH   1  11
HETATM   11  N3  UNL     1      14.631  20.062  11.015  1.00  0.00    -0.159 N
HETATM   12  N2  UNL     1      14.475  20.077   9.704  1.00  0.00     0.004 NA
HETATM   13  N1  UNL     1      15.533  19.558   9.105  1.00  0.00    -0.261 N
HETATM   14  C3  UNL     1      16.397  19.198  10.055  1.00  0.00     0.211 A
ATOM     15  H1  UNL     1      15.664  19.452   8.099  1.00  0.00     0.186 HD
HETATM   16  N9  UNL     1      15.811  19.522  11.232  1.00  0.00    -0.258 N
ATOM     17  H9  UNL     1      16.224  19.371  12.152  1.00  0.00     0.190 HD
BRANCH  14  18
HETATM   18  C2  UNL     1      17.685  18.590   9.829  1.00  0.00     0.329 C
HETATM   19  O2  UNL     1      18.217  18.570   8.685  1.00  0.00    -0.256 OA
BRANCH  18  20
HETATM   20  O1  UNL     1      18.391  18.001  10.862  1.00  0.00    -0.320 OA
HETATM   21  C1  UNL     1      19.162  18.766  11.769  1.00  0.00     0.213 C
ENDBRANCH  18  20
ENDBRANCH  14  18
ENDBRANCH   1  11
BRANCH   7  22
HETATM   22  N7  UNL     1      10.416  19.887  13.162  1.00  0.00    -0.384 N
ATOM     23  H72 UNL     1       9.570  20.446  13.051  1.00  0.00     0.157 HD
ATOM     24  H71 UNL     1      10.385  18.895  13.397  1.00  0.00     0.157 HD
ENDBRANCH   7  22
BRANCH   4  25
HETATM   25  N5  UNL     1      13.287  23.279  14.194  1.00  0.00    -0.234 N
ATOM     26  H52 UNL     1      13.910  23.228  15.000  1.00  0.00     0.174 HD
ATOM     27  H51 UNL     1      12.895  24.184  13.934  1.00  0.00     0.174 HD
ENDBRANCH   4  25
TORSDOF 5
ENDMDL