MODEL 3
REMARK VINA RESULT: -6.728621733      5.441      6.463
REMARK  5 active torsions:
REMARK  status: ('A' for Active; 'I' for Inactive)
REMARK    1  A    between atoms: O1_2  and  C2_3
REMARK    2  A    between atoms: C2_3  and  O2_4
REMARK    3  A    between atoms: C2_3  and  C3_6
REMARK    4  A    between atoms: C7_14  and  N2_15
REMARK    5  A    between atoms: N2_15  and  O5_17
ROOT
HETATM    1  C3  UNL     1      18.863  20.145  15.860  1.00  0.00     0.142 A
HETATM    2  N1  UNL     1      19.735  19.265  15.350  1.00  0.00    -0.308 N
ATOM      3  H1  UNL     1      20.458  18.875  15.955  1.00  0.00     0.170 HD
HETATM    4  C4  UNL     1      19.682  18.876  14.050  1.00  0.00     0.265 A
HETATM    5  O3  UNL     1      20.507  18.043  13.570  1.00  0.00    -0.267 OA
HETATM    6  C5  UNL     1      18.705  19.400  13.232  1.00  0.00     0.131 A
HETATM    7  C6  UNL     1      18.589  19.053  11.903  1.00  0.00     0.238 A
HETATM    8  O4  UNL     1      19.384  18.230  11.381  1.00  0.00    -0.283 OA
HETATM    9  C7  UNL     1      17.596  19.594  11.097  1.00  0.00     0.194 A
HETATM   10  N3  UNL     1      16.779  20.464  11.705  1.00  0.00    -0.279 N
ATOM     11  H3  UNL     1      16.036  20.886  11.148  1.00  0.00     0.189 HD
HETATM   12  N4  UNL     1      16.869  20.813  12.976  1.00  0.00    -0.283 N
ATOM     13  H4  UNL     1      16.201  21.483  13.357  1.00  0.00     0.188 HD
HETATM   14  C9  UNL     1      17.819  20.306  13.781  1.00  0.00     0.141 A
HETATM   15  N5  UNL     1      17.900  20.673  15.086  1.00  0.00    -0.326 N
ATOM     16  H5  UNL     1      17.237  21.343  15.474  1.00  0.00     0.169 HD
ENDROOT
BRANCH   1  17
HETATM   17  C2  UNL     1      18.996  20.514  17.292  1.00  0.00     0.325 C
BRANCH  17  18
HETATM   18  O1  UNL     1      17.984  21.384  17.697  1.00  0.00    -0.359 OA
HETATM   19  C1  UNL     1      18.475  22.481  18.374  1.00  0.00     0.205 C
ENDBRANCH  17  18
BRANCH  17  20
HETATM   20  O2  UNL     1      20.200  21.230  17.432  1.00  0.00    -0.365 OA
ATOM     21  H2  UNL     1      20.863  20.585  17.647  1.00  0.00     0.213 HD
ENDBRANCH  17  20
ENDBRANCH   1  17
BRANCH   9  22
HETATM   22  N2  UNL     1      17.465  19.246   9.729  1.00  0.00    -0.244 N
HETATM   23  C8  UNL     1      16.219  18.691   9.251  1.00  0.00     0.187 C
BRANCH  22  24
HETATM   24  O5  UNL     1      18.460  19.409   8.839  1.00  0.00    -0.286 OA
ATOM     25  H5  UNL     1      18.669  20.251   8.451  1.00  0.00     0.244 HD
ENDBRANCH  22  24
ENDBRANCH   9  22
TORSDOF 5
ENDMDL