MODEL 3
REMARK VINA RESULT: -6.547282721      3.637      4.582
REMARK  5 active torsions:
REMARK  status: ('A' for Active; 'I' for Inactive)
REMARK    1  A    between atoms: C3_7  and  N3_8
REMARK    2  A    between atoms: C4_12  and  C5_13
REMARK    3  A    between atoms: C5_13  and  O2_14
REMARK    4  A    between atoms: C5_13  and  O3_16
REMARK    5  A    between atoms: C6_18  and  N5_19
ROOT
HETATM    1  C1  UNL     1      11.462  18.563  11.767  1.00  0.00     0.180 C
HETATM    2  N1  UNL     1      12.340  19.696  12.093  1.00  0.00    -0.135 N
HETATM    3  C2  UNL     1      11.906  20.676  12.868  1.00  0.00     0.354 A
HETATM    4  O1  UNL     1      10.723  20.624  13.327  1.00  0.00    -0.245 OA
HETATM    5  N2  UNL     1      12.721  21.700  13.155  1.00  0.00    -0.140 N
ATOM      6  H2  UNL     1      12.385  22.453  13.754  1.00  0.00     0.189 HD
HETATM    7  C3  UNL     1      13.991  21.754  12.663  1.00  0.00     0.701 A
HETATM    8  N4  UNL     1      14.454  20.771  11.872  1.00  0.00     0.028 N
HETATM    9  C4  UNL     1      15.647  20.541  11.248  1.00  0.00     0.157 A
HETATM   10  C6  UNL     1      15.496  19.338  10.591  1.00  0.00     0.217 A
HETATM   11  N6  UNL     1      14.233  18.885  10.829  1.00  0.00    -0.167 N
ATOM     12  H6  UNL     1      13.835  18.017  10.470  1.00  0.00     0.186 HD
HETATM   13  C7  UNL     1      13.602  19.764  11.612  1.00  0.00     0.711 A
ENDROOT
BRANCH   9  14
HETATM   14  C5  UNL     1      16.851  21.365  11.251  1.00  0.00     0.311 C
BRANCH  14  15
HETATM   15  O2  UNL     1      16.750  22.622  10.678  1.00  0.00    -0.366 OA
ATOM     16  H2  UNL     1      17.375  23.275  10.966  1.00  0.00     0.213 HD
ENDBRANCH  14  15
BRANCH  14  17
HETATM   17  O3  UNL     1      17.465  21.419  12.516  1.00  0.00    -0.366 OA
ATOM     18  H3  UNL     1      17.367  20.611  13.004  1.00  0.00     0.213 HD
ENDBRANCH  14  17
ENDBRANCH   9  14
BRANCH  10  19
HETATM   19  N5  UNL     1      16.459  18.638   9.784  1.00  0.00    -0.095 N
HETATM   20  O4  UNL     1      16.743  19.043   8.666  1.00  0.00    -0.530 OA
HETATM   21  O5  UNL     1      17.035  17.518  10.359  1.00  0.00    -0.530 OA
ENDBRANCH  10  19
BRANCH   7  22
HETATM   22  N3  UNL     1      14.721  22.737  12.987  1.00  0.00    -0.233 N
ATOM     23  H32 UNL     1      14.356  23.690  12.989  1.00  0.00     0.174 HD
ATOM     24  H31 UNL     1      15.695  22.558  13.232  1.00  0.00     0.174 HD
ENDBRANCH   7  22
TORSDOF 5
ENDMDL