MODEL 5
REMARK VINA RESULT: -6.331477426      1.286      3.239
REMARK  6 active torsions:
REMARK  status: ('A' for Active; 'I' for Inactive)
REMARK    1  A    between atoms: O1_2  and  C2_3
REMARK    2  A    between atoms: C2_3  and  C3_5
REMARK    3  A    between atoms: C3_5  and  N1_7
REMARK    4  A    between atoms: C5_8  and  N2_9
REMARK    5  A    between atoms: N3_12  and  N4_13
REMARK    6  A    between atoms: C8_19  and  O4_20
ROOT
HETATM    1  N1  UNL     1      14.633  20.154  11.255  1.00  0.00    -0.150 N
HETATM    2  C5  UNL     1      14.964  21.292  11.876  1.00  0.00     0.704 A
HETATM    3  N3  UNL     1      14.164  21.956  12.722  1.00  0.00    -0.053 N
HETATM    4  C6  UNL     1      12.939  21.467  12.980  1.00  0.00     0.300 A
HETATM    5  O3  UNL     1      12.141  22.060  13.776  1.00  0.00    -0.264 OA
HETATM    6  C7  UNL     1      12.556  20.288  12.356  1.00  0.00     0.132 A
HETATM    7  C8  UNL     1      11.395  19.523  12.394  1.00  0.00     0.174 A
HETATM    8  N5  UNL     1      11.599  18.478  11.577  1.00  0.00    -0.278 N
ATOM      9  H5  UNL     1      10.911  17.744  11.407  1.00  0.00     0.189 HD
HETATM   10  N6  UNL     1      12.787  18.509  11.020  1.00  0.00    -0.282 N
ATOM     11  H6  UNL     1      13.174  17.829  10.365  1.00  0.00     0.188 HD
HETATM   12  C9  UNL     1      13.400  19.625  11.490  1.00  0.00     0.159 A
ENDROOT
BRANCH   1  13
HETATM   13  C3  UNL     1      15.555  19.527  10.375  1.00  0.00     0.205 C
HETATM   14  C4  UNL     1      16.157  20.525   9.451  1.00  0.00     0.044 C
BRANCH  13  15
HETATM   15  C2  UNL     1      16.578  18.704  11.048  1.00  0.00     0.282 C
HETATM   16  O2  UNL     1      16.838  17.575  10.552  1.00  0.00    -0.263 OA
BRANCH  15  17
HETATM   17  O1  UNL     1      17.263  19.081  12.171  1.00  0.00    -0.325 OA
HETATM   18  C1  UNL     1      18.644  18.801  12.287  1.00  0.00     0.213 C
ENDBRANCH  15  17
ENDBRANCH  13  15
ENDBRANCH   1  13
BRANCH   2  19
HETATM   19  N2  UNL     1      16.143  21.833  11.676  1.00  0.00    -0.232 N
ATOM     20  H22 UNL     1      16.425  21.918  10.699  1.00  0.00     0.174 HD
ATOM     21  H21 UNL     1      16.708  22.136  12.469  1.00  0.00     0.174 HD
ENDBRANCH   2  19
BRANCH   3  22
HETATM   22  N4  UNL     1      14.562  23.156  13.354  1.00  0.00    -0.321 N
ATOM     23  H42 UNL     1      15.558  23.333  13.487  1.00  0.00     0.178 HD
ATOM     24  H41 UNL     1      13.889  23.849  13.681  1.00  0.00     0.178 HD
ENDBRANCH   3  22
BRANCH   7  25
HETATM   25  O4  UNL     1      10.268  19.810  13.138  1.00  0.00    -0.344 OA
ATOM     26  H4  UNL     1       9.957  19.310  13.884  1.00  0.00     0.219 HD
ENDBRANCH   7  25
TORSDOF 6
ENDMDL