MODEL 5
REMARK VINA RESULT: -6.686815210      2.432      4.074
REMARK  6 active torsions:
REMARK  status: ('A' for Active; 'I' for Inactive)
REMARK    1  A    between atoms: C2_2  and  C3_7
REMARK    2  A    between atoms: N1_3  and  O1_5
REMARK    3  A    between atoms: C4_8  and  O2_9
REMARK    4  A    between atoms: C7_14  and  S1_15
REMARK    5  A    between atoms: S1_15  and  N3_16
REMARK    6  A    between atoms: S1_15  and  N4_19
ROOT
HETATM    1  C3  UNL     1      18.391  19.317  13.149  1.00  0.00     0.091 A
HETATM    2  C4  UNL     1      18.375  20.373  14.031  1.00  0.00     0.107 A
HETATM    3  C5  UNL     1      17.362  21.324  14.012  1.00  0.00     0.117 A
HETATM    4  C6  UNL     1      17.414  22.409  14.958  1.00  0.00     0.105 C
HETATM    5  N2  UNL     1      17.484  23.287  15.734  1.00  0.00    -0.191 NA
HETATM    6  C7  UNL     1      16.331  21.240  13.099  1.00  0.00     0.155 A
HETATM    7  N5  UNL     1      16.364  20.204  12.247  1.00  0.00    -0.307 N
HETATM    8  C8  UNL     1      15.322  20.056  11.258  1.00  0.00     0.160 C
HETATM    9  C9  UNL     1      17.342  19.271  12.254  1.00  0.00     0.263 A
HETATM   10  O4  UNL     1      17.319  18.305  11.417  1.00  0.00    -0.267 OA
ENDROOT
BRANCH   2  11
HETATM   11  O2  UNL     1      19.388  20.490  14.958  1.00  0.00    -0.358 OA
ATOM     12  H2  UNL     1      19.191  20.363  15.878  1.00  0.00     0.217 HD
ENDBRANCH   2  11
BRANCH   6  13
HETATM   13  S1  UNL     1      15.068  22.398  13.062  1.00  0.00     0.148 S
HETATM   14  O3  UNL     1      13.770  21.768  12.567  1.00  0.00    -0.222 OA
BRANCH  13  15
HETATM   15  N3  UNL     1      14.670  22.945  14.484  1.00  0.00    -0.340 N
ATOM     16  H32 UNL     1      15.342  23.015  15.248  1.00  0.00     0.167 HD
ATOM     17  H31 UNL     1      13.690  23.217  14.559  1.00  0.00     0.167 HD
ENDBRANCH  13  15
BRANCH  13  18
HETATM   18  N4  UNL     1      15.385  23.752  12.060  1.00  0.00    -0.340 N
ATOM     19  H42 UNL     1      14.736  24.535  11.986  1.00  0.00     0.167 HD
ATOM     20  H41 UNL     1      16.270  23.699  11.555  1.00  0.00     0.167 HD
ENDBRANCH  13  18
ENDBRANCH   6  13
BRANCH   1  21
HETATM   21  C2  UNL     1      19.430  18.294  13.129  1.00  0.00     0.046 C
HETATM   22  C1  UNL     1      19.505  17.210  14.124  1.00  0.00     0.071 C
HETATM   23  N1  UNL     1      20.318  18.352  12.191  1.00  0.00    -0.273 N
ATOM     24  H1  UNL     1      20.257  19.106  11.507  1.00  0.00     0.194 HD
BRANCH  23  25
HETATM   25  O1  UNL     1      21.328  17.453  12.076  1.00  0.00    -0.290 OA
ATOM     26  H1  UNL     1      21.391  16.837  11.356  1.00  0.00     0.244 HD
ENDBRANCH  23  25
ENDBRANCH   1  21
TORSDOF 6
ENDMDL