MODEL 5
REMARK VINA RESULT: -6.321055858      2.172      3.633
REMARK  5 active torsions:
REMARK  status: ('A' for Active; 'I' for Inactive)
REMARK    1  A    between atoms: O1_2  and  C2_3
REMARK    2  A    between atoms: C2_3  and  C3_5
REMARK    3  A    between atoms: C4_6  and  C5_7
REMARK    4  A    between atoms: C8_19  and  N5_20
REMARK    5  A    between atoms: N6_23  and  N7_24
ROOT
HETATM    1  C3  UNL     1      15.461  20.238  11.426  1.00  0.00     0.171 A
HETATM    2  C4  UNL     1      14.109  20.085  11.337  1.00  0.00     0.146 A
HETATM    3  O3  UNL     1      13.911  19.374  10.211  1.00  0.00    -0.273 OA
HETATM    4  C8  UNL     1      15.048  19.106   9.643  1.00  0.00     0.244 A
HETATM    5  N6  UNL     1      16.057  19.618  10.353  1.00  0.00    -0.217 N
ENDROOT
BRANCH   2   6
HETATM    6  C5  UNL     1      13.063  20.555  12.220  1.00  0.00     0.131 A
HETATM    7  N1  UNL     1      12.913  21.635  12.983  1.00  0.00    -0.278 N
HETATM    8  N2  UNL     1      11.775  21.654  13.634  1.00  0.00    -0.237 N
ATOM      9  H1  UNL     1      13.613  22.373  13.054  1.00  0.00     0.189 HD
HETATM   10  C6  UNL     1      11.259  22.660  14.556  1.00  0.00     0.200 C
HETATM   11  N3  UNL     1      11.097  20.563  13.329  1.00  0.00    -0.268 N
HETATM   12  C7  UNL     1      11.873  19.851  12.446  1.00  0.00     0.146 A
ATOM     13  H3  UNL     1      10.176  20.300  13.680  1.00  0.00     0.190 HD
HETATM   14  N4  UNL     1      11.505  18.747  11.958  1.00  0.00    -0.382 N
ATOM     15  H42 UNL     1      12.082  18.219  11.303  1.00  0.00     0.157 HD
ATOM     16  H41 UNL     1      10.639  18.235  12.123  1.00  0.00     0.157 HD
ENDBRANCH   2   6
BRANCH   1  17
HETATM   17  C2  UNL     1      16.238  20.919  12.435  1.00  0.00     0.314 C
HETATM   18  O2  UNL     1      17.150  20.433  13.132  1.00  0.00    -0.257 OA
BRANCH  17  19
HETATM   19  O1  UNL     1      16.004  22.289  12.726  1.00  0.00    -0.321 OA
HETATM   20  C1  UNL     1      16.028  23.274  11.714  1.00  0.00     0.213 C
ENDBRANCH  17  19
ENDBRANCH   1  17
BRANCH   5  21
HETATM   21  N7  UNL     1      17.421  19.565  10.104  1.00  0.00    -0.335 N
ATOM     22  H72 UNL     1      17.941  19.893   9.291  1.00  0.00     0.177 HD
ATOM     23  H71 UNL     1      18.125  19.171  10.729  1.00  0.00     0.177 HD
ENDBRANCH   5  21
BRANCH   4  24
HETATM   24  N5  UNL     1      15.164  18.429   8.533  1.00  0.00    -0.363 N
ATOM     25  H52 UNL     1      15.068  18.809   7.592  1.00  0.00     0.159 HD
ATOM     26  H51 UNL     1      15.368  17.430   8.495  1.00  0.00     0.159 HD
ENDBRANCH   4  24
TORSDOF 5
ENDMDL