MODEL 2
REMARK VINA RESULT: -7.251516733      2.686      4.367
REMARK  2 active torsions:
REMARK  status: ('A' for Active; 'I' for Inactive)
REMARK    1  A    between atoms: C3_5  and  C4_6
REMARK    2  A    between atoms: C6_18  and  N6_19
ROOT
HETATM    1  C1  UNL     1      11.541  18.208  11.193  1.00  0.00     0.089 C
HETATM    2  C2  UNL     1      12.734  19.096  11.382  1.00  0.00     0.095 A
HETATM    3  N1  UNL     1      13.915  18.824  10.803  1.00  0.00    -0.330 N
ATOM      4  H1  UNL     1      13.989  17.989  10.221  1.00  0.00     0.168 HD
HETATM    5  C3  UNL     1      14.993  19.590  10.950  1.00  0.00     0.155 A
HETATM    6  N5  UNL     1      14.847  20.679  11.724  1.00  0.00    -0.174 N
ATOM      7  H5  UNL     1      15.653  21.289  11.860  1.00  0.00     0.186 HD
HETATM    8  C6  UNL     1      13.698  21.000  12.325  1.00  0.00     0.683 A
HETATM    9  N8  UNL     1      12.636  20.195  12.147  1.00  0.00    -0.181 N
ATOM     10  H8  UNL     1      11.749  20.421  12.596  1.00  0.00     0.185 HD
ENDROOT
BRANCH   5  11
HETATM   11  C4  UNL     1      16.296  19.300  10.318  1.00  0.00     0.146 A
HETATM   12  N2  UNL     1      16.488  19.339   8.981  1.00  0.00    -0.234 N
HETATM   13  O1  UNL     1      17.708  19.047   8.724  1.00  0.00    -0.155 OA
ATOM     14  H2  UNL     1      15.775  19.565   8.289  1.00  0.00     0.197 HD
HETATM   15  N3  UNL     1      18.351  18.812   9.812  1.00  0.00    -0.224 N
HETATM   16  C5  UNL     1      17.494  18.962  10.862  1.00  0.00     0.154 A
ATOM     17  H3  UNL     1      19.337  18.557   9.878  1.00  0.00     0.198 HD
HETATM   18  N4  UNL     1      17.790  18.807  12.090  1.00  0.00    -0.382 N
ATOM     19  H42 UNL     1      17.149  18.919  12.875  1.00  0.00     0.157 HD
ATOM     20  H41 UNL     1      18.689  18.552  12.499  1.00  0.00     0.157 HD
ENDBRANCH   5  11
BRANCH   8  21
HETATM   21  N6  UNL     1      13.644  22.174  13.123  1.00  0.00    -0.214 N
HETATM   22  C7  UNL     1      14.794  23.033  13.148  1.00  0.00     0.168 C
HETATM   23  C8  UNL     1      14.594  24.296  13.917  1.00  0.00     0.252 C
HETATM   24  N7  UNL     1      13.194  24.669  14.040  1.00  0.00    -0.072 N
HETATM   25  C9  UNL     1      12.560  23.586  14.808  1.00  0.00     0.252 C
ATOM     26  H72 UNL     1      13.052  25.594  14.444  1.00  0.00     0.277 HD
ATOM     27  H71 UNL     1      12.741  24.854  13.146  1.00  0.00     0.277 HD
HETATM   28  C10 UNL     1      12.430  22.419  13.859  1.00  0.00     0.168 C
ENDBRANCH   8  21
TORSDOF 2
ENDMDL