MODEL 1
REMARK VINA RESULT: -5.400263240      0.000      0.000
REMARK  3 active torsions:
REMARK  status: ('A' for Active; 'I' for Inactive)
REMARK    1  A    between atoms: C2_2  and  C3_3
REMARK       I    between atoms: N3_23  and  C15_24
REMARK    2  A    between atoms: C15_24  and  C16_26
REMARK    3  A    between atoms: C16_26  and  N4_27
ROOT
HETATM    1  C1  UNL     1     -82.407  38.531 129.519  1.00  0.00     0.077 C
HETATM    2  C2  UNL     1     -82.134  37.060 129.749  1.00  0.00     0.164 C
HETATM    3  N1  UNL     1     -83.038  36.209 129.012  1.00  0.00    -0.344 N
ATOM      4  H1  UNL     1     -83.537  36.540 128.186  1.00  0.00     0.164 HD
HETATM    5  C7  UNL     1     -83.193  34.896 129.497  1.00  0.00     0.085 C
HETATM    6  N2  UNL     1     -83.391  33.946 128.641  1.00  0.00    -0.388 N
ATOM      7  H21 UNL     1     -83.503  32.996 128.992  1.00  0.00     0.157 HD
ATOM      8  H22 UNL     1     -83.441  34.084 127.631  1.00  0.00     0.157 HD
HETATM    9  C8  UNL     1     -83.119  34.696 130.969  1.00  0.00     0.049 C
HETATM   10  C9  UNL     1     -82.102  33.636 131.260  1.00  0.00     0.020 C
HETATM   11  C10 UNL     1     -83.154  32.810 131.971  1.00  0.00     0.002 C
HETATM   12  C11 UNL     1     -84.191  33.746 131.367  1.00  0.00     0.020 C
HETATM   13  C12 UNL     1     -83.030  36.010 131.656  1.00  0.00     0.082 C
HETATM   14  C13 UNL     1     -82.565  35.962 133.094  1.00  0.00     0.059 C
HETATM   15  C14 UNL     1     -83.657  35.789 134.115  1.00  0.00     0.129 C
HETATM   16  N3  UNL     1     -84.576  36.889 134.006  1.00  0.00    -0.351 N
HETATM   17  C15 UNL     1     -85.535  37.241 134.988  1.00  0.00     0.245 C
HETATM   18  O1  UNL     1     -85.591  36.536 136.040  1.00  0.00    -0.272 OA
HETATM   19  C17 UNL     1     -84.512  37.694 132.804  1.00  0.00     0.129 C
HETATM   20  C18 UNL     1     -84.375  36.694 131.645  1.00  0.00     0.059 C
HETATM   21  O2  UNL     1     -82.078  36.817 131.047  1.00  0.00    -0.344 OA
ENDROOT
BRANCH   2  22
HETATM   22  C3  UNL     1     -80.761  36.792 129.130  1.00  0.00     0.044 A
HETATM   23  C4  UNL     1     -80.525  35.940 128.110  1.00  0.00     0.047 A
HETATM   24  C5  UNL     1     -79.248  35.805 127.669  1.00  0.00     0.078 A
HETATM   25 CL1  UNL     1     -78.673  34.762 126.354  1.00  0.00    -0.076 Cl
HETATM   26  S1  UNL     1     -78.376  36.866 128.679  1.00  0.00    -0.047 SA
HETATM   27  C6  UNL     1     -79.659  37.451 129.630  1.00  0.00     0.170 A
HETATM   28  F1  UNL     1     -79.567  38.361 130.643  1.00  0.00    -0.197 F
ENDBRANCH   2  22
BRANCH  17  29
HETATM   29  C16 UNL     1     -86.468  38.368 134.866  1.00  0.00     0.332 C
BRANCH  29  30
HETATM   30  N4  UNL     1     -85.982  39.577 135.475  1.00  0.00    -0.071 N
ATOM     31  H43 UNL     1     -85.116  39.403 135.985  1.00  0.00     0.274 HD
ATOM     32  H42 UNL     1     -85.633  40.223 134.767  1.00  0.00     0.274 HD
ATOM     33  H41 UNL     1     -86.670  40.032 136.074  1.00  0.00     0.274 HD
ENDBRANCH  29  30
ENDBRANCH  17  29
TORSDOF 3
ENDMDL