MODEL 3
REMARK VINA RESULT: -3.956294434      3.413      6.441
REMARK  4 active torsions:
REMARK  status: ('A' for Active; 'I' for Inactive)
REMARK    1  A    between atoms: C4_6  and  C5_7
REMARK    2  A    between atoms: C5_7  and  C6_8
REMARK    3  A    between atoms: C6_8  and  N3_9
REMARK    4  A    between atoms: C13_26  and  C14_27
ROOT
HETATM    1  N1  UNL     1     -86.026  33.144 131.919  1.00  0.00    -0.195 NA
HETATM    2  C1  UNL     1     -85.481  34.095 132.367  1.00  0.00     0.087 C
HETATM    3  C2  UNL     1     -84.788  35.303 132.889  1.00  0.00     0.168 C
HETATM    4  C3  UNL     1     -83.742  34.888 133.849  1.00  0.00     0.087 C
HETATM    5  N2  UNL     1     -82.885  34.572 134.597  1.00  0.00    -0.195 NA
HETATM    6  C4  UNL     1     -85.681  36.317 133.394  1.00  0.00     0.160 C
HETATM    7  O1  UNL     1     -85.402  37.649 133.147  1.00  0.00    -0.383 OA
HETATM    8  C7  UNL     1     -84.278  38.052 132.591  1.00  0.00     0.176 C
HETATM    9  C8  UNL     1     -83.447  37.150 131.795  1.00  0.00     0.050 C
HETATM   10  C9  UNL     1     -83.971  35.738 131.637  1.00  0.00     0.043 C
HETATM   11  C10 UNL     1     -84.685  36.246 130.494  1.00  0.00     0.051 C
HETATM   12  C11 UNL     1     -85.168  35.625 129.295  1.00  0.00     0.186 C
HETATM   13  O2  UNL     1     -84.822  36.495 128.194  1.00  0.00    -0.322 OA
HETATM   14  C12 UNL     1     -84.707  37.866 128.357  1.00  0.00     0.213 C
HETATM   15  N4  UNL     1     -85.061  38.735 127.474  1.00  0.00    -0.365 N
ATOM     16  H41 UNL     1     -84.976  39.745 127.593  1.00  0.00     0.159 HD
ATOM     17  H42 UNL     1     -85.456  38.426 126.586  1.00  0.00     0.159 HD
HETATM   18  N5  UNL     1     -84.144  38.308 129.624  1.00  0.00    -0.342 N
ATOM     19  H5  UNL     1     -84.178  39.262 129.983  1.00  0.00     0.164 HD
HETATM   20  C13 UNL     1     -83.529  37.181 130.297  1.00  0.00     0.074 C
ENDROOT
BRANCH   6  21
HETATM   21  C5  UNL     1     -86.101  36.262 134.818  1.00  0.00     0.062 C
BRANCH  21  22
HETATM   22  C6  UNL     1     -85.828  37.349 135.761  1.00  0.00     0.232 C
BRANCH  22  23
HETATM   23  N3  UNL     1     -84.485  37.736 136.040  1.00  0.00    -0.079 N
ATOM     24  H33 UNL     1     -83.872  36.954 135.811  1.00  0.00     0.274 HD
ATOM     25  H32 UNL     1     -84.200  38.429 135.349  1.00  0.00     0.274 HD
ATOM     26  H31 UNL     1     -84.233  38.082 136.965  1.00  0.00     0.274 HD
ENDBRANCH  22  23
ENDBRANCH  21  22
ENDBRANCH   6  21
BRANCH  20  27
HETATM   27  C14 UNL     1     -82.304  36.823 129.651  1.00  0.00    -0.007 A
HETATM   28  C15 UNL     1     -81.921  35.641 129.080  1.00  0.00     0.013 A
HETATM   29  C16 UNL     1     -80.682  35.432 128.484  1.00  0.00     0.024 A
HETATM   30  C17 UNL     1     -79.761  36.453 128.448  1.00  0.00     0.035 A
HETATM   31 CL1  UNL     1     -78.197  36.193 127.698  1.00  0.00    -0.084 Cl
HETATM   32  C18 UNL     1     -80.112  37.656 129.015  1.00  0.00     0.048 A
HETATM   33  C19 UNL     1     -81.343  37.846 129.602  1.00  0.00     0.044 A
HETATM   34 CL2  UNL     1     -81.616  39.437 130.285  1.00  0.00    -0.084 Cl
ENDBRANCH  20  27
TORSDOF 4
ENDMDL