MODEL 5
REMARK VINA RESULT: -10.219056631      1.949      2.782
REMARK  4 active torsions:
REMARK  status: ('A' for Active; 'I' for Inactive)
REMARK    1  A    between atoms: C4_6  and  N2_7
REMARK    2  A    between atoms: N2_7  and  C5_9
REMARK    3  A    between atoms: C11_19  and  C12_20
REMARK    4  A    between atoms: C16_25  and  C17_26
ROOT
HETATM    1  C1  UNL     1     -72.648  41.817 130.769  1.00  0.00     0.070 C
HETATM    2  C2  UNL     1     -73.036  40.399 130.458  1.00  0.00     0.030 A
HETATM    3  N1  UNL     1     -72.090  39.453 130.405  1.00  0.00    -0.364 N
ATOM      4  H1  UNL     1     -71.115  39.698 130.573  1.00  0.00     0.165 HD
HETATM    5  C3  UNL     1     -72.430  38.161 130.124  1.00  0.00     0.136 A
HETATM    6  C4  UNL     1     -73.734  37.781 129.889  1.00  0.00     0.117 A
HETATM    7  N3  UNL     1     -74.679  38.765 129.948  1.00  0.00    -0.342 N
ATOM      8  H3  UNL     1     -75.657  38.532 129.780  1.00  0.00     0.167 HD
HETATM    9  C11 UNL     1     -74.341  40.037 130.225  1.00  0.00     0.057 A
ENDROOT
BRANCH   9  10
HETATM   10  C12 UNL     1     -75.348  41.115 130.296  1.00  0.00     0.157 C
HETATM   11  C13 UNL     1     -75.655  41.484 131.743  1.00  0.00     0.302 C
HETATM   12  N4  UNL     1     -76.798  42.356 131.842  1.00  0.00     0.088 N
HETATM   13  C14 UNL     1     -76.536  43.688 131.360  1.00  0.00     0.310 C
HETATM   14  C15 UNL     1     -78.001  41.781 131.302  1.00  0.00     0.296 C
HETATM   15  C16 UNL     1     -77.664  40.508 130.516  1.00  0.00     0.109 C
HETATM   16  N6  UNL     1     -76.583  40.851 129.656  1.00  0.00    -0.404 N
ATOM     17  H6  UNL     1     -76.692  40.903 128.643  1.00  0.00     0.154 HD
BRANCH  15  18
HETATM   18  C17 UNL     1     -78.871  40.183 129.660  1.00  0.00     0.013 C
HETATM   19  C18 UNL     1     -80.113  40.560 130.410  1.00  0.00     0.034 C
HETATM   20  C19 UNL     1     -81.336  39.974 129.733  1.00  0.00     0.232 C
HETATM   21  N5  UNL     1     -81.318  38.548 129.922  1.00  0.00    -0.075 N
HETATM   22  C20 UNL     1     -80.009  37.985 130.025  1.00  0.00     0.232 C
ATOM     23  H52 UNL     1     -81.881  38.290 130.733  1.00  0.00     0.277 HD
ATOM     24  H51 UNL     1     -81.849  38.085 129.185  1.00  0.00     0.277 HD
HETATM   25  C21 UNL     1     -78.952  38.749 129.262  1.00  0.00     0.034 C
ENDBRANCH  15  18
ENDBRANCH   9  10
BRANCH   6  26
HETATM   26  N2  UNL     1     -74.076  36.569 129.626  1.00  0.00    -0.371 N
ATOM     27  H2  UNL     1     -73.773  35.848 130.280  1.00  0.00     0.161 HD
BRANCH  26  28
HETATM   28  C5  UNL     1     -74.851  36.140 128.490  1.00  0.00     0.083 C
HETATM   29  C6  UNL     1     -76.244  36.721 128.613  1.00  0.00     0.031 C
HETATM   30  C7  UNL     1     -77.289  35.747 128.103  1.00  0.00     0.081 C
HETATM   31  C8  UNL     1     -76.755  35.012 126.881  1.00  0.00     0.243 C
HETATM   32  F1  UNL     1     -77.793  34.251 126.377  1.00  0.00    -0.206 F
HETATM   33  F2  UNL     1     -76.296  35.878 125.921  1.00  0.00    -0.206 F
HETATM   34  C9  UNL     1     -75.693  34.060 127.363  1.00  0.00     0.081 C
HETATM   35  C10 UNL     1     -74.881  34.627 128.496  1.00  0.00     0.031 C
ENDBRANCH  26  28
ENDBRANCH   6  26
TORSDOF 4
ENDMDL