MODEL 4
REMARK VINA RESULT: -8.092582146      2.604      4.958
REMARK  4 active torsions:
REMARK  status: ('A' for Active; 'I' for Inactive)
REMARK    1  A    between atoms: N1_1  and  C1_4
REMARK    2  A    between atoms: C5_10  and  C6_11
REMARK    3  A    between atoms: C8_14  and  O1_15
REMARK    4  A    between atoms: C10_18  and  N4_19
ROOT
HETATM    1  C1  UNL     1     -78.410  41.940 130.024  1.00  0.00     0.046 A
HETATM    2  C2  UNL     1     -76.994  41.864 130.045  1.00  0.00    -0.007 A
HETATM    3  C3  UNL     1     -76.464  40.626 129.903  1.00  0.00     0.027 A
HETATM    4  N2  UNL     1     -77.261  39.518 129.763  1.00  0.00    -0.357 N
ATOM      5  H2  UNL     1     -76.833  38.598 129.660  1.00  0.00     0.166 HD
HETATM    6  C4  UNL     1     -78.577  39.630 129.763  1.00  0.00     0.059 A
HETATM    7  C5  UNL     1     -79.364  38.413 129.741  1.00  0.00     0.033 A
HETATM    8  C10 UNL     1     -80.679  38.489 129.850  1.00  0.00     0.044 A
HETATM    9  C16 UNL     1     -81.329  39.746 129.948  1.00  0.00     0.031 A
HETATM   10  C17 UNL     1     -80.576  40.918 129.966  1.00  0.00     0.018 A
HETATM   11  C18 UNL     1     -79.205  40.824 129.882  1.00  0.00     0.018 A
HETATM   12  C19 UNL     1     -75.017  40.333 129.870  1.00  0.00     0.131 C
HETATM   13  S1  UNL     1     -74.066  41.586 130.828  1.00  0.00    -0.163 SA
HETATM   14  C20 UNL     1     -74.836  43.147 130.338  1.00  0.00     0.079 C
HETATM   15  C21 UNL     1     -76.313  43.141 130.343  1.00  0.00     0.053 C
ENDROOT
BRANCH   8  16
HETATM   16  N4  UNL     1     -81.404  37.396 130.457  1.00  0.00    -0.374 N
HETATM   17  C11 UNL     1     -82.872  37.855 130.443  1.00  0.00     0.123 C
HETATM   18  C12 UNL     1     -83.536  37.361 131.636  1.00  0.00     0.026 C
HETATM   19  C13 UNL     1     -83.710  35.858 131.462  1.00  0.00     0.082 C
HETATM   20  C14 UNL     1     -82.493  35.234 130.855  1.00  0.00     0.259 C
HETATM   21  F1  UNL     1     -82.210  34.121 131.623  1.00  0.00    -0.205 F
HETATM   22  F2  UNL     1     -82.672  34.841 129.563  1.00  0.00    -0.205 F
HETATM   23  C15 UNL     1     -81.234  36.148 131.003  1.00  0.00     0.202 C
ENDBRANCH   8  16
BRANCH   7  24
HETATM   24  C6  UNL     1     -78.555  37.193 129.583  1.00  0.00     0.101 C
HETATM   25  N3  UNL     1     -78.662  36.594 128.364  1.00  0.00    -0.384 N
HETATM   26  C7  UNL     1     -77.861  35.570 127.862  1.00  0.00     0.155 C
HETATM   27  C9  UNL     1     -79.253  36.956 127.185  1.00  0.00     0.155 C
HETATM   28  C8  UNL     1     -78.714  35.623 126.565  1.00  0.00     0.153 C
BRANCH  28  29
HETATM   29  O1  UNL     1     -79.667  34.620 126.519  1.00  0.00    -0.392 OA
ATOM     30  H1  UNL     1     -80.551  34.963 126.449  1.00  0.00     0.210 HD
ENDBRANCH  28  29
ENDBRANCH   7  24
BRANCH   1  31
HETATM   31  N1  UNL     1     -79.045  43.057 130.139  1.00  0.00    -0.398 N
ATOM     32  H12 UNL     1     -78.540  43.796 130.628  1.00  0.00     0.156 HD
ATOM     33  H11 UNL     1     -79.985  43.193 129.765  1.00  0.00     0.156 HD
ENDBRANCH   1  31
TORSDOF 4
ENDMDL