MODEL 1
REMARK VINA RESULT: -8.239791296      0.000      0.000
REMARK  5 active torsions:
REMARK  status: ('A' for Active; 'I' for Inactive)
REMARK    1  A    between atoms: N1_4  and  C4_5
REMARK    2  A    between atoms: C8_10  and  N2_11
REMARK    3  A    between atoms: C10_13  and  C11_14
REMARK    4  A    between atoms: C11_14  and  N3_15
REMARK    5  A    between atoms: C12_19  and  N4_21
ROOT
HETATM    1  N2  UNL     1     -77.212  39.670 130.566  1.00  0.00    -0.376 N
HETATM    2  C9  UNL     1     -77.806  40.258 131.725  1.00  0.00     0.132 C
HETATM    3  C10 UNL     1     -77.502  41.681 132.008  1.00  0.00     0.068 C
HETATM    4  C12 UNL     1     -76.587  42.374 131.058  1.00  0.00     0.163 C
HETATM    5  C13 UNL     1     -75.931  43.602 131.663  1.00  0.00     0.050 C
HETATM    6  C14 UNL     1     -75.466  41.412 130.732  1.00  0.00     0.148 C
HETATM    7  C15 UNL     1     -74.430  42.066 129.852  1.00  0.00     0.056 C
HETATM    8  F1  UNL     1     -74.823  41.078 131.929  1.00  0.00    -0.239 F
HETATM    9  C16 UNL     1     -75.984  40.196 130.043  1.00  0.00     0.168 C
ENDROOT
BRANCH   1  10
HETATM   10  C8  UNL     1     -77.819  38.561 129.924  1.00  0.00     0.054 A
HETATM   11  C7  UNL     1     -77.114  37.651 129.164  1.00  0.00     0.060 A
HETATM   12  C6  UNL     1     -77.753  36.578 128.546  1.00  0.00     0.028 A
HETATM   13 CL1  UNL     1     -75.382  37.802 128.951  1.00  0.00    -0.082 Cl
HETATM   14  C5  UNL     1     -79.110  36.388 128.671  1.00  0.00     0.031 A
HETATM   15  C4  UNL     1     -79.842  37.288 129.429  1.00  0.00     0.032 A
HETATM   16  C17 UNL     1     -79.199  38.331 130.026  1.00  0.00     0.060 A
BRANCH  15  17
HETATM   17  N1  UNL     1     -81.244  37.095 129.568  1.00  0.00    -0.377 N
HETATM   18  C3  UNL     1     -82.079  38.142 130.066  1.00  0.00     0.147 C
HETATM   19  C2  UNL     1     -83.527  37.968 129.663  1.00  0.00     0.091 C
HETATM   20  C1  UNL     1     -83.731  38.396 128.223  1.00  0.00     0.033 C
HETATM   21  N5  UNL     1     -84.032  36.659 129.930  1.00  0.00    -0.406 N
HETATM   22  C19 UNL     1     -83.090  35.611 129.930  1.00  0.00     0.034 C
ATOM     23  H5  UNL     1     -85.022  36.490 130.111  1.00  0.00     0.154 HD
HETATM   24  C18 UNL     1     -81.814  35.839 129.208  1.00  0.00     0.152 C
HETATM   25  C20 UNL     1     -82.735  35.225 131.373  1.00  0.00     0.039 C
HETATM   26  C21 UNL     1     -83.751  34.370 129.315  1.00  0.00     0.039 C
ENDBRANCH  15  17
ENDBRANCH   1  10
BRANCH   3  27
HETATM   27  C11 UNL     1     -78.750  42.526 132.191  1.00  0.00     0.238 C
BRANCH  27  28
HETATM   28  N3  UNL     1     -79.191  42.637 133.540  1.00  0.00    -0.079 N
ATOM     29  H33 UNL     1     -78.480  42.281 134.178  1.00  0.00     0.274 HD
ATOM     30  H32 UNL     1     -79.210  43.615 133.829  1.00  0.00     0.274 HD
ATOM     31  H31 UNL     1     -80.091  42.194 133.727  1.00  0.00     0.274 HD
ENDBRANCH  27  28
ENDBRANCH   3  27
BRANCH   4  32
HETATM   32  N4  UNL     1     -77.286  42.749 129.869  1.00  0.00    -0.067 N
ATOM     33  H43 UNL     1     -77.295  41.994 129.182  1.00  0.00     0.275 HD
ATOM     34  H42 UNL     1     -78.290  42.824 130.028  1.00  0.00     0.275 HD
ATOM     35  H41 UNL     1     -76.899  43.609 129.480  1.00  0.00     0.275 HD
ENDBRANCH   4  32
TORSDOF 5
ENDMDL