MODEL 2
REMARK VINA RESULT: -9.605749746      5.480      8.046
REMARK  5 active torsions:
REMARK  status: ('A' for Active; 'I' for Inactive)
REMARK    1  A    between atoms: C2_5  and  N3_6
REMARK    2  A    between atoms: N3_6  and  C3_8
REMARK    3  A    between atoms: C6_11  and  C7_12
REMARK    4  A    between atoms: C7_12  and  C8_13
REMARK    5  A    between atoms: C8_13  and  O1_14
ROOT
HETATM    1  C3  UNL     1     -78.318  38.804 129.912  1.00  0.00     0.083 C
HETATM    2  C4  UNL     1     -77.393  37.693 129.527  1.00  0.00     0.025 C
HETATM    3  C5  UNL     1     -77.907  37.185 128.145  1.00  0.00     0.007 C
HETATM    4  C6  UNL     1     -79.070  36.330 128.498  1.00  0.00    -0.009 C
HETATM    5  C13 UNL     1     -80.128  37.249 129.086  1.00  0.00     0.007 C
HETATM    6  C14 UNL     1     -79.720  38.608 129.438  1.00  0.00     0.025 C
ENDROOT
BRANCH   1   7
HETATM    7  N3  UNL     1     -77.751  40.046 129.417  1.00  0.00    -0.370 N
ATOM      8  H3  UNL     1     -77.527  40.141 128.426  1.00  0.00     0.161 HD
BRANCH   7   9
HETATM    9  C2  UNL     1     -77.526  41.047 130.236  1.00  0.00     0.129 A
HETATM   10  N2  UNL     1     -78.477  41.775 130.839  1.00  0.00    -0.283 N
HETATM   11  N1  UNL     1     -77.872  42.696 131.590  1.00  0.00    -0.294 N
ATOM     12  H2  UNL     1     -79.484  41.647 130.741  1.00  0.00     0.189 HD
HETATM   13  C1  UNL     1     -78.571  43.688 132.407  1.00  0.00     0.178 C
HETATM   14  C20 UNL     1     -76.532  42.579 131.484  1.00  0.00     0.067 A
HETATM   15  C15 UNL     1     -76.295  41.530 130.622  1.00  0.00     0.039 A
HETATM   16  C19 UNL     1     -75.470  43.274 132.046  1.00  0.00     0.076 A
HETATM   17  C16 UNL     1     -75.003  41.153 130.304  1.00  0.00     0.044 A
HETATM   18  C17 UNL     1     -73.951  41.862 130.879  1.00  0.00     0.073 A
HETATM   19 CL1  UNL     1     -72.308  41.402 130.491  1.00  0.00    -0.081 Cl
HETATM   20  C18 UNL     1     -74.195  42.913 131.742  1.00  0.00     0.140 A
HETATM   21  F1  UNL     1     -73.180  43.616 132.311  1.00  0.00    -0.204 F
ENDBRANCH   7   9
ENDBRANCH   1   7
BRANCH   4  22
HETATM   22  C7  UNL     1     -79.692  35.463 127.490  1.00  0.00     0.073 C
BRANCH  22  23
HETATM   23  C8  UNL     1     -78.942  35.043 126.287  1.00  0.00     0.163 C
HETATM   24  C9  UNL     1     -77.474  34.809 126.609  1.00  0.00     0.087 C
HETATM   25  C10 UNL     1     -76.707  35.299 125.364  1.00  0.00     0.119 C
HETATM   26  N4  UNL     1     -76.955  34.311 124.338  1.00  0.00    -0.419 N
HETATM   27  C11 UNL     1     -78.155  34.493 123.596  1.00  0.00     0.140 C
ATOM     28  H4  UNL     1     -76.315  33.538 124.159  1.00  0.00     0.153 HD
HETATM   29  C12 UNL     1     -79.419  34.069 124.249  1.00  0.00     0.190 C
HETATM   30  O2  UNL     1     -79.402  33.947 125.613  1.00  0.00    -0.354 OA
BRANCH  23  31
HETATM   31  O1  UNL     1     -78.994  36.190 125.417  1.00  0.00    -0.365 OA
ATOM     32  H1  UNL     1     -78.420  36.824 125.831  1.00  0.00     0.213 HD
ENDBRANCH  23  31
ENDBRANCH  22  23
ENDBRANCH   4  22
TORSDOF 5
ENDMDL