MODEL 2
REMARK VINA RESULT: -5.155246083      3.094      4.307
REMARK  5 active torsions:
REMARK  status: ('A' for Active; 'I' for Inactive)
REMARK    1  A    between atoms: C5_5  and  O1_6
REMARK    2  A    between atoms: C6_8  and  C7_9
REMARK    3  A    between atoms: C6_8  and  C8_12
REMARK    4  A    between atoms: C8_12  and  C9_14
REMARK    5  A    between atoms: C9_14  and  O5_15
ROOT
HETATM    1  C1  UNL     1     -81.450  36.181 128.737  1.00  0.00     0.016 C
HETATM    2  C2  UNL     1     -81.176  36.866 130.060  1.00  0.00    -0.035 C
HETATM    3  C3  UNL     1     -80.467  35.848 130.942  1.00  0.00     0.012 C
HETATM    4  C4  UNL     1     -81.401  34.766 131.427  1.00  0.00     0.034 C
HETATM    5  C5  UNL     1     -82.489  35.437 132.255  1.00  0.00     0.145 C
HETATM    6  C6  UNL     1     -83.297  36.399 131.459  1.00  0.00     0.140 C
HETATM    7  C10 UNL     1     -82.367  37.343 130.787  1.00  0.00     0.023 C
HETATM    8  C11 UNL     1     -83.068  38.393 129.955  1.00  0.00     0.007 C
HETATM    9  C12 UNL     1     -82.159  39.603 130.039  1.00  0.00     0.006 C
HETATM   10  C13 UNL     1     -80.752  39.345 129.630  1.00  0.00    -0.002 C
HETATM   11  C14 UNL     1     -80.198  37.995 129.776  1.00  0.00     0.001 C
HETATM   12  C15 UNL     1     -79.042  37.945 130.790  1.00  0.00     0.046 C
HETATM   13  C16 UNL     1     -77.934  38.905 130.345  1.00  0.00     0.218 C
HETATM   14  F1  UNL     1     -77.185  39.176 131.474  1.00  0.00    -0.245 F
HETATM   15  C17 UNL     1     -78.493  40.194 129.836  1.00  0.00     0.197 C
HETATM   16  F2  UNL     1     -78.592  40.174 128.461  1.00  0.00    -0.231 F
HETATM   17  C18 UNL     1     -77.845  41.396 130.350  1.00  0.00     0.169 C
HETATM   18  O6  UNL     1     -76.703  41.532 130.671  1.00  0.00    -0.294 OA
HETATM   19  C19 UNL     1     -78.895  42.450 130.404  1.00  0.00     0.083 C
HETATM   20  C20 UNL     1     -80.201  41.757 130.070  1.00  0.00     0.016 C
HETATM   21  C21 UNL     1     -79.883  40.322 130.417  1.00  0.00     0.041 C
ENDROOT
BRANCH   6  22
HETATM   22  C7  UNL     1     -83.954  37.274 132.533  1.00  0.00     0.192 C
HETATM   23  O2  UNL     1     -84.866  38.062 132.321  1.00  0.00    -0.647 OA
HETATM   24  O3  UNL     1     -83.468  37.157 133.838  1.00  0.00    -0.647 OA
ENDBRANCH   6  22
BRANCH   6  25
HETATM   25  C8  UNL     1     -84.407  35.884 130.683  1.00  0.00     0.172 C
HETATM   26  O4  UNL     1     -85.075  34.973 131.214  1.00  0.00    -0.294 OA
BRANCH  25  27
HETATM   27  C9  UNL     1     -84.917  36.232 129.348  1.00  0.00     0.244 C
BRANCH  27  28
HETATM   28  O5  UNL     1     -85.346  35.225 128.539  1.00  0.00    -0.394 OA
ATOM     29  H5  UNL     1     -84.700  34.625 128.186  1.00  0.00     0.209 HD
ENDBRANCH  27  28
ENDBRANCH  25  27
ENDBRANCH   6  25
BRANCH   5  30
HETATM   30  O1  UNL     1     -83.120  34.564 133.072  1.00  0.00    -0.394 OA
ATOM     31  H1  UNL     1     -82.875  34.683 133.982  1.00  0.00     0.210 HD
ENDBRANCH   5  30
TORSDOF 5
ENDMDL