MODEL 4
REMARK VINA RESULT: -8.577870109      3.912      9.500
REMARK  7 active torsions:
REMARK  status: ('A' for Active; 'I' for Inactive)
REMARK    1  A    between atoms: C2_2  and  N1_3
REMARK    2  A    between atoms: C5_9  and  N2_10
REMARK    3  A    between atoms: N2_10  and  C6_12
REMARK    4  A    between atoms: C8_14  and  C9_15
REMARK    5  A    between atoms: N3_17  and  C11_18
REMARK    6  A    between atoms: C11_18  and  O1_19
REMARK    7  A    between atoms: C11_18  and  C12_21
ROOT
HETATM    1  C6  UNL     1     -77.123  37.699 129.429  1.00  0.00     0.101 A
HETATM    2  C7  UNL     1     -75.952  36.950 129.411  1.00  0.00     0.059 A
HETATM    3  C8  UNL     1     -75.712  35.880 128.612  1.00  0.00    -0.001 A
HETATM    4  C17 UNL     1     -76.773  35.538 127.743  1.00  0.00     0.058 A
HETATM    5 CL1  UNL     1     -76.523  34.163 126.734  1.00  0.00    -0.082 Cl
HETATM    6  C18 UNL     1     -77.947  36.242 127.723  1.00  0.00     0.114 A
HETATM    7  N4  UNL     1     -78.117  37.291 128.543  1.00  0.00    -0.351 N
ATOM      8  H4  UNL     1     -78.999  37.804 128.516  1.00  0.00     0.166 HD
ENDROOT
BRANCH   1   9
HETATM    9  N2  UNL     1     -77.410  38.723 130.053  1.00  0.00    -0.372 N
ATOM     10  H2  UNL     1     -77.375  38.521 131.052  1.00  0.00     0.161 HD
BRANCH   9  11
HETATM   11  C5  UNL     1     -77.761  40.041 129.877  1.00  0.00     0.083 C
HETATM   12  C4  UNL     1     -77.046  41.040 130.768  1.00  0.00     0.027 C
HETATM   13  C3  UNL     1     -77.380  42.392 130.181  1.00  0.00     0.040 C
HETATM   14  C2  UNL     1     -78.802  42.697 130.619  1.00  0.00     0.120 C
HETATM   15  C1  UNL     1     -78.679  43.389 131.963  1.00  0.00     0.046 C
HETATM   16  C20 UNL     1     -79.646  41.493 130.798  1.00  0.00     0.040 C
HETATM   17  C19 UNL     1     -79.256  40.248 130.109  1.00  0.00     0.027 C
BRANCH  14  18
HETATM   18  N1  UNL     1     -79.349  43.685 129.692  1.00  0.00    -0.071 N
ATOM     19  H13 UNL     1     -79.178  43.458 128.713  1.00  0.00     0.275 HD
ATOM     20  H12 UNL     1     -80.368  43.677 129.648  1.00  0.00     0.275 HD
ATOM     21  H11 UNL     1     -78.964  44.588 129.971  1.00  0.00     0.275 HD
ENDBRANCH  14  18
ENDBRANCH   9  11
ENDBRANCH   1   9
BRANCH   3  22
HETATM   22  C9  UNL     1     -74.498  35.178 128.478  1.00  0.00     0.173 C
HETATM   23  C10 UNL     1     -73.962  34.152 129.394  1.00  0.00     0.156 C
HETATM   24  N3  UNL     1     -72.567  33.962 129.063  1.00  0.00    -0.380 N
HETATM   25  C15 UNL     1     -71.739  35.024 129.400  1.00  0.00     0.145 C
HETATM   26  C16 UNL     1     -72.730  36.204 129.668  1.00  0.00     0.188 C
HETATM   27  O2  UNL     1     -73.503  36.268 128.534  1.00  0.00    -0.378 OA
BRANCH  24  28
HETATM   28  C11 UNL     1     -72.193  32.723 128.642  1.00  0.00     0.255 C
BRANCH  28  29
HETATM   29  O1  UNL     1     -71.462  32.733 127.404  1.00  0.00    -0.374 OA
ATOM     30  H1  UNL     1     -71.479  31.901 126.946  1.00  0.00     0.212 HD
ENDBRANCH  28  29
BRANCH  28  31
HETATM   31  C12 UNL     1     -71.301  31.900 129.567  1.00  0.00     0.139 C
HETATM   32  C13 UNL     1     -69.928  32.491 129.653  1.00  0.00     0.056 C
HETATM   33  C14 UNL     1     -71.918  31.683 130.892  1.00  0.00     0.056 C
HETATM   34  F1  UNL     1     -71.189  30.667 128.901  1.00  0.00    -0.239 F
ENDBRANCH  28  31
ENDBRANCH  24  28
ENDBRANCH   3  22
TORSDOF 7
ENDMDL