MODEL 1
REMARK VINA RESULT: -8.654843171      0.000      0.000
REMARK  5 active torsions:
REMARK  status: ('A' for Active; 'I' for Inactive)
REMARK    1  A    between atoms: C5_5  and  N1_6
REMARK    2  A    between atoms: N1_6  and  C6_8
REMARK    3  A    between atoms: N3_11  and  C7_12
REMARK    4  A    between atoms: C15_21  and  C16_22
REMARK    5  A    between atoms: C17_25  and  O2_26
ROOT
HETATM    1  C7  UNL     1     -78.740  40.971 130.520  1.00  0.00     0.108 C
HETATM    2  C8  UNL     1     -79.947  41.840 130.686  1.00  0.00     0.027 C
HETATM    3  C9  UNL     1     -79.552  43.134 131.361  1.00  0.00     0.004 C
HETATM    4  C10 UNL     1     -79.109  42.763 132.780  1.00  0.00     0.019 C
HETATM    5  C11 UNL     1     -77.822  41.987 132.630  1.00  0.00     0.095 C
HETATM    6  C12 UNL     1     -76.823  42.936 132.098  1.00  0.00     0.064 C
HETATM    7  N4  UNL     1     -76.047  43.688 131.683  1.00  0.00    -0.197 NA
HETATM    8  C13 UNL     1     -77.955  40.771 131.776  1.00  0.00     0.046 C
ENDROOT
BRANCH   1   9
HETATM    9  N3  UNL     1     -79.156  39.646 130.037  1.00  0.00    -0.296 N
HETATM   10  N2  UNL     1     -80.312  39.036 130.294  1.00  0.00    -0.283 N
HETATM   11  C6  UNL     1     -80.351  37.838 129.689  1.00  0.00     0.133 A
ATOM     12  H2  UNL     1     -81.060  39.424 130.868  1.00  0.00     0.189 HD
HETATM   13  C15 UNL     1     -79.141  37.718 129.024  1.00  0.00     0.091 A
HETATM   14  C14 UNL     1     -78.390  38.878 129.256  1.00  0.00     0.131 A
BRANCH  11  15
HETATM   15  N1  UNL     1     -81.269  36.974 129.695  1.00  0.00    -0.367 N
ATOM     16  H1  UNL     1     -81.510  36.578 128.786  1.00  0.00     0.161 HD
BRANCH  15  17
HETATM   17  C5  UNL     1     -82.010  36.478 130.799  1.00  0.00     0.113 C
HETATM   18  C4  UNL     1     -81.701  35.045 131.168  1.00  0.00     0.042 C
HETATM   19  C2  UNL     1     -82.329  34.705 132.483  1.00  0.00     0.021 C
HETATM   20  C1  UNL     1     -81.195  34.707 133.521  1.00  0.00     0.021 C
HETATM   21  C3  UNL     1     -82.838  33.256 132.508  1.00  0.00     0.021 C
HETATM   22  C21 UNL     1     -83.367  35.640 132.959  1.00  0.00     0.260 C
HETATM   23  C18 UNL     1     -84.155  36.359 131.936  1.00  0.00     0.047 C
HETATM   24  F1  UNL     1     -84.274  34.893 133.730  1.00  0.00    -0.205 F
HETATM   25  F2  UNL     1     -82.817  36.548 133.877  1.00  0.00    -0.205 F
HETATM   26  C17 UNL     1     -83.506  36.564 130.611  1.00  0.00     0.154 C
HETATM   27  C19 UNL     1     -84.502  37.744 132.505  1.00  0.00     0.024 C
HETATM   28  C20 UNL     1     -85.518  35.703 131.679  1.00  0.00     0.024 C
BRANCH  26  29
HETATM   29  O2  UNL     1     -83.976  35.577 129.745  1.00  0.00    -0.393 OA
ATOM     30  H2  UNL     1     -83.590  34.729 129.932  1.00  0.00     0.210 HD
ENDBRANCH  26  29
ENDBRANCH  15  17
ENDBRANCH  11  15
BRANCH  13  31
HETATM   31  C16 UNL     1     -78.658  36.621 128.213  1.00  0.00     0.270 C
HETATM   32  N5  UNL     1     -79.527  35.854 127.413  1.00  0.00    -0.057 NA
HETATM   33  O1  UNL     1     -77.437  36.351 128.226  1.00  0.00    -0.271 OA
ENDBRANCH  13  31
ENDBRANCH   1   9
TORSDOF 5
ENDMDL