MODEL 2
REMARK VINA RESULT: -5.606677491      0.913      1.948
REMARK  5 active torsions:
REMARK  status: ('A' for Active; 'I' for Inactive)
REMARK    1  A    between atoms: C2_2  and  C3_3
REMARK    2  A    between atoms: C3_3  and  C4_4
REMARK    3  A    between atoms: C4_4  and  N1_5
REMARK    4  A    between atoms: N1_5  and  C5_7
REMARK    5  A    between atoms: C7_13  and  N4_14
ROOT
HETATM    1  C5  UNL     1      24.489   2.632  23.403  1.00  0.00     0.693 A
HETATM    2  N2  UNL     1      25.601   3.378  23.505  1.00  0.00    -0.187 N
ATOM      3  H2  UNL     1      25.751   4.160  22.867  1.00  0.00     0.185 HD
HETATM    4  C6  UNL     1      26.529   3.090  24.461  1.00  0.00     0.215 A
HETATM    5  N3  UNL     1      26.319   2.056  25.298  1.00  0.00    -0.187 N
ATOM      6  H3  UNL     1      27.019   1.850  26.010  1.00  0.00     0.185 HD
HETATM    7  C7  UNL     1      25.218   1.285  25.228  1.00  0.00     0.691 A
HETATM    8  N5  UNL     1      24.324   1.593  24.275  1.00  0.00    -0.023 N
ATOM      9  H5  UNL     1      23.480   1.025  24.200  1.00  0.00     0.203 HD
ENDROOT
BRANCH   1  10
HETATM   10  N1  UNL     1      23.583   2.864  22.515  1.00  0.00    -0.226 N
ATOM     11  H1  UNL     1      23.873   3.309  21.644  1.00  0.00     0.177 HD
BRANCH  10  12
HETATM   12  C4  UNL     1      22.201   2.539  22.668  1.00  0.00     0.138 C
BRANCH  12  13
HETATM   13  C3  UNL     1      21.282   3.369  21.799  1.00  0.00     0.020 C
BRANCH  13  14
HETATM   14  C2  UNL     1      22.018   4.495  21.112  1.00  0.00    -0.003 C
HETATM   15  C1  UNL     1      21.111   5.717  21.117  1.00  0.00     0.005 C
ENDBRANCH  13  14
ENDBRANCH  12  13
ENDBRANCH  10  12
ENDBRANCH   1  10
BRANCH   7  16
HETATM   16  N4  UNL     1      25.054   0.302  26.049  1.00  0.00    -0.234 N
ATOM     17  H42 UNL     1      24.556   0.398  26.934  1.00  0.00     0.174 HD
ATOM     18  H41 UNL     1      25.428  -0.623  25.830  1.00  0.00     0.174 HD
ENDBRANCH   7  16
TORSDOF 5
ENDMDL