MODEL 2
REMARK VINA RESULT: -5.746341843      1.638      5.571
REMARK  4 active torsions:
REMARK  status: ('A' for Active; 'I' for Inactive)
REMARK    1  A    between atoms: C2_3  and  N2_4
REMARK    2  A    between atoms: C2_3  and  C3_8
REMARK    3  A    between atoms: C3_8  and  C4_9
REMARK    4  A    between atoms: C4_9  and  C5_10
ROOT
HETATM    1  N1  UNL     1      22.208  -2.445  29.428  1.00  0.00    -0.195 NA
HETATM    2  C1  UNL     1      22.200  -2.077  28.326  1.00  0.00     0.092 C
HETATM    3  C2  UNL     1      22.217  -1.612  26.931  1.00  0.00     0.289 C
ENDROOT
BRANCH   3   4
HETATM    4  N2  UNL     1      22.337  -2.724  26.052  1.00  0.00    -0.063 N
ATOM      5  H23 UNL     1      23.041  -2.567  25.330  1.00  0.00     0.275 HD
ATOM      6  H22 UNL     1      22.771  -3.528  26.507  1.00  0.00     0.275 HD
ATOM      7  H21 UNL     1      21.426  -2.954  25.656  1.00  0.00     0.275 HD
ENDBRANCH   3   4
BRANCH   3   8
HETATM    8  C3  UNL     1      23.171  -0.487  26.730  1.00  0.00     0.048 C
BRANCH   8   9
HETATM    9  C4  UNL     1      22.682   0.874  27.053  1.00  0.00     0.008 C
BRANCH   9  10
HETATM   10  C5  UNL     1      22.962   1.951  26.040  1.00  0.00    -0.012 C
HETATM   11  C6  UNL     1      24.001   2.877  26.592  1.00  0.00     0.024 C
HETATM   12  C7  UNL     1      25.282   2.870  25.800  1.00  0.00     0.114 C
HETATM   13  N3  UNL     1      25.107   3.030  24.395  1.00  0.00    -0.421 N
HETATM   14  C8  UNL     1      24.091   2.210  23.818  1.00  0.00     0.114 C
ATOM     15  H3  UNL     1      25.666   3.681  23.844  1.00  0.00     0.153 HD
HETATM   16  C9  UNL     1      23.444   1.243  24.782  1.00  0.00     0.024 C
ENDBRANCH   9  10
ENDBRANCH   8   9
ENDBRANCH   3   8
TORSDOF 4
ENDMDL