MODEL 2
REMARK VINA RESULT: -5.353855766      1.408      4.976
REMARK  4 active torsions:
REMARK  status: ('A' for Active; 'I' for Inactive)
REMARK    1  A    between atoms: C2_4  and  C3_5
REMARK    2  A    between atoms: C3_5  and  C4_6
REMARK    3  A    between atoms: C4_6  and  N2_7
REMARK    4  A    between atoms: N2_7  and  C5_9
ROOT
HETATM    1  N2  UNL     1      23.024   2.257  26.233  1.00  0.00    -0.378 N
ATOM      2  H2  UNL     1      22.357   2.923  25.844  1.00  0.00     0.160 HD
ENDROOT
BRANCH   1   3
HETATM    3  C4  UNL     1      22.684   1.453  27.398  1.00  0.00     0.127 C
BRANCH   3   4
HETATM    4  C3  UNL     1      21.479   0.615  27.183  1.00  0.00     0.078 C
BRANCH   4   5
HETATM    5  C2  UNL     1      21.669  -0.665  26.473  1.00  0.00     0.027 A
HETATM    6  N1  UNL     1      21.248  -0.897  25.194  1.00  0.00    -0.355 N
HETATM    7  C1  UNL     1      21.625  -2.144  24.820  1.00  0.00     0.180 A
ATOM      8  H1  UNL     1      20.731  -0.237  24.612  1.00  0.00     0.166 HD
HETATM    9  N5  UNL     1      22.285  -2.733  25.834  1.00  0.00    -0.360 N
HETATM   10  C8  UNL     1      22.308  -1.828  26.836  1.00  0.00     0.114 A
ATOM     11  H5  UNL     1      22.686  -3.670  25.844  1.00  0.00     0.166 HD
ENDBRANCH   4   5
ENDBRANCH   3   4
ENDBRANCH   1   3
BRANCH   1  12
HETATM   12  C5  UNL     1      24.317   2.089  25.649  1.00  0.00     0.100 C
HETATM   13  N3  UNL     1      25.064   3.132  25.320  1.00  0.00    -0.356 N
HETATM   14  C6  UNL     1      26.300   2.669  24.761  1.00  0.00     0.356 C
ATOM     15  H3  UNL     1      24.801   4.110  25.444  1.00  0.00     0.162 HD
HETATM   16  N4  UNL     1      26.475   1.319  25.304  1.00  0.00    -0.053 N
HETATM   17  C7  UNL     1      25.062   0.888  25.303  1.00  0.00     0.309 C
ATOM     18  H42 UNL     1      27.132   0.715  24.810  1.00  0.00     0.279 HD
ATOM     19  H41 UNL     1      26.968   1.251  26.194  1.00  0.00     0.279 HD
ENDBRANCH   1  12
TORSDOF 4
ENDMDL