MODEL 3
REMARK VINA RESULT: -5.218994810      0.639      1.256
REMARK  3 active torsions:
REMARK  status: ('A' for Active; 'I' for Inactive)
REMARK    1  A    between atoms: C2_4  and  C3_5
REMARK    2  A    between atoms: C3_5  and  N2_6
REMARK    3  A    between atoms: N2_6  and  C4_9
ROOT
HETATM    1  N2  UNL     1      22.842   0.311  25.405  1.00  0.00    -0.064 N
ATOM      2  H21 UNL     1      22.068   0.464  26.051  1.00  0.00     0.278 HD
ATOM      3  H22 UNL     1      23.584   0.161  26.090  1.00  0.00     0.278 HD
ENDROOT
BRANCH   1   4
HETATM    4  C3  UNL     1      23.098   1.485  24.576  1.00  0.00     0.291 C
BRANCH   4   5
HETATM    5  C2  UNL     1      24.550   1.806  24.686  1.00  0.00     0.051 A
HETATM    6  N1  UNL     1      25.140   2.960  24.258  1.00  0.00    -0.353 N
HETATM    7  C1  UNL     1      26.412   2.947  24.527  1.00  0.00     0.180 A
ATOM      8  H1  UNL     1      24.651   3.725  23.794  1.00  0.00     0.166 HD
HETATM    9  N4  UNL     1      26.761   1.767  25.132  1.00  0.00    -0.360 N
HETATM   10  C8  UNL     1      25.572   1.099  25.219  1.00  0.00     0.115 A
ATOM     11  H4  UNL     1      27.683   1.462  25.443  1.00  0.00     0.166 HD
ENDBRANCH   4   5
ENDBRANCH   1   4
BRANCH   1  12
HETATM   12  C4  UNL     1      22.630  -0.855  24.582  1.00  0.00     0.213 C
HETATM   13  C5  UNL     1      21.389  -0.761  23.773  1.00  0.00     0.062 C
HETATM   14  C6  UNL     1      20.554  -1.963  24.164  1.00  0.00     0.234 C
HETATM   15  N3  UNL     1      21.510  -2.887  24.699  1.00  0.00    -0.073 N
HETATM   16  C7  UNL     1      22.325  -2.036  25.520  1.00  0.00     0.265 C
ATOM     17  H32 UNL     1      21.110  -3.694  25.178  1.00  0.00     0.277 HD
ATOM     18  H31 UNL     1      22.020  -3.432  24.003  1.00  0.00     0.277 HD
ENDBRANCH   1  12
TORSDOF 3
ENDMDL