MODEL 4
REMARK VINA RESULT: -4.708354007      3.774      6.002
REMARK  5 active torsions:
REMARK  status: ('A' for Active; 'I' for Inactive)
REMARK    1  A    between atoms: C2_2  and  N1_3
REMARK    2  A    between atoms: N1_3  and  C3_6
REMARK    3  A    between atoms: C3_6  and  C5_8
REMARK    4  A    between atoms: C5_8  and  N2_9
REMARK    5  A    between atoms: N2_9  and  C6_11
ROOT
HETATM    1  N2  UNL     1      24.955   0.333  26.190  1.00  0.00    -0.360 N
ATOM      2  H2  UNL     1      25.578   0.063  26.951  1.00  0.00     0.162 HD
ENDROOT
BRANCH   1   3
HETATM    3  C5  UNL     1      23.670  -0.336  26.050  1.00  0.00     0.155 C
BRANCH   3   4
HETATM    4  C3  UNL     1      22.902  -0.323  27.356  1.00  0.00     0.199 C
HETATM    5  C4  UNL     1      22.288  -1.678  27.531  1.00  0.00     0.041 C
BRANCH   4   6
HETATM    6  N1  UNL     1      23.788   0.007  28.430  1.00  0.00    -0.070 N
ATOM      7  H12 UNL     1      24.653   0.407  28.067  1.00  0.00     0.277 HD
ATOM      8  H11 UNL     1      24.155  -0.840  28.862  1.00  0.00     0.277 HD
BRANCH   6   9
HETATM    9  C2  UNL     1      23.214   0.873  29.428  1.00  0.00     0.228 C
HETATM   10  C1  UNL     1      23.784   2.267  29.170  1.00  0.00     0.034 C
ENDBRANCH   6   9
ENDBRANCH   4   6
ENDBRANCH   3   4
ENDBRANCH   1   3
BRANCH   1  11
HETATM   11  C6  UNL     1      25.365   1.368  25.278  1.00  0.00     0.171 C
HETATM   12  N3  UNL     1      26.399   2.144  25.404  1.00  0.00    -0.361 N
HETATM   13  C7  UNL     1      26.470   3.062  24.267  1.00  0.00     0.142 C
ATOM     14  H3  UNL     1      27.062   2.117  26.179  1.00  0.00     0.162 HD
HETATM   15  C8  UNL     1      25.041   3.057  23.768  1.00  0.00     0.142 C
HETATM   16  N4  UNL     1      24.677   1.687  24.073  1.00  0.00    -0.361 N
ATOM     17  H4  UNL     1      24.057   1.080  23.538  1.00  0.00     0.162 HD
ENDBRANCH   1  11
TORSDOF 5
ENDMDL