MODEL 3
REMARK VINA RESULT: -4.926374832      0.744      1.524
REMARK  4 active torsions:
REMARK  status: ('A' for Active; 'I' for Inactive)
REMARK    1  A    between atoms: N1_1  and  C1_5
REMARK    2  A    between atoms: C1_5  and  C2_6
REMARK    3  A    between atoms: C1_5  and  C7_11
REMARK    4  A    between atoms: C2_6  and  C3_7
ROOT
HETATM    1  C1  UNL     1      24.153   0.107  25.843  1.00  0.00     0.250 C
ENDROOT
BRANCH   1   2
HETATM    2  N1  UNL     1      24.622   0.107  27.200  1.00  0.00    -0.068 N
ATOM      3  H13 UNL     1      24.075   0.736  27.787  1.00  0.00     0.275 HD
ATOM      4  H12 UNL     1      24.409  -0.772  27.671  1.00  0.00     0.275 HD
ATOM      5  H11 UNL     1      25.618   0.324  27.243  1.00  0.00     0.275 HD
ENDBRANCH   1   2
BRANCH   1   6
HETATM    6  C2  UNL     1      22.669   0.417  25.779  1.00  0.00     0.045 C
BRANCH   6   7
HETATM    7  C3  UNL     1      21.829  -0.778  26.086  1.00  0.00    -0.012 A
HETATM    8  C4  UNL     1      22.320  -2.084  25.533  1.00  0.00     0.005 A
HETATM    9  C5  UNL     1      21.165  -2.128  24.542  1.00  0.00     0.001 A
HETATM   10  C6  UNL     1      20.640  -0.847  25.147  1.00  0.00     0.005 A
ENDBRANCH   6   7
ENDBRANCH   1   6
BRANCH   1  11
HETATM   11  C7  UNL     1      24.885   1.223  25.139  1.00  0.00     0.104 C
HETATM   12  N2  UNL     1      25.993   1.766  25.502  1.00  0.00    -0.377 N
HETATM   13  C8  UNL     1      26.436   2.809  24.621  1.00  0.00     0.140 C
ATOM     14  H2  UNL     1      26.508   1.482  26.335  1.00  0.00     0.160 HD
HETATM   15  C9  UNL     1      25.237   3.061  23.737  1.00  0.00     0.140 C
HETATM   16  N3  UNL     1      24.466   1.872  23.945  1.00  0.00    -0.377 N
ATOM     17  H3  UNL     1      23.725   1.539  23.328  1.00  0.00     0.160 HD
ENDBRANCH   1  11
TORSDOF 4
ENDMDL