MODEL 3
REMARK VINA RESULT: -4.978382378      0.757      1.504
REMARK  3 active torsions:
REMARK  status: ('A' for Active; 'I' for Inactive)
REMARK    1  A    between atoms: C3_3  and  C4_4
REMARK    2  A    between atoms: C4_4  and  N1_5
REMARK    3  A    between atoms: N1_5  and  C5_8
ROOT
HETATM    1  C4  UNL     1      23.686   0.451  26.060  1.00  0.00     0.237 C
ENDROOT
BRANCH   1   2
HETATM    2  C3  UNL     1      24.413   0.954  24.849  1.00  0.00     0.014 C
HETATM    3  C2  UNL     1      25.839   1.272  25.139  1.00  0.00     0.034 C
HETATM    4  C1  UNL     1      25.901   2.803  25.319  1.00  0.00     0.232 C
HETATM    5  N3  UNL     1      25.820   3.385  24.017  1.00  0.00    -0.075 N
HETATM    6  C9  UNL     1      24.641   2.909  23.323  1.00  0.00     0.232 C
ATOM      7  H32 UNL     1      25.854   4.404  24.054  1.00  0.00     0.277 HD
ATOM      8  H31 UNL     1      26.669   3.224  23.476  1.00  0.00     0.277 HD
HETATM    9  C8  UNL     1      23.720   2.147  24.245  1.00  0.00     0.034 C
ENDBRANCH   1   2
BRANCH   1  10
HETATM   10  N1  UNL     1      22.265   0.444  25.806  1.00  0.00    -0.067 N
ATOM     11  H12 UNL     1      21.773   1.077  26.437  1.00  0.00     0.277 HD
ATOM     12  H11 UNL     1      22.045   0.897  24.919  1.00  0.00     0.277 HD
BRANCH  10  13
HETATM   13  C5  UNL     1      21.710  -0.895  25.865  1.00  0.00     0.236 C
HETATM   14  C6  UNL     1      22.409  -1.745  26.900  1.00  0.00     0.267 C
HETATM   15  N2  UNL     1      22.315  -2.857  25.975  1.00  0.00    -0.071 N
HETATM   16  C7  UNL     1      22.271  -1.895  24.896  1.00  0.00     0.267 C
ATOM     17  H22 UNL     1      23.011  -3.603  25.981  1.00  0.00     0.277 HD
ATOM     18  H21 UNL     1      21.584  -3.561  26.077  1.00  0.00     0.277 HD
ENDBRANCH  10  13
ENDBRANCH   1  10
TORSDOF 3
ENDMDL