MODEL 5
REMARK VINA RESULT: -4.767220550      3.304      5.059
REMARK  3 active torsions:
REMARK  status: ('A' for Active; 'I' for Inactive)
REMARK    1  A    between atoms: C3_3  and  N1_4
REMARK    2  A    between atoms: N1_4  and  C4_6
REMARK    3  A    between atoms: C4_6  and  C5_7
ROOT
HETATM    1  C5  UNL     1      23.274  -0.149  26.480  1.00  0.00     0.228 C
HETATM    2  C6  UNL     1      22.610  -1.472  26.635  1.00  0.00     0.266 C
HETATM    3  N2  UNL     1      21.860  -1.470  27.892  1.00  0.00    -0.071 N
ATOM      4  H21 UNL     1      21.397  -2.366  28.040  1.00  0.00     0.277 HD
ATOM      5  H22 UNL     1      21.040  -0.868  27.824  1.00  0.00     0.277 HD
HETATM    6  C7  UNL     1      22.657  -1.117  29.021  1.00  0.00     0.259 C
HETATM    7  C8  UNL     1      23.346   0.216  28.753  1.00  0.00     0.260 C
HETATM    8  N3  UNL     1      24.214  -0.010  27.589  1.00  0.00    -0.066 N
ATOM      9  H31 UNL     1      24.927   0.705  27.451  1.00  0.00     0.277 HD
ATOM     10  H32 UNL     1      24.862  -0.791  27.692  1.00  0.00     0.277 HD
ENDROOT
BRANCH   1  11
HETATM   11  C4  UNL     1      23.904   0.065  25.136  1.00  0.00     0.149 C
BRANCH  11  12
HETATM   12  N1  UNL     1      23.630   1.409  24.717  1.00  0.00    -0.415 N
ATOM     13  H1  UNL     1      22.709   1.678  24.373  1.00  0.00     0.153 HD
BRANCH  12  14
HETATM   14  C3  UNL     1      24.678   2.338  24.797  1.00  0.00     0.076 C
HETATM   15  C2  UNL     1      25.143   3.109  23.624  1.00  0.00     0.024 C
HETATM   16  C1  UNL     1      26.539   3.092  24.288  1.00  0.00     0.004 C
HETATM   17  C9  UNL     1      26.081   1.823  24.989  1.00  0.00     0.024 C
ENDBRANCH  12  14
ENDBRANCH  11  12
ENDBRANCH   1  11
TORSDOF 3
ENDMDL