MODEL 4
REMARK VINA RESULT: -5.466065766      1.310      2.433
REMARK  3 active torsions:
REMARK  status: ('A' for Active; 'I' for Inactive)
REMARK    1  A    between atoms: C2_2  and  C3_3
REMARK    2  A    between atoms: C3_3  and  C4_4
REMARK    3  A    between atoms: C4_4  and  N1_5
ROOT
HETATM    1  N1  UNL     1      24.571   1.442  24.758  1.00  0.00    -0.181 N
HETATM    2  C5  UNL     1      25.937   1.387  25.290  1.00  0.00     0.272 A
HETATM    3  N2  UNL     1      26.817   2.355  24.724  1.00  0.00    -0.347 N
ATOM      4  H2  UNL     1      27.773   2.334  25.080  1.00  0.00     0.163 HD
HETATM    5  C6  UNL     1      26.590   3.235  23.849  1.00  0.00     0.204 A
HETATM    6  N3  UNL     1      27.565   4.154  23.361  1.00  0.00    -0.063 NA
HETATM    7  N4  UNL     1      25.291   3.336  23.299  1.00  0.00    -0.164 N
ATOM      8  H4  UNL     1      25.066   4.033  22.589  1.00  0.00     0.187 HD
HETATM    9  C7  UNL     1      24.297   2.411  23.787  1.00  0.00     0.681 A
HETATM   10  N5  UNL     1      23.140   2.545  23.257  1.00  0.00    -0.234 N
ATOM     11  H51 UNL     1      22.941   3.251  22.548  1.00  0.00     0.174 HD
ATOM     12  H52 UNL     1      22.437   1.891  23.602  1.00  0.00     0.174 HD
ENDROOT
BRANCH   1  13
HETATM   13  C4  UNL     1      23.623   0.527  25.253  1.00  0.00     0.084 C
BRANCH  13  14
HETATM   14  C3  UNL     1      23.864  -0.155  26.540  1.00  0.00     0.045 C
BRANCH  14  15
HETATM   15  C2  UNL     1      23.135   0.593  27.693  1.00  0.00     0.001 C
HETATM   16  C1  UNL     1      23.493  -0.206  28.944  1.00  0.00     0.005 C
ENDBRANCH  14  15
ENDBRANCH  13  14
ENDBRANCH   1  13
TORSDOF 3
ENDMDL