MODEL 2
REMARK VINA RESULT: -6.673795144      4.587      7.419
REMARK  15 active torsions:
REMARK  status: ('A' for Active; 'I' for Inactive)
REMARK    1  A    between atoms: C5_7  and  C6_8
REMARK    2  A    between atoms: C6_8  and  O3_9
REMARK    3  A    between atoms: C7_11  and  O4_12
REMARK    4  A    between atoms: C8_14  and  O5_15
REMARK    5  A    between atoms: N1_17  and  C9_18
REMARK    6  A    between atoms: C9_18  and  C10_19
REMARK    7  A    between atoms: C10_19  and  N2_20
REMARK    8  A    between atoms: N2_20  and  C11_23
REMARK    9  A    between atoms: C11_23  and  C12_24
REMARK   10  A    between atoms: C12_24  and  N3_25
REMARK   11  A    between atoms: N3_25  and  C13_28
REMARK   12  A    between atoms: C13_28  and  C14_29
REMARK   13  A    between atoms: C14_29  and  C15_30
REMARK   14  A    between atoms: C15_30  and  C16_31
REMARK   15  A    between atoms: C16_31  and  O6_32
ROOT
HETATM    1  O1  UNL     1      53.430  11.401  17.448  1.00  0.00    -0.268 OA
HETATM    2  C1  UNL     1      54.159  11.535  16.409  1.00  0.00     0.253 C
HETATM    3  C2  UNL     1      53.649  10.765  15.203  1.00  0.00     0.141 C
HETATM    4  C3  UNL     1      54.591  11.000  14.188  1.00  0.00    -0.043 C
HETATM    5  C4  UNL     1      55.386  11.254  13.465  1.00  0.00     0.059 C
HETATM    6  O2  UNL     1      56.405  11.634  12.704  1.00  0.00    -0.293 OA
HETATM    7  C5  UNL     1      57.432  12.443  13.382  1.00  0.00     0.196 C
HETATM    8  C7  UNL     1      56.709  13.156  14.518  1.00  0.00     0.199 C
HETATM    9  C8  UNL     1      56.531  12.268  15.692  1.00  0.00     0.254 C
HETATM   10  N1  UNL     1      55.318  12.340  16.454  1.00  0.00    -0.318 N
ENDROOT
BRANCH  10  11
HETATM   11  C9  UNL     1      55.264  13.387  17.506  1.00  0.00     0.156 C
BRANCH  11  12
HETATM   12  C10 UNL     1      54.639  14.650  17.041  1.00  0.00     0.252 C
BRANCH  12  13
HETATM   13  N2  UNL     1      54.546  15.617  18.149  1.00  0.00    -0.072 N
ATOM     14  H22 UNL     1      54.356  16.560  17.811  1.00  0.00     0.277 HD
ATOM     15  H21 UNL     1      53.700  15.476  18.702  1.00  0.00     0.277 HD
BRANCH  13  16
HETATM   16  C11 UNL     1      55.709  15.576  18.955  1.00  0.00     0.259 C
BRANCH  16  17
HETATM   17  C12 UNL     1      55.804  16.754  19.868  1.00  0.00     0.259 C
BRANCH  17  18
HETATM   18  N3  UNL     1      56.022  16.358  21.257  1.00  0.00    -0.074 N
ATOM     19  H32 UNL     1      56.018  17.136  21.918  1.00  0.00     0.277 HD
ATOM     20  H31 UNL     1      55.242  15.851  21.674  1.00  0.00     0.277 HD
BRANCH  18  21
HETATM   21  C13 UNL     1      57.296  15.594  21.225  1.00  0.00     0.232 C
BRANCH  21  22
HETATM   22  C14 UNL     1      57.124  14.313  21.981  1.00  0.00     0.029 C
BRANCH  22  23
HETATM   23  C15 UNL     1      55.884  14.381  22.833  1.00  0.00     0.028 C
BRANCH  23  24
HETATM   24  C16 UNL     1      55.862  13.250  23.815  1.00  0.00     0.164 C
BRANCH  24  25
HETATM   25  O6  UNL     1      56.897  12.324  23.549  1.00  0.00    -0.401 OA
ATOM     26  H6  UNL     1      56.614  11.663  22.928  1.00  0.00     0.209 HD
ENDBRANCH  24  25
ENDBRANCH  23  24
ENDBRANCH  22  23
ENDBRANCH  21  22
ENDBRANCH  18  21
ENDBRANCH  17  18
ENDBRANCH  16  17
ENDBRANCH  13  16
ENDBRANCH  12  13
ENDBRANCH  11  12
ENDBRANCH  10  11
BRANCH   9  27
HETATM   27  O5  UNL     1      57.626  12.652  16.584  1.00  0.00    -0.374 OA
ATOM     28  H5  UNL     1      58.219  11.912  16.543  1.00  0.00     0.212 HD
ENDBRANCH   9  27
BRANCH   8  29
HETATM   29  O4  UNL     1      55.558  13.727  14.015  1.00  0.00    -0.388 OA
ATOM     30  H4  UNL     1      55.696  13.927  13.096  1.00  0.00     0.210 HD
ENDBRANCH   8  29
BRANCH   7  31
HETATM   31  C6  UNL     1      57.858  13.474  12.375  1.00  0.00     0.200 C
BRANCH  31  32
HETATM   32  O3  UNL     1      58.399  12.856  11.254  1.00  0.00    -0.398 OA
ATOM     33  H3  UNL     1      57.920  12.061  11.054  1.00  0.00     0.209 HD
ENDBRANCH  31  32
ENDBRANCH   7  31
TORSDOF 15
ENDMDL