MODEL 3
REMARK VINA RESULT: -6.682830781      2.450      3.663
REMARK  10 active torsions:
REMARK  status: ('A' for Active; 'I' for Inactive)
REMARK    1  A    between atoms: N1_2  and  C2_5
REMARK    2  A    between atoms: C2_5  and  C3_6
REMARK    3  A    between atoms: C3_6  and  N2_7
REMARK    4  A    between atoms: N2_7  and  C4_10
REMARK    5  A    between atoms: C4_10  and  C5_11
REMARK    6  A    between atoms: C5_11  and  N3_12
REMARK    7  A    between atoms: N3_12  and  C6_14
REMARK    8  A    between atoms: C6_14  and  C7_15
REMARK    9  A    between atoms: C7_15  and  N4_17
REMARK   10  A    between atoms: N4_17  and  C9_19
ROOT
HETATM    1  N4  UNL     1      55.742  16.351  21.146  1.00  0.00    -0.217 N
ATOM      2  H4  UNL     1      55.057  16.625  21.851  1.00  0.00     0.178 HD
ENDROOT
BRANCH   1   3
HETATM    3  C7  UNL     1      57.034  15.853  21.605  1.00  0.00     0.133 C
HETATM    4  C8  UNL     1      57.028  14.362  21.439  1.00  0.00     0.038 C
BRANCH   3   5
HETATM    5  C6  UNL     1      58.042  16.561  20.757  1.00  0.00     0.080 C
BRANCH   5   6
HETATM    6  N3  UNL     1      58.657  17.715  21.236  1.00  0.00    -0.399 N
ATOM      7  H3  UNL     1      59.397  17.631  21.933  1.00  0.00     0.158 HD
BRANCH   6   8
HETATM    8  C5  UNL     1      58.283  18.998  20.782  1.00  0.00     0.146 C
BRANCH   8   9
HETATM    9  C4  UNL     1      58.468  19.917  22.019  1.00  0.00     0.251 C
BRANCH   9  10
HETATM   10  N2  UNL     1      57.217  20.560  22.303  1.00  0.00    -0.072 N
ATOM     11  H22 UNL     1      56.790  20.160  23.138  1.00  0.00     0.277 HD
ATOM     12  H21 UNL     1      56.515  20.301  21.610  1.00  0.00     0.277 HD
BRANCH  10  13
HETATM   13  C3  UNL     1      57.312  21.981  22.417  1.00  0.00     0.259 C
BRANCH  13  14
HETATM   14  C2  UNL     1      58.575  22.608  21.856  1.00  0.00     0.259 C
BRANCH  14  15
HETATM   15  N1  UNL     1      59.142  23.409  22.941  1.00  0.00    -0.077 N
HETATM   16  C1  UNL     1      60.514  23.767  22.760  1.00  0.00     0.267 C
ATOM     17  H12 UNL     1      59.013  22.937  23.836  1.00  0.00     0.276 HD
ATOM     18  H11 UNL     1      58.575  24.243  23.100  1.00  0.00     0.276 HD
ENDBRANCH  14  15
ENDBRANCH  13  14
ENDBRANCH  10  13
ENDBRANCH   9  10
ENDBRANCH   8   9
ENDBRANCH   6   8
ENDBRANCH   5   6
ENDBRANCH   3   5
ENDBRANCH   1   3
BRANCH   1  19
HETATM   19  C9  UNL     1      55.410  16.466  19.899  1.00  0.00     0.683 A
HETATM   20  N5  UNL     1      55.060  15.432  19.114  1.00  0.00    -0.154 N
HETATM   21  C10 UNL     1      54.651  15.614  17.827  1.00  0.00     0.290 A
ATOM     22  H5  UNL     1      55.102  14.486  19.493  1.00  0.00     0.187 HD
HETATM   23  O1  UNL     1      54.331  14.632  17.122  1.00  0.00    -0.265 OA
HETATM   24  C11 UNL     1      54.581  16.873  17.274  1.00  0.00     0.152 A
HETATM   25  C12 UNL     1      54.945  17.937  18.086  1.00  0.00     0.159 A
HETATM   26  N8  UNL     1      54.212  17.316  16.061  1.00  0.00    -0.296 N
HETATM   27  N6  UNL     1      55.346  17.703  19.360  1.00  0.00    -0.174 N
HETATM   28  N7  UNL     1      54.786  19.024  17.328  1.00  0.00    -0.287 N
ATOM     29  H6  UNL     1      55.611  18.499  19.939  1.00  0.00     0.186 HD
HETATM   30  C13 UNL     1      55.043  20.372  17.756  1.00  0.00     0.163 C
HETATM   31  C14 UNL     1      54.347  18.670  16.112  1.00  0.00     0.330 A
HETATM   32  O2  UNL     1      54.099  19.459  15.172  1.00  0.00    -0.246 OA
HETATM   33  C15 UNL     1      53.751  16.578  14.900  1.00  0.00     0.161 C
ENDBRANCH   1  19
TORSDOF 10
ENDMDL