MODEL 4
REMARK VINA RESULT: -5.852360555      2.957      7.150
REMARK  14 active torsions:
REMARK  status: ('A' for Active; 'I' for Inactive)
REMARK    1  A    between atoms: N1_2  and  C3_4
REMARK    2  A    between atoms: N1_2  and  C5_8
REMARK    3  A    between atoms: C3_4  and  C4_5
REMARK    4  A    between atoms: C4_5  and  O1_6
REMARK    5  A    between atoms: C5_8  and  C6_9
REMARK    6  A    between atoms: C7_11  and  O3_12
REMARK    7  A    between atoms: O3_12  and  C8_13
REMARK    8  A    between atoms: C8_13  and  C9_14
REMARK    9  A    between atoms: C9_14  and  C10_15
REMARK   10  A    between atoms: C10_15  and  C11_16
REMARK   11  A    between atoms: C11_16  and  C12_17
REMARK   12  A    between atoms: C12_17  and  N2_18
REMARK   13  A    between atoms: C14_26  and  O4_27
REMARK   14  A    between atoms: C15_29  and  O5_30
ROOT
HETATM    1  C6  UNL     1      56.446  15.047  14.121  1.00  0.00     0.185 C
HETATM    2  O2  UNL     1      56.001  15.804  15.233  1.00  0.00    -0.329 OA
HETATM    3  C7  UNL     1      55.007  15.128  15.940  1.00  0.00     0.472 C
HETATM    4  N5  UNL     1      53.790  15.006  15.203  1.00  0.00     0.004 N
ATOM      5  H51 UNL     1      53.003  15.483  15.644  1.00  0.00     0.286 HD
ATOM      6  H52 UNL     1      53.399  14.064  15.226  1.00  0.00     0.286 HD
HETATM    7  C14 UNL     1      54.065  15.481  13.850  1.00  0.00     0.356 C
HETATM    8  C15 UNL     1      55.234  14.595  13.394  1.00  0.00     0.205 C
ENDROOT
BRANCH   3   9
HETATM    9  O3  UNL     1      55.531  13.996  16.478  1.00  0.00    -0.339 OA
BRANCH   9  10
HETATM   10  C8  UNL     1      55.355  13.803  17.809  1.00  0.00     0.172 C
BRANCH  10  11
HETATM   11  C9  UNL     1      55.624  14.975  18.701  1.00  0.00     0.026 C
BRANCH  11  12
HETATM   12  C10 UNL     1      55.950  14.517  20.083  1.00  0.00     0.004 C
BRANCH  12  13
HETATM   13  C11 UNL     1      56.188  15.693  21.033  1.00  0.00     0.020 C
BRANCH  13  14
HETATM   14  C12 UNL     1      57.228  16.572  20.326  1.00  0.00     0.122 C
BRANCH  14  15
HETATM   15  N2  UNL     1      58.269  16.982  21.215  1.00  0.00    -0.367 N
HETATM   16  C13 UNL     1      58.750  18.155  21.165  1.00  0.00     0.196 C
HETATM   17  N3  UNL     1      59.793  18.477  22.099  1.00  0.00    -0.067 NA
HETATM   18  N4  UNL     1      58.266  19.085  20.228  1.00  0.00    -0.067 NA
ATOM     19  H2  UNL     1      58.632  16.321  21.901  1.00  0.00     0.161 HD
ENDBRANCH  14  15
ENDBRANCH  13  14
ENDBRANCH  12  13
ENDBRANCH  11  12
ENDBRANCH  10  11
ENDBRANCH   9  10
ENDBRANCH   3   9
BRANCH   1  20
HETATM   20  C5  UNL     1      57.347  15.966  13.370  1.00  0.00     0.271 C
BRANCH  20  21
HETATM   21  N1  UNL     1      58.416  15.373  12.645  1.00  0.00    -0.070 N
HETATM   22  C1  UNL     1      58.234  15.462  11.197  1.00  0.00     0.272 C
HETATM   23  C2  UNL     1      59.603  16.185  12.919  1.00  0.00     0.272 C
BRANCH  21  24
HETATM   24  C3  UNL     1      58.749  14.037  13.038  1.00  0.00     0.262 C
BRANCH  24  25
HETATM   25  C4  UNL     1      58.367  13.029  11.965  1.00  0.00     0.192 C
BRANCH  25  26
HETATM   26  O1  UNL     1      57.488  12.074  12.471  1.00  0.00    -0.399 OA
ATOM     27  H1  UNL     1      57.043  11.615  11.767  1.00  0.00     0.209 HD
ENDBRANCH  25  26
ENDBRANCH  24  25
ENDBRANCH  21  24
ENDBRANCH  20  21
ENDBRANCH   1  20
BRANCH   7  28
HETATM   28  O4  UNL     1      52.974  15.352  13.017  1.00  0.00    -0.368 OA
ATOM     29  H4  UNL     1      53.205  14.986  12.172  1.00  0.00     0.212 HD
ENDBRANCH   7  28
BRANCH   8  30
HETATM   30  O5  UNL     1      54.857  13.280  13.732  1.00  0.00    -0.389 OA
ATOM     31  H5  UNL     1      54.624  12.760  12.973  1.00  0.00     0.210 HD
ENDBRANCH   8  30
TORSDOF 14
ENDMDL