MODEL 5
REMARK VINA RESULT: -6.740569734      2.675      4.238
REMARK  14 active torsions:
REMARK  status: ('A' for Active; 'I' for Inactive)
REMARK    1  A    between atoms: N2_4  and  N3_6
REMARK       I    between atoms: N3_6  and  C1_8
REMARK    2  A    between atoms: N5_10  and  N6_12
REMARK       I    between atoms: N6_12  and  C2_14
REMARK    3  A    between atoms: C2_14  and  O2_16
REMARK    4  A    between atoms: O2_16  and  C3_17
REMARK    5  A    between atoms: C3_17  and  C4_18
REMARK    6  A    between atoms: C4_18  and  C5_19
REMARK    7  A    between atoms: C5_19  and  C6_20
REMARK    8  A    between atoms: C6_20  and  O3_21
REMARK    9  A    between atoms: O3_21  and  N7_22
REMARK   10  A    between atoms: C7_23  and  C8_24
REMARK   11  A    between atoms: C8_24  and  O4_25
REMARK   12  A    between atoms: C11_29  and  C12_30
REMARK   13  A    between atoms: C12_30  and  O5_31
REMARK   14  A    between atoms: O5_31  and  N8_32
ROOT
HETATM    1  C3  UNL     1      55.408  17.266  18.817  1.00  0.00     0.180 C
ENDROOT
BRANCH   1   2
HETATM    2  O2  UNL     1      56.163  16.999  19.976  1.00  0.00    -0.303 OA
BRANCH   2   3
HETATM    3  C2  UNL     1      57.220  17.732  20.428  1.00  0.00     0.379 C
HETATM    4  N6  UNL     1      57.027  18.894  21.256  1.00  0.00    -0.243 N
ATOM      5  H6  UNL     1      56.083  19.183  21.514  1.00  0.00     0.192 HD
HETATM    6  O1  UNL     1      58.382  17.415  20.138  1.00  0.00    -0.237 OA
BRANCH   4   7
HETATM    7  N5  UNL     1      58.122  19.625  21.706  1.00  0.00    -0.268 N
HETATM    8  C1  UNL     1      58.048  20.901  21.737  1.00  0.00     0.223 C
HETATM    9  N3  UNL     1      56.870  21.557  21.320  1.00  0.00    -0.258 N
HETATM   10  N4  UNL     1      59.155  21.645  22.192  1.00  0.00    -0.061 NA
ATOM     11  H3  UNL     1      55.959  21.214  21.625  1.00  0.00     0.191 HD
ATOM     12  H5  UNL     1      58.972  19.149  22.008  1.00  0.00     0.190 HD
BRANCH   9  13
HETATM   13  N2  UNL     1      56.955  22.681  20.485  1.00  0.00    -0.247 N
HETATM   14  N1  UNL     1      56.151  22.818  19.494  1.00  0.00    -0.331 N
ATOM     15  H12 UNL     1      55.451  22.095  19.325  1.00  0.00     0.178 HD
ATOM     16  H11 UNL     1      56.213  23.636  18.887  1.00  0.00     0.178 HD
ATOM     17  H2  UNL     1      57.660  23.395  20.667  1.00  0.00     0.207 HD
ENDBRANCH   9  13
ENDBRANCH   4   7
ENDBRANCH   2   3
ENDBRANCH   1   2
BRANCH   1  18
HETATM   18  C4  UNL     1      54.862  15.995  18.236  1.00  0.00     0.029 C
BRANCH  18  19
HETATM   19  C5  UNL     1      55.743  14.799  18.454  1.00  0.00     0.030 C
BRANCH  19  20
HETATM   20  C6  UNL     1      55.676  13.907  17.214  1.00  0.00     0.194 C
BRANCH  20  21
HETATM   21  O3  UNL     1      56.107  14.662  16.163  1.00  0.00    -0.303 OA
BRANCH  21  22
HETATM   22  N7  UNL     1      55.978  14.145  14.979  1.00  0.00    -0.184 NA
HETATM   23  C7  UNL     1      55.552  15.048  13.945  1.00  0.00     0.110 C
HETATM   24  C9  UNL     1      56.714  15.292  13.020  1.00  0.00     0.026 C
HETATM   25  C10 UNL     1      57.805  14.433  13.615  1.00  0.00     0.026 C
HETATM   26  C11 UNL     1      57.096  13.419  14.493  1.00  0.00     0.113 C
BRANCH  23  27
HETATM   27  C8  UNL     1      55.031  16.335  14.524  1.00  0.00     0.186 C
BRANCH  27  28
HETATM   28  O4  UNL     1      56.084  17.252  14.619  1.00  0.00    -0.399 OA
ATOM     29  H4  UNL     1      55.832  17.953  15.208  1.00  0.00     0.209 HD
ENDBRANCH  27  28
ENDBRANCH  23  27
BRANCH  26  30
HETATM   30  C12 UNL     1      56.586  12.256  13.630  1.00  0.00     0.222 C
BRANCH  30  31
HETATM   31  O5  UNL     1      56.911  11.038  14.215  1.00  0.00    -0.286 OA
BRANCH  31  32
HETATM   32  N8  UNL     1      56.540  10.965  15.496  1.00  0.00    -0.311 N
ATOM     33  H82 UNL     1      55.630  11.284  15.827  1.00  0.00     0.184 HD
ATOM     34  H81 UNL     1      57.261  10.559  16.093  1.00  0.00     0.184 HD
ENDBRANCH  31  32
ENDBRANCH  30  31
ENDBRANCH  26  30
ENDBRANCH  21  22
ENDBRANCH  20  21
ENDBRANCH  19  20
ENDBRANCH  18  19
ENDBRANCH   1  18
TORSDOF 14
ENDMDL