MODEL 2
REMARK VINA RESULT: -6.717822556      2.237      5.539
REMARK  13 active torsions:
REMARK  status: ('A' for Active; 'I' for Inactive)
REMARK    1  A    between atoms: O1_2  and  C2_3
REMARK    2  A    between atoms: C5_6  and  O2_7
REMARK       I    between atoms: N1_9  and  C6_10
REMARK       I    between atoms: C6_10  and  N4_22
REMARK    3  A    between atoms: N2_11  and  N3_13
REMARK    4  A    between atoms: N3_13  and  C7_15
REMARK    5  A    between atoms: C7_15  and  C8_16
REMARK    6  A    between atoms: C7_15  and  C9_19
REMARK    7  A    between atoms: C8_16  and  O3_17
REMARK    8  A    between atoms: C9_19  and  O4_20
REMARK    9  A    between atoms: N4_22  and  C10_24
REMARK   10  A    between atoms: C10_24  and  C11_25
REMARK   11  A    between atoms: C11_25  and  C12_26
REMARK   12  A    between atoms: C12_26  and  C13_27
REMARK   13  A    between atoms: C13_27  and  N5_28
ROOT
HETATM    1  C2  UNL     1      57.949  17.472  20.570  1.00  0.00     0.160 C
HETATM    2  C3  UNL     1      57.198  16.395  20.670  1.00  0.00     0.058 C
HETATM    3  C4  UNL     1      57.145  15.120  21.402  1.00  0.00     0.114 C
HETATM    4  C5  UNL     1      55.630  15.318  21.247  1.00  0.00     0.248 C
HETATM    5  N1  UNL     1      55.992  16.008  20.024  1.00  0.00    -0.157 N
HETATM    6  C6  UNL     1      55.508  16.270  18.729  1.00  0.00     0.697 C
HETATM    7  N2  UNL     1      55.304  17.462  18.313  1.00  0.00    -0.136 N
ATOM      8  H2  UNL     1      55.492  18.256  18.925  1.00  0.00     0.205 HD
HETATM    9  N4  UNL     1      55.246  15.159  17.882  1.00  0.00    -0.225 N
ATOM     10  H4  UNL     1      54.501  15.235  17.189  1.00  0.00     0.177 HD
ENDROOT
BRANCH   7  11
HETATM   11  N3  UNL     1      54.818  17.673  17.008  1.00  0.00    -0.313 N
ATOM     12  H3  UNL     1      55.013  16.970  16.296  1.00  0.00     0.181 HD
BRANCH  11  13
HETATM   13  C7  UNL     1      54.064  18.828  16.639  1.00  0.00     0.147 C
BRANCH  13  14
HETATM   14  C8  UNL     1      54.415  20.046  17.466  1.00  0.00     0.193 C
BRANCH  14  15
HETATM   15  O3  UNL     1      55.812  20.266  17.446  1.00  0.00    -0.399 OA
ATOM     16  H3  UNL     1      56.104  20.447  16.560  1.00  0.00     0.209 HD
ENDBRANCH  14  15
ENDBRANCH  13  14
BRANCH  13  17
HETATM   17  C9  UNL     1      54.336  19.164  15.192  1.00  0.00     0.193 C
BRANCH  17  18
HETATM   18  O4  UNL     1      55.609  18.732  14.878  1.00  0.00    -0.399 OA
ATOM     19  H4  UNL     1      55.759  18.894  13.954  1.00  0.00     0.209 HD
ENDBRANCH  17  18
ENDBRANCH  13  17
ENDBRANCH  11  13
ENDBRANCH   7  11
BRANCH   9  20
HETATM   20  C10 UNL     1      55.999  13.920  17.964  1.00  0.00     0.138 C
BRANCH  20  21
HETATM   21  C11 UNL     1      55.406  12.945  16.997  1.00  0.00     0.022 C
BRANCH  21  22
HETATM   22  C12 UNL     1      56.332  12.490  15.919  1.00  0.00     0.021 C
BRANCH  22  23
HETATM   23  C13 UNL     1      55.911  13.077  14.593  1.00  0.00     0.122 C
BRANCH  23  24
HETATM   24  N5  UNL     1      56.806  14.173  14.247  1.00  0.00    -0.367 N
HETATM   25  C14 UNL     1      56.333  15.372  14.299  1.00  0.00     0.196 C
HETATM   26  N6  UNL     1      54.996  15.642  14.674  1.00  0.00    -0.067 NA
HETATM   27  N7  UNL     1      57.253  16.420  13.949  1.00  0.00    -0.067 NA
ATOM     28  H5  UNL     1      57.773  14.000  13.974  1.00  0.00     0.161 HD
ENDBRANCH  23  24
ENDBRANCH  22  23
ENDBRANCH  21  22
ENDBRANCH  20  21
ENDBRANCH   9  20
BRANCH   4  29
HETATM   29  O2  UNL     1      55.184  16.169  22.237  1.00  0.00    -0.375 OA
ATOM     30  H2  UNL     1      55.281  17.066  21.941  1.00  0.00     0.212 HD
ENDBRANCH   4  29
BRANCH   1  31
HETATM   31  O1  UNL     1      59.108  17.655  21.306  1.00  0.00    -0.366 OA
HETATM   32  C1  UNL     1      59.314  18.641  22.270  1.00  0.00     0.209 C
ENDBRANCH   1  31
TORSDOF 13
ENDMDL