MODEL 5
REMARK VINA RESULT: -6.857420476      4.830      7.892
REMARK  12 active torsions:
REMARK  status: ('A' for Active; 'I' for Inactive)
REMARK    1  A    between atoms: N2_4  and  N3_6
REMARK    2  A    between atoms: N3_6  and  C1_8
REMARK    3  A    between atoms: C1_8  and  C2_9
REMARK    4  A    between atoms: C1_8  and  C6_17
REMARK    5  A    between atoms: C2_9  and  C3_10
REMARK    6  A    between atoms: C3_10  and  C4_11
REMARK    7  A    between atoms: C4_11  and  N4_12
REMARK    8  A    between atoms: C6_17  and  O1_18
REMARK    9  A    between atoms: C6_17  and  C7_20
REMARK   10  A    between atoms: N9_25  and  C8_26
REMARK   11  A    between atoms: C8_26  and  C9_27
REMARK   12  A    between atoms: C12_30  and  N10_31
ROOT
HETATM    1  C6  UNL     1      52.059  17.497  18.297  1.00  0.00     0.212 C
ENDROOT
BRANCH   1   2
HETATM    2  C1  UNL     1      53.218  18.376  18.728  1.00  0.00     0.137 C
BRANCH   2   3
HETATM    3  N3  UNL     1      53.165  19.607  17.999  1.00  0.00    -0.315 N
ATOM      4  H3  UNL     1      53.602  19.670  17.079  1.00  0.00     0.182 HD
BRANCH   3   5
HETATM    5  N2  UNL     1      52.523  20.715  18.537  1.00  0.00    -0.253 N
HETATM    6  N1  UNL     1      53.085  21.846  18.669  1.00  0.00    -0.331 N
ATOM      7  H12 UNL     1      54.054  21.927  18.361  1.00  0.00     0.178 HD
ATOM      8  H11 UNL     1      52.613  22.659  19.064  1.00  0.00     0.178 HD
ATOM      9  H2  UNL     1      51.554  20.615  18.841  1.00  0.00     0.207 HD
ENDBRANCH   3   5
ENDBRANCH   2   3
BRANCH   2  10
HETATM   10  C2  UNL     1      54.504  17.597  18.473  1.00  0.00     0.031 C
BRANCH  10  11
HETATM   11  C3  UNL     1      55.663  18.560  18.615  1.00  0.00     0.022 C
BRANCH  11  12
HETATM   12  C4  UNL     1      56.571  18.055  19.727  1.00  0.00     0.122 C
BRANCH  12  13
HETATM   13  N4  UNL     1      56.901  19.140  20.607  1.00  0.00    -0.367 N
HETATM   14  C5  UNL     1      58.118  19.369  20.907  1.00  0.00     0.196 C
HETATM   15  N5  UNL     1      59.141  18.557  20.378  1.00  0.00    -0.067 NA
HETATM   16  N6  UNL     1      58.433  20.434  21.768  1.00  0.00    -0.067 NA
ATOM     17  H4  UNL     1      56.162  19.728  20.992  1.00  0.00     0.161 HD
ENDBRANCH  12  13
ENDBRANCH  11  12
ENDBRANCH  10  11
ENDBRANCH   2  10
ENDBRANCH   1   2
BRANCH   1  18
HETATM   18  O1  UNL     1      52.501  16.292  17.755  1.00  0.00    -0.386 OA
ATOM     19  H1  UNL     1      53.447  16.273  17.667  1.00  0.00     0.210 HD
ENDBRANCH   1  18
BRANCH   1  20
HETATM   20  C7  UNL     1      51.290  17.136  19.534  1.00  0.00     0.144 A
HETATM   21  N7  UNL     1      50.127  16.477  19.618  1.00  0.00    -0.270 N
HETATM   22  N8  UNL     1      49.818  16.381  20.880  1.00  0.00    -0.225 N
ATOM     23  H7  UNL     1      49.580  16.116  18.835  1.00  0.00     0.190 HD
HETATM   24  N9  UNL     1      50.750  16.962  21.652  1.00  0.00    -0.218 N
ATOM     25  H8  UNL     1      48.979  15.923  21.234  1.00  0.00     0.210 HD
HETATM   26  N11 UNL     1      51.641  17.417  20.800  1.00  0.00    -0.268 N
ATOM     27  H11 UNL     1      52.488  17.919  21.065  1.00  0.00     0.190 HD
BRANCH  24  28
HETATM   28  C8  UNL     1      50.697  17.010  23.082  1.00  0.00     0.176 C
BRANCH  28  29
HETATM   29  C9  UNL     1      49.303  17.363  23.539  1.00  0.00     0.009 C
HETATM   30  C10 UNL     1      49.042  16.471  24.765  1.00  0.00     0.008 C
HETATM   31  C11 UNL     1      49.768  17.239  25.847  1.00  0.00     0.033 C
HETATM   32  C12 UNL     1      49.708  18.684  25.474  1.00  0.00     0.184 C
HETATM   33  C13 UNL     1      49.176  18.759  24.057  1.00  0.00     0.039 C
BRANCH  32  34
HETATM   34  N10 UNL     1      48.771  19.386  26.329  1.00  0.00    -0.075 N
ATOM     35 3H10 UNL     1      47.988  19.771  25.801  1.00  0.00     0.274 HD
ATOM     36 2H10 UNL     1      48.249  18.746  26.929  1.00  0.00     0.274 HD
ATOM     37 1H10 UNL     1      49.254  20.104  26.870  1.00  0.00     0.274 HD
ENDBRANCH  32  34
ENDBRANCH  28  29
ENDBRANCH  24  28
ENDBRANCH   1  20
TORSDOF 12
ENDMDL