MODEL 2
REMARK VINA RESULT: -6.367270572      3.242      4.410
REMARK  11 active torsions:
REMARK  status: ('A' for Active; 'I' for Inactive)
REMARK    1  A    between atoms: S1_2  and  C2_4
REMARK    2  A    between atoms: C2_4  and  C3_5
REMARK    3  A    between atoms: C3_5  and  C4_6
REMARK    4  A    between atoms: C4_6  and  O2_7
REMARK    5  A    between atoms: O2_7  and  C5_8
REMARK    6  A    between atoms: C6_10  and  C7_11
REMARK    7  A    between atoms: C7_11  and  O4_12
REMARK    8  A    between atoms: C8_14  and  N1_15
REMARK    9  A    between atoms: N1_15  and  C9_17
REMARK   10  A    between atoms: C9_17  and  C10_18
REMARK   11  A    between atoms: C10_18  and  N2_19
REMARK       I    between atoms: N2_19  and  C11_21
ROOT
HETATM    1  C5  UNL     1      56.250  14.213  20.352  1.00  0.00     0.285 C
HETATM    2  O3  UNL     1      57.465  13.868  21.022  1.00  0.00    -0.349 OA
HETATM    3  C6  UNL     1      56.971  14.522  22.135  1.00  0.00     0.175 C
HETATM    4  C8  UNL     1      56.237  15.469  21.233  1.00  0.00     0.167 C
ENDROOT
BRANCH   4   5
HETATM    5  N1  UNL     1      57.012  16.533  20.719  1.00  0.00    -0.389 N
ATOM      6  H1  UNL     1      58.028  16.445  20.709  1.00  0.00     0.159 HD
BRANCH   5   7
HETATM    7  C9  UNL     1      56.429  17.701  20.226  1.00  0.00     0.075 C
BRANCH   7   8
HETATM    8  C10 UNL     1      57.247  18.928  20.070  1.00  0.00     0.166 C
BRANCH   8   9
HETATM    9  N2  UNL     1      57.888  19.453  21.220  1.00  0.00    -0.360 N
HETATM   10  C11 UNL     1      57.940  20.868  21.394  1.00  0.00     0.182 C
HETATM   11  N3  UNL     1      57.158  21.657  20.732  1.00  0.00    -0.374 N
HETATM   12  N4  UNL     1      58.871  21.435  22.310  1.00  0.00    -0.064 NA
ATOM     13  H32 UNL     1      56.492  21.251  20.075  1.00  0.00     0.158 HD
ATOM     14  H31 UNL     1      57.196  22.669  20.856  1.00  0.00     0.158 HD
ATOM     15  H2  UNL     1      58.304  18.829  21.913  1.00  0.00     0.162 HD
ENDBRANCH   8   9
ENDBRANCH   7   8
ENDBRANCH   5   7
ENDBRANCH   4   5
BRANCH   1  16
HETATM   16  O2  UNL     1      56.405  14.419  19.040  1.00  0.00    -0.358 OA
BRANCH  16  17
HETATM   17  C4  UNL     1      55.443  14.366  18.138  1.00  0.00     0.185 C
BRANCH  17  18
HETATM   18  C3  UNL     1      55.324  13.320  17.106  1.00  0.00     0.035 C
HETATM   19  C12 UNL     1      54.229  13.460  16.091  1.00  0.00     0.182 C
HETATM   20  O5  UNL     1      53.471  12.442  16.737  1.00  0.00    -0.389 OA
HETATM   21  C13 UNL     1      54.630  12.018  17.390  1.00  0.00     0.182 C
BRANCH  18  22
HETATM   22  C2  UNL     1      56.711  12.969  16.544  1.00  0.00     0.124 C
BRANCH  22  23
HETATM   23  S1  UNL     1      56.637  12.752  14.789  1.00  0.00     0.011 S
HETATM   24  C1  UNL     1      56.472  11.022  14.392  1.00  0.00     0.127 C
HETATM   25  O1  UNL     1      58.149  13.223  14.171  1.00  0.00    -0.258 OA
ENDBRANCH  22  23
ENDBRANCH  18  22
ENDBRANCH  17  18
ENDBRANCH  16  17
ENDBRANCH   1  16
BRANCH   3  26
HETATM   26  C7  UNL     1      56.121  13.648  23.000  1.00  0.00     0.198 C
BRANCH  26  27
HETATM   27  O4  UNL     1      56.815  12.504  23.455  1.00  0.00    -0.398 OA
ATOM     28  H4  UNL     1      56.741  12.386  24.394  1.00  0.00     0.209 HD
ENDBRANCH  26  27
ENDBRANCH   3  26
TORSDOF 11
ENDMDL