MODEL 4
REMARK VINA RESULT: -5.640971970      2.450      3.943
REMARK  15 active torsions:
REMARK  status: ('A' for Active; 'I' for Inactive)
REMARK    1  A    between atoms: C2_2  and  N1_3
REMARK    2  A    between atoms: N1_3  and  C3_4
REMARK       I    between atoms: N1_3  and  C9_15
REMARK    3  A    between atoms: C3_4  and  C4_5
REMARK    4  A    between atoms: C4_5  and  N2_6
REMARK    5  A    between atoms: N2_6  and  C5_7
REMARK    6  A    between atoms: N2_6  and  C7_11
REMARK    7  A    between atoms: C5_7  and  C6_8
REMARK    8  A    between atoms: C6_8  and  O1_9
REMARK    9  A    between atoms: C7_11  and  C8_12
REMARK   10  A    between atoms: C8_12  and  O2_13
REMARK   11  A    between atoms: C9_15  and  C10_17
REMARK   12  A    between atoms: C12_21  and  N4_22
REMARK   13  A    between atoms: N4_22  and  C13_24
REMARK   14  A    between atoms: C13_24  and  C14_25
REMARK   15  A    between atoms: C14_25  and  O4_26
ROOT
HETATM    1  C10 UNL     1      55.570  17.665  18.908  1.00  0.00     0.092 A
HETATM    2  C11 UNL     1      56.023  18.940  18.665  1.00  0.00     0.127 A
HETATM    3  N3  UNL     1      56.774  19.562  19.571  1.00  0.00    -0.201 N
ATOM      4  H3  UNL     1      57.101  20.508  19.375  1.00  0.00     0.183 HD
HETATM    5  C12 UNL     1      57.121  18.974  20.753  1.00  0.00     0.679 A
HETATM    6  N5  UNL     1      56.696  17.736  21.016  1.00  0.00    -0.176 N
ATOM      7  H5  UNL     1      56.946  17.281  21.894  1.00  0.00     0.186 HD
HETATM    8  C15 UNL     1      55.919  17.081  20.092  1.00  0.00     0.132 A
HETATM    9  N6  UNL     1      55.502  15.898  20.365  1.00  0.00    -0.384 N
ATOM     10  H61 UNL     1      55.763  15.462  21.249  1.00  0.00     0.157 HD
ATOM     11  H62 UNL     1      54.925  15.412  19.679  1.00  0.00     0.157 HD
ENDROOT
BRANCH   1  12
HETATM   12  C9  UNL     1      54.768  16.979  17.907  1.00  0.00     0.259 C
HETATM   13  N1  UNL     1      53.403  17.308  17.774  1.00  0.00    -0.347 N
HETATM   14  O3  UNL     1      55.295  16.087  17.158  1.00  0.00    -0.267 OA
BRANCH  13  15
HETATM   15  C2  UNL     1      52.689  18.273  18.550  1.00  0.00     0.121 C
HETATM   16  C1  UNL     1      51.663  17.704  19.466  1.00  0.00     0.026 C
ENDBRANCH  13  15
BRANCH  13  17
HETATM   17  C3  UNL     1      52.640  16.589  16.747  1.00  0.00     0.145 C
BRANCH  17  18
HETATM   18  C4  UNL     1      52.252  17.571  15.673  1.00  0.00     0.141 C
BRANCH  18  19
HETATM   19  N2  UNL     1      53.134  17.464  14.564  1.00  0.00    -0.388 N
BRANCH  19  20
HETATM   20  C5  UNL     1      52.799  16.405  13.702  1.00  0.00     0.084 C
BRANCH  20  21
HETATM   21  C6  UNL     1      53.964  15.568  13.213  1.00  0.00     0.208 C
BRANCH  21  22
HETATM   22  O1  UNL     1      54.877  15.402  14.283  1.00  0.00    -0.396 OA
ATOM     23  H1  UNL     1      55.758  15.388  13.927  1.00  0.00     0.209 HD
ENDBRANCH  21  22
ENDBRANCH  20  21
ENDBRANCH  19  20
BRANCH  19  24
HETATM   24  C7  UNL     1      53.622  18.674  14.015  1.00  0.00     0.148 C
BRANCH  24  25
HETATM   25  C8  UNL     1      54.865  19.097  14.780  1.00  0.00     0.183 C
BRANCH  25  26
HETATM   26  O2  UNL     1      55.776  18.044  14.881  1.00  0.00    -0.399 OA
ATOM     27  H2  UNL     1      56.013  17.883  15.787  1.00  0.00     0.209 HD
ENDBRANCH  25  26
ENDBRANCH  24  25
ENDBRANCH  19  24
ENDBRANCH  18  19
ENDBRANCH  17  18
ENDBRANCH  13  17
ENDBRANCH   1  12
BRANCH   5  28
HETATM   28  N4  UNL     1      57.843  19.595  21.599  1.00  0.00    -0.224 N
ATOM     29  H4  UNL     1      58.124  19.105  22.448  1.00  0.00     0.177 HD
BRANCH  28  30
HETATM   30  C13 UNL     1      58.275  20.934  21.421  1.00  0.00     0.164 C
BRANCH  30  31
HETATM   31  C14 UNL     1      57.698  21.869  22.473  1.00  0.00     0.184 C
BRANCH  31  32
HETATM   32  O4  UNL     1      56.305  21.951  22.363  1.00  0.00    -0.399 OA
ATOM     33  H4  UNL     1      55.895  21.956  23.220  1.00  0.00     0.209 HD
ENDBRANCH  31  32
ENDBRANCH  30  31
ENDBRANCH  28  30
ENDBRANCH   5  28
TORSDOF 15
ENDMDL