MODEL 4
REMARK VINA RESULT: -6.101466279      6.048      8.167
REMARK  13 active torsions:
REMARK  status: ('A' for Active; 'I' for Inactive)
REMARK    1  A    between atoms: N2_4  and  N3_6
REMARK    2  A    between atoms: N3_6  and  C1_8
REMARK    3  A    between atoms: C1_8  and  C2_9
REMARK    4  A    between atoms: C1_8  and  C6_17
REMARK    5  A    between atoms: C2_9  and  C3_10
REMARK    6  A    between atoms: C3_10  and  C4_11
REMARK    7  A    between atoms: C4_11  and  C5_12
REMARK    8  A    between atoms: C5_12  and  N4_13
REMARK    9  A    between atoms: C6_17  and  O1_18
REMARK   10  A    between atoms: O1_18  and  C7_19
REMARK   11  A    between atoms: C8_23  and  N6_24
REMARK   12  A    between atoms: C13_34  and  C14_35
REMARK   13  A    between atoms: C14_35  and  O5_36
ROOT
HETATM    1  C7  UNL     1      54.699  16.953  18.102  1.00  0.00     0.357 C
HETATM    2  N5  UNL     1      53.973  17.657  17.092  1.00  0.00    -0.001 N
ATOM      3  H51 UNL     1      53.818  18.648  17.278  1.00  0.00     0.285 HD
ATOM      4  H52 UNL     1      52.983  17.421  17.022  1.00  0.00     0.285 HD
HETATM    5  C8  UNL     1      54.764  17.365  15.914  1.00  0.00     0.442 C
HETATM    6  O4  UNL     1      55.289  16.081  16.116  1.00  0.00    -0.331 OA
HETATM    7  C13 UNL     1      54.786  15.605  17.300  1.00  0.00     0.206 C
ENDROOT
BRANCH   1   8
HETATM    8  O1  UNL     1      55.959  17.486  18.203  1.00  0.00    -0.355 OA
BRANCH   8   9
HETATM    9  C6  UNL     1      56.388  17.939  19.388  1.00  0.00     0.197 C
BRANCH   9  10
HETATM   10  C1  UNL     1      57.325  17.146  20.226  1.00  0.00     0.124 C
BRANCH  10  11
HETATM   11  N3  UNL     1      56.779  16.383  21.287  1.00  0.00    -0.316 N
ATOM     12  H3  UNL     1      57.400  15.753  21.795  1.00  0.00     0.182 HD
BRANCH  11  13
HETATM   13  N2  UNL     1      55.465  16.443  21.671  1.00  0.00    -0.253 N
HETATM   14  N1  UNL     1      54.875  15.494  22.277  1.00  0.00    -0.331 N
ATOM     15  H12 UNL     1      55.419  14.657  22.480  1.00  0.00     0.178 HD
ATOM     16  H11 UNL     1      53.897  15.539  22.562  1.00  0.00     0.178 HD
ATOM     17  H2  UNL     1      54.936  17.288  21.460  1.00  0.00     0.207 HD
ENDBRANCH  11  13
ENDBRANCH  10  11
BRANCH  10  18
HETATM   18  C2  UNL     1      58.319  18.179  20.795  1.00  0.00     0.029 C
BRANCH  18  19
HETATM   19  C3  UNL     1      57.757  19.554  20.840  1.00  0.00     0.004 C
BRANCH  19  20
HETATM   20  C4  UNL     1      58.339  20.287  22.021  1.00  0.00     0.027 C
BRANCH  20  21
HETATM   21  C5  UNL     1      57.990  21.757  21.996  1.00  0.00     0.229 C
BRANCH  21  22
HETATM   22  N4  UNL     1      56.598  21.947  22.391  1.00  0.00    -0.079 N
ATOM     23  H43 UNL     1      56.000  22.158  21.592  1.00  0.00     0.274 HD
ATOM     24  H42 UNL     1      56.159  21.072  22.678  1.00  0.00     0.274 HD
ATOM     25  H41 UNL     1      56.534  22.663  23.114  1.00  0.00     0.274 HD
ENDBRANCH  21  22
ENDBRANCH  20  21
ENDBRANCH  19  20
ENDBRANCH  18  19
ENDBRANCH  10  18
ENDBRANCH   9  10
ENDBRANCH   8   9
ENDBRANCH   1   8
BRANCH   7  26
HETATM   26  C14 UNL     1      55.609  14.612  18.007  1.00  0.00     0.200 C
BRANCH  26  27
HETATM   27  O5  UNL     1      55.246  14.598  19.345  1.00  0.00    -0.398 OA
ATOM     28  H5  UNL     1      55.506  13.767  19.725  1.00  0.00     0.209 HD
ENDBRANCH  26  27
ENDBRANCH   7  26
BRANCH   5  29
HETATM   29  N6  UNL     1      54.025  17.406  14.697  1.00  0.00    -0.259 N
HETATM   30  C9  UNL     1      53.943  16.282  13.962  1.00  0.00     0.105 A
HETATM   31  C10 UNL     1      53.254  16.216  12.773  1.00  0.00     0.092 A
HETATM   32  C11 UNL     1      52.627  17.362  12.332  1.00  0.00     0.250 A
HETATM   33  O2  UNL     1      51.967  17.396  11.243  1.00  0.00    -0.268 OA
HETATM   34  N7  UNL     1      52.727  18.475  13.094  1.00  0.00    -0.275 N
HETATM   35  C12 UNL     1      53.413  18.501  14.255  1.00  0.00     0.332 A
ATOM     36  H7  UNL     1      52.267  19.329  12.777  1.00  0.00     0.173 HD
HETATM   37  O3  UNL     1      53.491  19.546  14.942  1.00  0.00    -0.246 OA
ENDBRANCH   5  29
TORSDOF 13
ENDMDL