MODEL 1
REMARK VINA RESULT: -7.289127595      0.000      0.000
REMARK  14 active torsions:
REMARK  status: ('A' for Active; 'I' for Inactive)
REMARK       I    between atoms: C2_4  and  N3_6
REMARK    1  A    between atoms: N3_6  and  C3_8
REMARK    2  A    between atoms: C3_8  and  C4_9
REMARK    3  A    between atoms: C4_9  and  O1_10
REMARK    4  A    between atoms: O1_10  and  C5_11
REMARK    5  A    between atoms: C5_11  and  C6_12
REMARK    6  A    between atoms: C6_12  and  O2_13
REMARK    7  A    between atoms: O2_13  and  C7_14
REMARK    8  A    between atoms: C7_14  and  C8_15
REMARK    9  A    between atoms: C8_15  and  N4_16
REMARK   10  A    between atoms: N4_16  and  C9_18
REMARK   11  A    between atoms: C10_21  and  N6_22
REMARK   12  A    between atoms: N6_22  and  N7_24
REMARK   13  A    between atoms: C12_28  and  N8_29
REMARK   14  A    between atoms: N8_29  and  O3_31
ROOT
HETATM    1  C9  UNL     1      51.803  16.406  23.408  1.00  0.00     0.681 A
HETATM    2  N5  UNL     1      51.547  17.366  24.306  1.00  0.00    -0.175 N
ATOM      3  H5  UNL     1      52.298  18.003  24.571  1.00  0.00     0.186 HD
HETATM    4  C10 UNL     1      50.319  17.522  24.879  1.00  0.00     0.138 A
HETATM    5  C11 UNL     1      49.311  16.675  24.534  1.00  0.00     0.101 A
HETATM    6  C12 UNL     1      49.566  15.693  23.617  1.00  0.00     0.144 A
HETATM    7  N9  UNL     1      50.796  15.557  23.059  1.00  0.00    -0.175 N
ATOM      8  H9  UNL     1      50.967  14.817  22.378  1.00  0.00     0.186 HD
ENDROOT
BRANCH   1   9
HETATM    9  N4  UNL     1      52.949  16.255  22.865  1.00  0.00    -0.224 N
ATOM     10  H4  UNL     1      53.237  16.944  22.170  1.00  0.00     0.177 HD
BRANCH   9  11
HETATM   11  C8  UNL     1      53.872  15.179  23.163  1.00  0.00     0.164 C
BRANCH  11  12
HETATM   12  C7  UNL     1      55.013  15.147  22.190  1.00  0.00     0.188 C
BRANCH  12  13
HETATM   13  O2  UNL     1      56.157  14.544  22.640  1.00  0.00    -0.387 OA
BRANCH  13  14
HETATM   14  C6  UNL     1      57.240  14.586  21.783  1.00  0.00     0.193 C
BRANCH  14  15
HETATM   15  C5  UNL     1      56.880  14.663  20.326  1.00  0.00     0.193 C
BRANCH  15  16
HETATM   16  O1  UNL     1      57.280  15.789  19.679  1.00  0.00    -0.387 OA
BRANCH  16  17
HETATM   17  C4  UNL     1      57.665  16.832  20.495  1.00  0.00     0.187 C
BRANCH  17  18
HETATM   18  C3  UNL     1      57.051  18.152  20.092  1.00  0.00     0.148 C
BRANCH  18  19
HETATM   19  N3  UNL     1      58.001  19.235  20.125  1.00  0.00    -0.363 N
HETATM   20  C2  UNL     1      58.063  20.194  21.173  1.00  0.00     0.183 C
HETATM   21  N1  UNL     1      57.247  21.201  21.160  1.00  0.00    -0.369 N
HETATM   22  N2  UNL     1      59.022  19.999  22.192  1.00  0.00    -0.064 NA
HETATM   23  C1  UNL     1      57.343  22.163  22.254  1.00  0.00     0.148 C
ATOM     24  H1  UNL     1      56.563  21.317  20.413  1.00  0.00     0.161 HD
ATOM     25  H3  UNL     1      58.664  19.318  19.356  1.00  0.00     0.162 HD
ENDBRANCH  18  19
ENDBRANCH  17  18
ENDBRANCH  16  17
ENDBRANCH  15  16
ENDBRANCH  14  15
ENDBRANCH  13  14
ENDBRANCH  12  13
ENDBRANCH  11  12
ENDBRANCH   9  11
ENDBRANCH   1   9
BRANCH   4  26
HETATM   26  N6  UNL     1      50.103  18.556  25.823  1.00  0.00    -0.292 N
ATOM     27  H6  UNL     1      50.885  18.959  26.340  1.00  0.00     0.188 HD
BRANCH  26  28
HETATM   28  N7  UNL     1      48.810  19.012  26.032  1.00  0.00    -0.344 N
ATOM     29  H72 UNL     1      48.295  19.439  25.262  1.00  0.00     0.176 HD
ATOM     30  H71 UNL     1      48.397  18.911  26.959  1.00  0.00     0.176 HD
ENDBRANCH  26  28
ENDBRANCH   4  26
BRANCH   6  31
HETATM   31  N8  UNL     1      48.634  14.860  23.254  1.00  0.00    -0.250 N
ATOM     32  H8  UNL     1      48.671  14.450  22.321  1.00  0.00     0.196 HD
BRANCH  31  33
HETATM   33  O3  UNL     1      47.613  14.522  24.087  1.00  0.00    -0.284 OA
HETATM   34  C13 UNL     1      46.629  13.603  23.663  1.00  0.00     0.237 C
ENDBRANCH  31  33
ENDBRANCH   6  31
TORSDOF 14
ENDMDL