MODEL 1
REMARK VINA RESULT: -5.333203855      0.000      0.000
REMARK  7 active torsions:
REMARK  status: ('A' for Active; 'I' for Inactive)
REMARK    1  A    between atoms: N1_5  and  C5_6
REMARK    2  A    between atoms: C5_6  and  C6_7
REMARK    3  A    between atoms: C7_9  and  N2_10
REMARK    4  A    between atoms: N2_10  and  C8_11
REMARK    5  A    between atoms: N2_10  and  C10_14
REMARK    6  A    between atoms: C10_14  and  N3_16
REMARK    7  A    between atoms: N3_16  and  C12_19
ROOT
HETATM    1  N2  UNL     1       9.393   3.003  25.114  1.00  0.00    -0.158 N
ENDROOT
BRANCH   1   2
HETATM    2  C7  UNL     1       8.661   4.188  24.925  1.00  0.00     0.678 C
HETATM    3  N1  UNL     1       9.160   5.433  24.490  1.00  0.00    -0.217 N
HETATM    4  C4  UNL     1       8.352   6.346  23.664  1.00  0.00     0.143 C
HETATM    5  C3  UNL     1       6.911   5.901  23.618  1.00  0.00     0.045 C
HETATM    6  C2  UNL     1       6.581   5.346  24.981  1.00  0.00     0.096 C
HETATM    7  C1  UNL     1       5.120   5.056  25.154  1.00  0.00     0.032 C
HETATM    8  N4  UNL     1       7.373   4.135  25.173  1.00  0.00    -0.222 N
ATOM      9  H4  UNL     1       6.937   3.269  25.491  1.00  0.00     0.178 HD
BRANCH   3  10
HETATM   10  C5  UNL     1      10.480   5.882  24.829  1.00  0.00     0.156 C
BRANCH  10  11
HETATM   11  C6  UNL     1      10.458   7.195  25.596  1.00  0.00     0.135 C
HETATM   12 CL1  UNL     1       9.450   7.049  27.056  1.00  0.00    -0.129 Cl
ENDBRANCH  10  11
ENDBRANCH   3  10
ENDBRANCH   1   2
BRANCH   1  13
HETATM   13  C8  UNL     1       9.903   2.285  23.976  1.00  0.00     0.286 C
HETATM   14  C9  UNL     1      11.382   2.358  23.763  1.00  0.00     0.069 C
HETATM   15  F1  UNL     1       9.317   2.854  22.844  1.00  0.00    -0.227 F
ENDBRANCH   1  13
BRANCH   1  16
HETATM   16  C10 UNL     1       9.594   2.457  26.436  1.00  0.00     0.301 C
HETATM   17  C11 UNL     1       9.955   3.477  27.460  1.00  0.00     0.064 C
BRANCH  16  18
HETATM   18  N3  UNL     1       8.605   1.514  26.803  1.00  0.00    -0.050 N
ATOM     19  H32 UNL     1       7.916   1.414  26.057  1.00  0.00     0.280 HD
ATOM     20  H31 UNL     1       8.997   0.572  26.808  1.00  0.00     0.280 HD
BRANCH  18  21
HETATM   21  C12 UNL     1       7.948   1.791  28.059  1.00  0.00     0.180 C
HETATM   22  C13 UNL     1       8.024   0.623  29.021  1.00  0.00     0.039 C
HETATM   23  C14 UNL     1       6.463   1.996  27.726  1.00  0.00     0.039 C
ENDBRANCH  18  21
ENDBRANCH  16  18
ENDBRANCH   1  16
TORSDOF 7
ENDMDL