MODEL 4
REMARK VINA RESULT: -6.659987767      2.219      6.036
REMARK  7 active torsions:
REMARK  status: ('A' for Active; 'I' for Inactive)
REMARK    1  A    between atoms: C2_2  and  C3_3
REMARK    2  A    between atoms: C3_3  and  C4_4
REMARK    3  A    between atoms: C4_4  and  C5_5
REMARK    4  A    between atoms: C5_5  and  N1_6
REMARK    5  A    between atoms: N1_6  and  C6_9
REMARK    6  A    between atoms: C11_17  and  C13_19
REMARK    7  A    between atoms: C13_19  and  C14_20
ROOT
HETATM    1  C6  UNL     1       9.792   2.100  25.244  1.00  0.00     0.195 C
HETATM    2  C7  UNL     1       9.717   1.422  26.544  1.00  0.00     0.109 C
HETATM    3  C8  UNL     1       8.679   1.944  27.434  1.00  0.00     0.085 A
HETATM    4  N2  UNL     1       7.934   1.304  28.357  1.00  0.00    -0.354 N
ATOM      5  H2  UNL     1       7.990   0.307  28.566  1.00  0.00     0.166 HD
HETATM    6  C9  UNL     1       7.113   2.165  28.957  1.00  0.00     0.106 A
HETATM    7  C10 UNL     1       7.385   3.381  28.360  1.00  0.00     0.110 A
HETATM    8  N3  UNL     1       8.332   3.259  27.436  1.00  0.00    -0.336 N
HETATM    9  C11 UNL     1       8.976   4.158  26.496  1.00  0.00     0.042 C
HETATM   10  C12 UNL     1       7.965   5.242  26.182  1.00  0.00     0.039 C
HETATM   11  C16 UNL     1       9.109   3.392  25.155  1.00  0.00     0.064 C
ENDROOT
BRANCH   1  12
HETATM   12  N1  UNL     1      11.170   2.197  24.741  1.00  0.00    -0.070 N
ATOM     13  H12 UNL     1      11.729   1.402  25.050  1.00  0.00     0.277 HD
ATOM     14  H11 UNL     1      11.680   2.947  25.208  1.00  0.00     0.277 HD
BRANCH  12  15
HETATM   15  C5  UNL     1      11.225   2.343  23.332  1.00  0.00     0.233 C
BRANCH  15  16
HETATM   16  C4  UNL     1      11.027   1.093  22.530  1.00  0.00     0.031 C
BRANCH  16  17
HETATM   17  C3  UNL     1      12.210   0.936  21.592  1.00  0.00     0.028 C
BRANCH  17  18
HETATM   18  C2  UNL     1      12.093  -0.253  20.722  1.00  0.00    -0.037 C
HETATM   19  C1  UNL     1      12.482  -1.456  21.143  1.00  0.00     0.007 C
ENDBRANCH  17  18
ENDBRANCH  16  17
ENDBRANCH  15  16
ENDBRANCH  12  15
ENDBRANCH   1  12
BRANCH   9  20
HETATM   20  C13 UNL     1      10.292   4.615  26.901  1.00  0.00     0.109 C
BRANCH  20  21
HETATM   21  C14 UNL     1      11.105   5.569  26.149  1.00  0.00     0.242 C
HETATM   22  C15 UNL     1      11.016   7.024  26.497  1.00  0.00     0.090 C
HETATM   23  F1  UNL     1      11.038   5.397  24.763  1.00  0.00    -0.207 F
HETATM   24  F2  UNL     1      12.455   5.222  26.409  1.00  0.00    -0.207 F
ENDBRANCH  20  21
ENDBRANCH   9  20
TORSDOF 7
ENDMDL