MODEL 1
REMARK VINA RESULT: -6.942446778      0.000      0.000
REMARK  7 active torsions:
REMARK  status: ('A' for Active; 'I' for Inactive)
REMARK    1  A    between atoms: C3_5  and  N2_6
REMARK    2  A    between atoms: N2_6  and  C4_8
REMARK    3  A    between atoms: C4_8  and  C6_10
REMARK    4  A    between atoms: C6_10  and  C7_11
REMARK    5  A    between atoms: C7_11  and  C8_12
REMARK    6  A    between atoms: C11_17  and  C12_18
REMARK    7  A    between atoms: C12_18  and  C15_21
ROOT
HETATM    1  C1  UNL     1      10.927   1.529  22.942  1.00  0.00     0.089 C
HETATM    2  C2  UNL     1      10.587   2.143  24.243  1.00  0.00     0.094 A
HETATM    3  N1  UNL     1       9.845   1.425  25.095  1.00  0.00    -0.181 N
ATOM      4  H1  UNL     1       9.551   0.487  24.826  1.00  0.00     0.185 HD
HETATM    5  C3  UNL     1       9.475   1.907  26.298  1.00  0.00     0.684 A
HETATM    6  N3  UNL     1       9.888   3.140  26.614  1.00  0.00    -0.179 N
ATOM      7  H3  UNL     1       9.614   3.520  27.520  1.00  0.00     0.185 HD
HETATM    8  C11 UNL     1      10.648   3.913  25.806  1.00  0.00     0.112 A
HETATM    9  N4  UNL     1      10.968   3.384  24.636  1.00  0.00    -0.334 N
ATOM     10  H4  UNL     1      11.531   3.941  23.994  1.00  0.00     0.168 HD
ENDROOT
BRANCH   5  11
HETATM   11  N2  UNL     1       8.829   1.128  27.089  1.00  0.00    -0.199 N
ATOM     12  H2  UNL     1       8.971   0.124  26.979  1.00  0.00     0.183 HD
BRANCH  11  13
HETATM   13  C4  UNL     1       7.945   1.552  28.092  1.00  0.00     0.000 C
HETATM   14  C5  UNL     1       6.746   2.242  27.511  1.00  0.00     0.064 C
BRANCH  13  15
HETATM   15  C6  UNL     1       7.772   0.703  29.283  1.00  0.00     0.053 C
BRANCH  15  16
HETATM   16  C7  UNL     1       6.469   0.778  29.999  1.00  0.00     0.009 C
BRANCH  16  17
HETATM   17  C8  UNL     1       6.451   1.395  31.355  1.00  0.00    -0.023 C
HETATM   18  C9  UNL     1       6.017   2.865  31.145  1.00  0.00     0.009 C
HETATM   19  C10 UNL     1       5.447   0.726  32.244  1.00  0.00     0.009 C
ENDBRANCH  16  17
ENDBRANCH  15  16
ENDBRANCH  13  15
ENDBRANCH  11  13
ENDBRANCH   5  11
BRANCH   8  20
HETATM   20  C12 UNL     1      11.133   5.225  26.265  1.00  0.00     0.070 C
HETATM   21  C13 UNL     1      12.633   5.365  26.301  1.00  0.00     0.029 C
HETATM   22  C14 UNL     1      10.728   6.208  25.098  1.00  0.00     0.029 C
BRANCH  20  23
HETATM   23  C15 UNL     1      10.451   5.782  27.462  1.00  0.00     0.368 C
HETATM   24  F1  UNL     1      11.285   5.422  28.559  1.00  0.00    -0.213 F
HETATM   25  F2  UNL     1      10.560   7.197  27.478  1.00  0.00    -0.213 F
ENDBRANCH  20  23
ENDBRANCH   8  20
TORSDOF 7
ENDMDL