MODEL 3
REMARK VINA RESULT: -6.034002189      1.035      1.599
REMARK  8 active torsions:
REMARK  status: ('A' for Active; 'I' for Inactive)
REMARK    1  A    between atoms: C2_2  and  C5_5
REMARK    2  A    between atoms: C5_5  and  C6_6
REMARK    3  A    between atoms: C6_6  and  C7_7
REMARK    4  A    between atoms: C7_7  and  C8_8
REMARK    5  A    between atoms: C8_8  and  C9_9
REMARK    6  A    between atoms: C9_9  and  O1_10
REMARK    7  A    between atoms: C9_9  and  C14_18
REMARK    8  A    between atoms: O1_10  and  C10_11
ROOT
HETATM    1  C9  UNL     1       8.397   2.757  27.170  1.00  0.00     0.193 C
ENDROOT
BRANCH   1   2
HETATM    2  C8  UNL     1       7.523   1.733  27.828  1.00  0.00     0.038 C
BRANCH   2   3
HETATM    3  C7  UNL     1       8.150   0.804  28.782  1.00  0.00     0.003 C
BRANCH   3   4
HETATM    4  C6  UNL     1       7.204   0.539  29.928  1.00  0.00     0.001 C
BRANCH   4   5
HETATM    5  C5  UNL     1       6.499   1.763  30.406  1.00  0.00     0.008 C
BRANCH   5   6
HETATM    6  C2  UNL     1       5.774   1.489  31.707  1.00  0.00    -0.051 C
HETATM    7  C1  UNL     1       6.463   0.479  32.564  1.00  0.00     0.014 C
HETATM    8  C3  UNL     1       5.621   2.765  32.509  1.00  0.00     0.014 C
HETATM    9  C4  UNL     1       4.381   0.985  31.393  1.00  0.00     0.014 C
ENDBRANCH   5   6
ENDBRANCH   4   5
ENDBRANCH   3   4
ENDBRANCH   2   3
ENDBRANCH   1   2
BRANCH   1  10
HETATM   10  O1  UNL     1       8.665   2.420  25.836  1.00  0.00    -0.373 OA
BRANCH  10  11
HETATM   11  C10 UNL     1      10.010   2.377  25.535  1.00  0.00     0.149 C
HETATM   12  C11 UNL     1      10.317   1.166  24.626  1.00  0.00     0.061 C
HETATM   13  C12 UNL     1      10.168   1.721  23.248  1.00  0.00     0.235 C
HETATM   14  N1  UNL     1       9.855   3.132  23.371  1.00  0.00    -0.073 N
HETATM   15  C13 UNL     1      10.496   3.485  24.649  1.00  0.00     0.264 C
ATOM     16  H12 UNL     1      10.136   3.706  22.577  1.00  0.00     0.277 HD
ATOM     17  H11 UNL     1       8.862   3.360  23.311  1.00  0.00     0.277 HD
ENDBRANCH  10  11
ENDBRANCH   1  10
BRANCH   1  18
HETATM   18  C14 UNL     1       8.006   4.176  27.371  1.00  0.00     0.281 C
HETATM   19  F1  UNL     1       7.382   4.265  28.612  1.00  0.00    -0.204 F
HETATM   20 CL1  UNL     1       7.110   4.908  26.059  1.00  0.00    -0.063 Cl
HETATM   21 CL2  UNL     1       9.477   5.206  27.587  1.00  0.00    -0.063 Cl
ENDBRANCH   1  18
TORSDOF 8
ENDMDL