MODEL 2
REMARK VINA RESULT: -6.928093731      3.122      7.809
REMARK  7 active torsions:
REMARK  status: ('A' for Active; 'I' for Inactive)
REMARK    1  A    between atoms: C2_2  and  N1_3
REMARK    2  A    between atoms: C4_5  and  C5_6
REMARK    3  A    between atoms: C5_6  and  C6_7
REMARK    4  A    between atoms: C6_7  and  N2_8
REMARK    5  A    between atoms: N2_8  and  C7_10
REMARK    6  A    between atoms: C7_10  and  C8_11
REMARK    7  A    between atoms: C8_11  and  C9_12
ROOT
HETATM    1  N2  UNL     1       9.814   1.957  27.101  1.00  0.00    -0.401 N
ATOM      2  H2  UNL     1      10.630   1.562  26.635  1.00  0.00     0.158 HD
ENDROOT
BRANCH   1   3
HETATM    3  C6  UNL     1       8.743   1.107  27.380  1.00  0.00     0.124 C
BRANCH   3   4
HETATM    4  C5  UNL     1       7.583   2.005  27.880  1.00  0.00     0.078 C
BRANCH   4   5
HETATM    5  C4  UNL     1       7.171   1.593  29.241  1.00  0.00     0.027 A
HETATM    6  C3  UNL     1       6.568   2.327  30.229  1.00  0.00     0.117 A
HETATM    7  N1  UNL     1       6.365   1.547  31.325  1.00  0.00    -0.345 N
HETATM    8  C15 UNL     1       6.844   0.337  31.006  1.00  0.00     0.079 A
HETATM    9  N3  UNL     1       7.334   0.346  29.751  1.00  0.00    -0.348 N
HETATM   10  C16 UNL     1       6.818  -0.840  31.946  1.00  0.00     0.089 C
ATOM     11  H3  UNL     1       7.755  -0.447  29.268  1.00  0.00     0.167 HD
BRANCH   7  12
HETATM   12  C2  UNL     1       5.746   2.001  32.563  1.00  0.00     0.125 C
HETATM   13  C1  UNL     1       5.393   3.465  32.478  1.00  0.00     0.027 C
ENDBRANCH   7  12
ENDBRANCH   4   5
ENDBRANCH   3   4
ENDBRANCH   1   3
BRANCH   1  14
HETATM   14  C7  UNL     1       9.835   3.310  27.417  1.00  0.00     0.074 C
BRANCH  14  15
HETATM   15  C8  UNL     1      10.149   4.327  26.369  1.00  0.00     0.089 C
HETATM   16  C10 UNL     1      10.580   3.689  25.105  1.00  0.00     0.024 C
HETATM   17  C11 UNL     1      10.225   4.457  23.844  1.00  0.00     0.001 C
HETATM   18  C12 UNL     1       8.796   4.850  23.737  1.00  0.00     0.000 C
HETATM   19  C13 UNL     1       8.042   4.556  25.028  1.00  0.00     0.001 C
HETATM   20  C14 UNL     1       8.850   5.127  26.181  1.00  0.00     0.024 C
BRANCH  15  21
HETATM   21  C9  UNL     1      11.205   5.315  26.824  1.00  0.00     0.400 C
HETATM   22  F1  UNL     1      12.454   4.992  26.316  1.00  0.00    -0.170 F
HETATM   23  F2  UNL     1      11.351   5.292  28.198  1.00  0.00    -0.170 F
HETATM   24  F3  UNL     1      10.885   6.614  26.487  1.00  0.00    -0.170 F
ENDBRANCH  15  21
ENDBRANCH  14  15
ENDBRANCH   1  14
TORSDOF 7
ENDMDL