MODEL 2
REMARK VINA RESULT: -7.308139336      1.095      1.684
REMARK  6 active torsions:
REMARK  status: ('A' for Active; 'I' for Inactive)
REMARK    1  A    between atoms: C4_4  and  C5_5
REMARK    2  A    between atoms: C5_5  and  C6_6
REMARK    3  A    between atoms: C6_6  and  N1_7
REMARK    4  A    between atoms: N1_7  and  C7_9
REMARK    5  A    between atoms: C7_9  and  C8_10
REMARK    6  A    between atoms: C7_9  and  C15_17
ROOT
HETATM    1  C7  UNL     1       7.299   3.161  26.827  1.00  0.00     0.153 C
ENDROOT
BRANCH   1   2
HETATM    2  N1  UNL     1       8.513   3.639  27.397  1.00  0.00    -0.411 N
ATOM      3  H1  UNL     1       8.462   4.388  28.088  1.00  0.00     0.153 HD
BRANCH   2   4
HETATM    4  C6  UNL     1       9.753   3.141  27.062  1.00  0.00     0.121 C
BRANCH   4   5
HETATM    5  C5  UNL     1      10.117   3.677  25.658  1.00  0.00     0.086 C
BRANCH   5   6
HETATM    6  C4  UNL     1      10.241   2.528  24.719  1.00  0.00     0.080 A
HETATM    7  C3  UNL     1      10.968   2.448  23.558  1.00  0.00     0.061 A
HETATM    8  C2  UNL     1      10.790   1.210  23.019  1.00  0.00     0.031 A
HETATM    9  C1  UNL     1      11.398   0.703  21.762  1.00  0.00     0.070 C
HETATM   10  N2  UNL     1       9.949   0.566  23.877  1.00  0.00    -0.266 N
HETATM   11  O1  UNL     1       9.644   1.360  24.861  1.00  0.00    -0.242 OA
ATOM     12  H2  UNL     1       9.612  -0.391  23.764  1.00  0.00     0.194 HD
ENDBRANCH   5   6
ENDBRANCH   4   5
ENDBRANCH   2   4
ENDBRANCH   1   2
BRANCH   1  13
HETATM   13  C8  UNL     1       6.510   2.301  27.764  1.00  0.00     0.014 C
HETATM   14  C9  UNL     1       7.308   1.273  28.508  1.00  0.00     0.007 C
HETATM   15  C10 UNL     1       6.588   0.834  29.787  1.00  0.00     0.005 C
HETATM   16  C11 UNL     1       6.548   1.969  30.786  1.00  0.00    -0.019 C
HETATM   17  C12 UNL     1       5.383   1.788  31.719  1.00  0.00     0.010 C
HETATM   18  C13 UNL     1       6.479   3.317  30.068  1.00  0.00     0.005 C
HETATM   19  C14 UNL     1       5.732   3.092  28.782  1.00  0.00     0.007 C
ENDBRANCH   1  13
BRANCH   1  20
HETATM   20  C15 UNL     1       6.518   4.175  26.070  1.00  0.00     0.260 C
HETATM   21  C16 UNL     1       6.614   5.595  26.522  1.00  0.00     0.092 C
HETATM   22  F1  UNL     1       5.194   3.832  25.971  1.00  0.00    -0.204 F
HETATM   23  F2  UNL     1       6.979   4.146  24.739  1.00  0.00    -0.204 F
ENDBRANCH   1  20
TORSDOF 6
ENDMDL