MODEL 4
REMARK VINA RESULT: -6.457895638      5.027      7.321
REMARK  7 active torsions:
REMARK  status: ('A' for Active; 'I' for Inactive)
REMARK    1  A    between atoms: C2_2  and  N1_4
REMARK    2  A    between atoms: N1_4  and  C4_5
REMARK    3  A    between atoms: N1_4  and  C11_18
REMARK    4  A    between atoms: C5_6  and  C6_7
REMARK    5  A    between atoms: C6_7  and  C7_8
REMARK    6  A    between atoms: C6_7  and  C10_15
REMARK    7  A    between atoms: C11_18  and  C12_19
ROOT
HETATM    1  C4  UNL     1       7.838   3.446  27.567  1.00  0.00     0.088 C
HETATM    2  C5  UNL     1       8.789   4.347  27.531  1.00  0.00     0.008 C
ENDROOT
BRANCH   1   3
HETATM    3  N1  UNL     1       6.495   3.732  28.007  1.00  0.00    -0.361 N
BRANCH   3   4
HETATM    4  C2  UNL     1       5.468   3.450  27.065  1.00  0.00     0.080 C
HETATM    5  C1  UNL     1       4.070   3.406  27.563  1.00  0.00     0.032 C
HETATM    6  C3  UNL     1       5.539   4.376  25.853  1.00  0.00     0.032 C
ENDBRANCH   3   4
BRANCH   3   7
HETATM    7  C11 UNL     1       6.399   4.265  29.323  1.00  0.00     0.120 C
BRANCH   7   8
HETATM    8  C12 UNL     1       6.223   3.337  30.416  1.00  0.00     0.047 A
HETATM    9  C13 UNL     1       5.708   3.755  31.622  1.00  0.00     0.031 A
HETATM   10  C14 UNL     1       5.540   2.878  32.689  1.00  0.00     0.004 A
HETATM   11  C15 UNL     1       5.896   1.559  32.533  1.00  0.00     0.017 A
HETATM   12  C16 UNL     1       6.407   1.167  31.317  1.00  0.00     0.088 A
HETATM   13  N4  UNL     1       6.553   2.047  30.316  1.00  0.00    -0.365 N
ATOM     14  H4  UNL     1       6.936   1.713  29.432  1.00  0.00     0.165 HD
ENDBRANCH   7   8
ENDBRANCH   3   7
ENDBRANCH   1   3
BRANCH   2  15
HETATM   15  C6  UNL     1      10.132   3.969  27.067  1.00  0.00     0.142 C
BRANCH  15  16
HETATM   16  C7  UNL     1      10.111   3.375  25.707  1.00  0.00     0.094 A
HETATM   17  N2  UNL     1       9.749   3.998  24.574  1.00  0.00    -0.354 N
HETATM   18  C8  UNL     1       9.849   3.155  23.514  1.00  0.00     0.106 A
ATOM     19  H2  UNL     1       9.442   4.968  24.517  1.00  0.00     0.166 HD
HETATM   20  C9  UNL     1      10.291   1.963  24.029  1.00  0.00     0.106 A
HETATM   21  N3  UNL     1      10.439   2.125  25.351  1.00  0.00    -0.354 N
ATOM     22  H3  UNL     1      10.757   1.400  25.995  1.00  0.00     0.166 HD
ENDBRANCH  15  16
BRANCH  15  23
HETATM   23  C10 UNL     1      11.094   5.144  27.088  1.00  0.00     0.368 C
HETATM   24  F1  UNL     1      12.255   4.872  26.399  1.00  0.00    -0.213 F
HETATM   25  F2  UNL     1      11.368   5.438  28.416  1.00  0.00    -0.213 F
ENDBRANCH  15  23
ENDBRANCH   2  15
TORSDOF 7
ENDMDL