MODEL 1
REMARK VINA RESULT: -6.035787480      0.000      0.000
REMARK  6 active torsions:
REMARK  status: ('A' for Active; 'I' for Inactive)
REMARK    1  A    between atoms: N1_2  and  C3_4
REMARK    2  A    between atoms: C3_4  and  C4_5
REMARK    3  A    between atoms: C4_5  and  S1_6
REMARK    4  A    between atoms: S1_6  and  C5_7
REMARK    5  A    between atoms: C6_10  and  C7_11
REMARK    6  A    between atoms: C8_14  and  C9_15
ROOT
HETATM    1  C5  UNL     1       8.524   1.644  27.686  1.00  0.00     0.145 A
HETATM    2  N2  UNL     1       9.153   1.235  26.606  1.00  0.00    -0.334 N
ATOM      3  H2  UNL     1       9.273   0.258  26.341  1.00  0.00     0.168 HD
HETATM    4  C6  UNL     1       9.611   2.266  25.906  1.00  0.00     0.099 A
HETATM    5  C8  UNL     1       9.226   3.426  26.622  1.00  0.00     0.043 A
HETATM    6  N3  UNL     1       8.564   3.002  27.695  1.00  0.00    -0.338 N
ATOM      7  H3  UNL     1       8.153   3.601  28.411  1.00  0.00     0.168 HD
ENDROOT
BRANCH   1   8
HETATM    8  S1  UNL     1       7.775   0.624  28.986  1.00  0.00    -0.092 SA
BRANCH   8   9
HETATM    9  C4  UNL     1       6.230   1.375  29.555  1.00  0.00     0.102 C
BRANCH   9  10
HETATM   10  C3  UNL     1       6.472   2.425  30.600  1.00  0.00     0.126 C
BRANCH  10  11
HETATM   11  N1  UNL     1       5.829   2.225  31.841  1.00  0.00    -0.420 N
HETATM   12  C1  UNL     1       5.441   3.314  32.634  1.00  0.00     0.142 C
HETATM   13  C2  UNL     1       6.037   1.029  32.564  1.00  0.00     0.142 C
ENDBRANCH  10  11
ENDBRANCH   9  10
ENDBRANCH   8   9
ENDBRANCH   1   8
BRANCH   4  14
HETATM   14  C7  UNL     1      10.296   2.205  24.604  1.00  0.00     0.405 C
HETATM   15  F1  UNL     1       9.434   2.930  23.697  1.00  0.00    -0.207 F
HETATM   16  F2  UNL     1      10.313   0.927  24.128  1.00  0.00    -0.207 F
ENDBRANCH   4  14
BRANCH   5  17
HETATM   17  C9  UNL     1       9.699   4.759  26.263  1.00  0.00     0.039 C
HETATM   18  C10 UNL     1       9.009   6.000  26.693  1.00  0.00     0.019 C
HETATM   19  C11 UNL     1      10.364   6.565  27.113  1.00  0.00    -0.046 C
HETATM   20  C12 UNL     1      10.195   7.548  28.276  1.00  0.00     0.015 C
HETATM   21  C13 UNL     1      11.230   7.133  26.036  1.00  0.00     0.015 C
HETATM   22  C14 UNL     1      10.700   5.144  27.500  1.00  0.00     0.019 C
ENDBRANCH   5  17
TORSDOF 6
ENDMDL