MODEL 4
REMARK VINA RESULT: -6.773464332      2.924      5.734
REMARK  12 active torsions:
REMARK  status: ('A' for Active; 'I' for Inactive)
REMARK    1  A    between atoms: C2_2  and  C3_3
REMARK    2  A    between atoms: C3_3  and  C5_5
REMARK    3  A    between atoms: C5_5  and  C6_7
REMARK       I    between atoms: C6_7  and  N2_9
REMARK    4  A    between atoms: C10_13  and  C11_14
REMARK    5  A    between atoms: C11_14  and  N3_17
REMARK       I    between atoms: N3_17  and  C14_19
REMARK    6  A    between atoms: N5_21  and  N6_23
REMARK    7  A    between atoms: C15_25  and  C16_26
REMARK    8  A    between atoms: C15_25  and  C20_34
REMARK    9  A    between atoms: C16_26  and  C17_27
REMARK   10  A    between atoms: C17_27  and  C18_28
REMARK   11  A    between atoms: C18_28  and  N7_29
REMARK       I    between atoms: C20_34  and  N10_36
REMARK   12  A    between atoms: N10_36  and  C21_38
ROOT
HETATM    1  N3  UNL     1      19.254  14.723  24.965  1.00  0.00    -0.353 N
ATOM      2  H3  UNL     1      19.072  15.202  24.083  1.00  0.00     0.163 HD
HETATM    3  C14 UNL     1      18.519  15.114  26.117  1.00  0.00     0.203 C
HETATM    4  N4  UNL     1      17.694  14.263  26.895  1.00  0.00    -0.062 NA
HETATM    5  N5  UNL     1      18.582  16.358  26.521  1.00  0.00    -0.273 N
ATOM      6  H5  UNL     1      19.159  17.009  25.990  1.00  0.00     0.189 HD
ENDROOT
BRANCH   5   7
HETATM    7  N6  UNL     1      17.925  16.825  27.601  1.00  0.00    -0.297 N
HETATM    8  C15 UNL     1      17.977  17.899  28.272  1.00  0.00     0.093 C
ATOM      9  H6  UNL     1      17.231  16.167  27.958  1.00  0.00     0.187 HD
BRANCH   8  10
HETATM   10  C16 UNL     1      17.020  17.988  29.440  1.00  0.00     0.066 C
BRANCH  10  11
HETATM   11  C17 UNL     1      17.204  16.806  30.325  1.00  0.00     0.026 C
BRANCH  11  12
HETATM   12  C18 UNL     1      17.088  17.167  31.791  1.00  0.00     0.122 C
BRANCH  12  13
HETATM   13  N7  UNL     1      16.153  16.251  32.406  1.00  0.00    -0.367 N
HETATM   14  C19 UNL     1      16.331  15.843  33.627  1.00  0.00     0.196 C
HETATM   15  N8  UNL     1      17.474  16.331  34.325  1.00  0.00    -0.067 NA
HETATM   16  N9  UNL     1      15.472  14.963  34.296  1.00  0.00    -0.067 NA
ATOM     17  H7  UNL     1      15.347  15.922  31.875  1.00  0.00     0.161 HD
ENDBRANCH  12  13
ENDBRANCH  11  12
ENDBRANCH  10  11
ENDBRANCH   8  10
BRANCH   8  18
HETATM   18  C20 UNL     1      18.858  19.020  28.042  1.00  0.00     0.266 C
HETATM   19  O2  UNL     1      19.679  18.922  27.046  1.00  0.00    -0.266 OA
HETATM   20  N10 UNL     1      18.908  20.211  28.801  1.00  0.00    -0.348 N
ATOM     21  H10 UNL     1      18.274  20.320  29.592  1.00  0.00     0.163 HD
BRANCH  20  22
HETATM   22  C21 UNL     1      19.843  21.290  28.487  1.00  0.00     0.022 C
HETATM   23  C22 UNL     1      21.220  20.803  28.176  1.00  0.00     0.037 C
HETATM   24  C23 UNL     1      19.322  22.132  27.352  1.00  0.00     0.037 C
HETATM   25  C24 UNL     1      19.950  22.230  29.695  1.00  0.00     0.037 C
ENDBRANCH  20  22
ENDBRANCH   8  18
ENDBRANCH   5   7
BRANCH   1  26
HETATM   26  C11 UNL     1      20.236  13.686  24.992  1.00  0.00     0.046 C
HETATM   27  C12 UNL     1      21.152  13.723  23.834  1.00  0.00     0.040 C
HETATM   28  C13 UNL     1      19.326  12.414  24.629  1.00  0.00     0.040 C
BRANCH  26  29
HETATM   29  C10 UNL     1      20.814  13.340  26.314  1.00  0.00     0.115 C
HETATM   30  N2  UNL     1      21.898  14.030  26.878  1.00  0.00    -0.340 N
HETATM   31  C6  UNL     1      22.276  15.386  26.714  1.00  0.00     0.264 C
HETATM   32  C7  UNL     1      22.619  13.091  27.757  1.00  0.00     0.127 C
HETATM   33  O1  UNL     1      21.625  16.087  25.892  1.00  0.00    -0.267 OA
HETATM   34  C8  UNL     1      22.067  11.732  27.518  1.00  0.00     0.022 C
HETATM   35  C9  UNL     1      21.146  11.853  26.378  1.00  0.00     0.029 C
BRANCH  31  36
HETATM   36  C5  UNL     1      23.380  16.099  27.421  1.00  0.00     0.095 C
HETATM   37  N1  UNL     1      24.525  16.401  26.638  1.00  0.00    -0.101 NA
BRANCH  36  38
HETATM   38  C3  UNL     1      22.904  17.191  28.321  1.00  0.00     0.034 C
HETATM   39  C4  UNL     1      24.040  17.717  29.214  1.00  0.00     0.016 C
BRANCH  38  40
HETATM   40  C2  UNL     1      21.756  16.932  29.213  1.00  0.00     0.006 C
HETATM   41  C1  UNL     1      21.526  17.887  30.346  1.00  0.00     0.006 C
ENDBRANCH  38  40
ENDBRANCH  36  38
ENDBRANCH  31  36
ENDBRANCH  26  29
ENDBRANCH   1  26
TORSDOF 12
ENDMDL