MODEL 2
REMARK VINA RESULT: -6.617962622      3.109      7.776
REMARK  12 active torsions:
REMARK  status: ('A' for Active; 'I' for Inactive)
REMARK    1  A    between atoms: C2_2  and  C3_3
REMARK    2  A    between atoms: C3_3  and  C4_4
REMARK    3  A    between atoms: C4_4  and  C5_5
REMARK    4  A    between atoms: C10_16  and  C11_17
REMARK    5  A    between atoms: C11_17  and  C12_18
REMARK    6  A    between atoms: C15_21  and  C16_22
REMARK    7  A    between atoms: C16_22  and  O3_23
REMARK    8  A    between atoms: C20_32  and  C21_33
REMARK    9  A    between atoms: C21_33  and  C22_34
REMARK   10  A    between atoms: C22_34  and  C23_35
REMARK   11  A    between atoms: C23_35  and  C24_36
REMARK   12  A    between atoms: C24_36  and  N4_37
ROOT
HETATM    1  C5  UNL     1      19.754  19.002  31.557  1.00  0.00     0.176 C
HETATM    2  N1  UNL     1      19.511  17.820  32.340  1.00  0.00    -0.346 N
ATOM      3  H1  UNL     1      19.958  17.824  33.257  1.00  0.00     0.163 HD
HETATM    4  C6  UNL     1      18.771  16.670  32.064  1.00  0.00     0.240 C
HETATM    5  O1  UNL     1      17.798  16.369  32.812  1.00  0.00    -0.271 OA
HETATM    6  C7  UNL     1      18.971  15.693  30.956  1.00  0.00     0.172 C
HETATM    7  C8  UNL     1      19.831  14.537  31.506  1.00  0.00     0.042 C
HETATM    8  N2  UNL     1      17.728  15.111  30.524  1.00  0.00    -0.348 N
ATOM      9  H2  UNL     1      16.938  15.216  31.160  1.00  0.00     0.163 HD
HETATM   10  C9  UNL     1      17.474  14.418  29.336  1.00  0.00     0.223 C
HETATM   11  O2  UNL     1      16.377  14.677  28.727  1.00  0.00    -0.273 OA
HETATM   12  C10 UNL     1      18.325  13.401  28.680  1.00  0.00     0.091 C
HETATM   13  C15 UNL     1      19.028  13.734  27.460  1.00  0.00     0.093 C
HETATM   14  C17 UNL     1      18.929  14.983  26.742  1.00  0.00     0.151 C
HETATM   15  O4  UNL     1      19.014  14.833  25.497  1.00  0.00    -0.296 OA
HETATM   16  C18 UNL     1      18.754  16.382  27.092  1.00  0.00     0.201 C
HETATM   17  N3  UNL     1      20.027  17.123  27.082  1.00  0.00    -0.352 N
ATOM     18  H3  UNL     1      20.774  16.773  26.481  1.00  0.00     0.162 HD
HETATM   19  C19 UNL     1      20.286  18.277  27.840  1.00  0.00     0.240 C
HETATM   20  O5  UNL     1      21.466  18.428  28.325  1.00  0.00    -0.271 OA
HETATM   21  C20 UNL     1      19.316  19.359  28.141  1.00  0.00     0.176 C
HETATM   22  N5  UNL     1      18.492  19.119  29.292  1.00  0.00    -0.346 N
ATOM     23  H5  UNL     1      17.601  18.674  29.073  1.00  0.00     0.163 HD
HETATM   24  C25 UNL     1      18.671  19.376  30.640  1.00  0.00     0.241 C
HETATM   25  O6  UNL     1      17.729  20.063  31.202  1.00  0.00    -0.271 OA
ENDROOT
BRANCH  21  26
HETATM   26  C21 UNL     1      20.043  20.654  28.143  1.00  0.00     0.035 C
BRANCH  26  27
HETATM   27  C22 UNL     1      19.165  21.738  27.580  1.00  0.00     0.004 C
BRANCH  27  28
HETATM   28  C23 UNL     1      19.840  23.027  27.265  1.00  0.00     0.027 C
BRANCH  28  29
HETATM   29  C24 UNL     1      19.431  23.367  25.817  1.00  0.00     0.229 C
BRANCH  29  30
HETATM   30  N4  UNL     1      19.537  24.778  25.576  1.00  0.00    -0.079 N
ATOM     31  H43 UNL     1      20.240  25.212  26.175  1.00  0.00     0.274 HD
ATOM     32  H42 UNL     1      19.965  24.976  24.671  1.00  0.00     0.274 HD
ATOM     33  H41 UNL     1      18.629  25.231  25.671  1.00  0.00     0.274 HD
ENDBRANCH  29  30
ENDBRANCH  28  29
ENDBRANCH  27  28
ENDBRANCH  26  27
ENDBRANCH  21  26
BRANCH   1  34
HETATM   34  C4  UNL     1      19.972  20.158  32.548  1.00  0.00     0.035 C
BRANCH  34  35
HETATM   35  C3  UNL     1      20.832  21.246  32.027  1.00  0.00     0.002 C
BRANCH  35  36
HETATM   36  C2  UNL     1      20.062  22.547  32.167  1.00  0.00    -0.004 C
HETATM   37  C1  UNL     1      20.176  23.406  30.944  1.00  0.00     0.005 C
ENDBRANCH  35  36
ENDBRANCH  34  35
ENDBRANCH   1  34
BRANCH  13  38
HETATM   38  C16 UNL     1      20.547  13.595  27.752  1.00  0.00     0.177 C
BRANCH  38  39
HETATM   39  O3  UNL     1      21.279  14.155  26.677  1.00  0.00    -0.400 OA
ATOM     40  H3  UNL     1      21.477  15.062  26.875  1.00  0.00     0.209 HD
ENDBRANCH  38  39
ENDBRANCH  13  38
BRANCH  12  41
HETATM   41  C11 UNL     1      17.366  12.241  28.456  1.00  0.00     0.018 C
BRANCH  41  42
HETATM   42  C12 UNL     1      16.916  11.470  29.617  1.00  0.00    -0.022 C
HETATM   43  C13 UNL     1      18.218  10.979  30.306  1.00  0.00     0.009 C
HETATM   44  C14 UNL     1      16.197  10.183  29.283  1.00  0.00     0.009 C
ENDBRANCH  41  42
ENDBRANCH  12  41
TORSDOF 12
ENDMDL