MODEL 2
REMARK VINA RESULT: -7.126318296      1.409      1.768
REMARK  11 active torsions:
REMARK  status: ('A' for Active; 'I' for Inactive)
REMARK    1  A    between atoms: C2_2  and  N1_3
REMARK    2  A    between atoms: C2_2  and  C23_40
REMARK    3  A    between atoms: N1_3  and  C3_5
REMARK    4  A    between atoms: C3_5  and  C4_6
REMARK    5  A    between atoms: C3_5  and  C8_16
REMARK    6  A    between atoms: C4_6  and  C5_7
REMARK    7  A    between atoms: C5_7  and  C6_8
REMARK    8  A    between atoms: C6_8  and  N2_9
REMARK       I    between atoms: N2_9  and  C7_11
REMARK       I    between atoms: C8_16  and  N5_18
REMARK       I    between atoms: N6_24  and  C14_25
REMARK    9  A    between atoms: C14_25  and  C15_27
REMARK   10  A    between atoms: C15_27  and  N7_28
REMARK   11  A    between atoms: C15_27  and  C16_32
ROOT
HETATM    1  C8  UNL     1      20.010  18.687  30.663  1.00  0.00     0.257 C
HETATM    2  O1  UNL     1      19.755  18.517  29.409  1.00  0.00    -0.270 OA
HETATM    3  N5  UNL     1      21.223  18.173  31.187  1.00  0.00    -0.261 N
HETATM    4  C9  UNL     1      21.738  18.263  32.509  1.00  0.00     0.156 C
HETATM    5  C10 UNL     1      23.193  17.795  32.359  1.00  0.00     0.046 C
HETATM    6  C11 UNL     1      23.236  16.405  32.913  1.00  0.00     0.011 C
HETATM    7  C12 UNL     1      24.021  15.435  32.056  1.00  0.00     0.020 C
HETATM    8  C13 UNL     1      25.139  16.211  31.351  1.00  0.00     0.127 C
HETATM    9  N6  UNL     1      24.509  17.074  30.388  1.00  0.00    -0.330 N
HETATM   10  C14 UNL     1      24.843  17.175  29.033  1.00  0.00     0.252 C
HETATM   11  O2  UNL     1      24.228  18.034  28.294  1.00  0.00    -0.271 OA
HETATM   12  C22 UNL     1      23.427  17.907  30.892  1.00  0.00     0.207 C
HETATM   13  N8  UNL     1      22.145  17.456  30.367  1.00  0.00    -0.110 NA
ENDROOT
BRANCH   1  14
HETATM   14  C3  UNL     1      18.996  19.423  31.465  1.00  0.00     0.171 C
BRANCH  14  15
HETATM   15  N1  UNL     1      18.848  20.697  30.824  1.00  0.00    -0.405 N
ATOM     16  H1  UNL     1      17.956  21.006  30.440  1.00  0.00     0.154 HD
BRANCH  15  17
HETATM   17  C2  UNL     1      20.020  21.506  30.756  1.00  0.00     0.077 C
HETATM   18  C1  UNL     1      19.940  22.534  31.853  1.00  0.00     0.032 C
BRANCH  17  19
HETATM   19  C23 UNL     1      20.010  22.208  29.419  1.00  0.00     0.007 C
HETATM   20  C24 UNL     1      20.980  21.750  28.383  1.00  0.00     0.007 C
HETATM   21  C25 UNL     1      19.895  22.064  27.338  1.00  0.00     0.001 C
HETATM   22  C26 UNL     1      18.892  21.845  28.482  1.00  0.00     0.007 C
ENDBRANCH  17  19
ENDBRANCH  15  17
ENDBRANCH  14  15
BRANCH  14  23
HETATM   23  C4  UNL     1      17.740  18.622  31.499  1.00  0.00     0.036 C
BRANCH  23  24
HETATM   24  C5  UNL     1      17.869  17.329  32.240  1.00  0.00     0.022 C
BRANCH  24  25
HETATM   25  C6  UNL     1      16.767  16.361  31.948  1.00  0.00     0.122 C
BRANCH  25  26
HETATM   26  N2  UNL     1      16.268  15.830  33.179  1.00  0.00    -0.365 N
HETATM   27  C7  UNL     1      16.748  14.586  33.655  1.00  0.00     0.181 C
HETATM   28  N3  UNL     1      16.932  13.588  32.862  1.00  0.00    -0.374 N
HETATM   29  N4  UNL     1      17.051  14.378  35.032  1.00  0.00    -0.064 NA
ATOM     30  H32 UNL     1      16.716  13.736  31.877  1.00  0.00     0.158 HD
ATOM     31  H31 UNL     1      17.278  12.692  33.205  1.00  0.00     0.158 HD
ATOM     32  H2  UNL     1      15.569  16.346  33.714  1.00  0.00     0.162 HD
ENDBRANCH  25  26
ENDBRANCH  24  25
ENDBRANCH  23  24
ENDBRANCH  14  23
ENDBRANCH   1  14
BRANCH  10  33
HETATM   33  C15 UNL     1      25.854  16.382  28.336  1.00  0.00     0.278 C
BRANCH  33  34
HETATM   34  N7  UNL     1      27.211  16.848  28.725  1.00  0.00    -0.066 N
ATOM     35  H73 UNL     1      27.179  17.704  29.278  1.00  0.00     0.275 HD
ATOM     36  H72 UNL     1      27.641  16.239  29.422  1.00  0.00     0.275 HD
ATOM     37  H71 UNL     1      27.791  16.949  27.892  1.00  0.00     0.275 HD
ENDBRANCH  33  34
BRANCH  33  38
HETATM   38  C16 UNL     1      25.756  16.485  26.831  1.00  0.00     0.025 C
HETATM   39  C17 UNL     1      26.954  17.261  26.344  1.00  0.00     0.007 C
HETATM   40  C18 UNL     1      27.329  16.880  24.929  1.00  0.00     0.000 C
HETATM   41  C19 UNL     1      26.054  16.566  24.185  1.00  0.00     0.000 C
HETATM   42  C20 UNL     1      25.552  15.231  24.689  1.00  0.00     0.000 C
HETATM   43  C21 UNL     1      25.614  15.160  26.206  1.00  0.00     0.007 C
ENDBRANCH  33  38
ENDBRANCH  10  33
TORSDOF 11
ENDMDL