MODEL 3
REMARK VINA RESULT: -7.153464192      3.258      6.701
REMARK  12 active torsions:
REMARK  status: ('A' for Active; 'I' for Inactive)
REMARK    1  A    between atoms: C2_2  and  C3_3
REMARK    2  A    between atoms: C3_3  and  C4_4
REMARK    3  A    between atoms: C4_4  and  C5_5
REMARK    4  A    between atoms: C5_5  and  C6_6
REMARK    5  A    between atoms: C8_9  and  C9_10
REMARK    6  A    between atoms: C10_15  and  O3_16
REMARK    7  A    between atoms: C11_18  and  C12_19
REMARK    8  A    between atoms: C12_19  and  C14_21
REMARK    9  A    between atoms: C17_27  and  C18_28
REMARK   10  A    between atoms: C18_28  and  C19_29
REMARK   11  A    between atoms: C19_29  and  C20_30
REMARK   12  A    between atoms: C20_30  and  N3_31
ROOT
HETATM    1  C6  UNL     1      18.504  15.872  27.044  1.00  0.00     0.139 C
HETATM    2  S1  UNL     1      19.774  15.137  28.097  1.00  0.00    -0.152 SA
HETATM    3  C7  UNL     1      19.220  14.285  29.542  1.00  0.00     0.111 C
HETATM    4  C8  UNL     1      17.790  14.297  29.896  1.00  0.00     0.194 C
HETATM    5  N1  UNL     1      17.149  15.481  30.305  1.00  0.00    -0.358 N
ATOM      6  H1  UNL     1      16.577  15.853  29.547  1.00  0.00     0.162 HD
HETATM    7  C10 UNL     1      17.057  16.295  31.421  1.00  0.00     0.136 C
HETATM    8  C11 UNL     1      17.957  17.232  32.084  1.00  0.00     0.162 C
HETATM    9  N2  UNL     1      17.939  18.582  31.495  1.00  0.00    -0.347 N
ATOM     10  H2  UNL     1      17.869  19.366  32.145  1.00  0.00     0.163 HD
HETATM   11  C16 UNL     1      18.009  18.901  30.121  1.00  0.00     0.241 C
HETATM   12  O4  UNL     1      17.142  19.675  29.638  1.00  0.00    -0.271 OA
HETATM   13  C17 UNL     1      19.012  18.425  29.136  1.00  0.00     0.177 C
HETATM   14  N6  UNL     1      18.496  18.351  27.775  1.00  0.00    -0.347 N
ATOM     15  H6  UNL     1      17.872  19.099  27.473  1.00  0.00     0.163 HD
HETATM   16  C22 UNL     1      18.786  17.332  26.833  1.00  0.00     0.232 C
HETATM   17  O5  UNL     1      19.317  17.720  25.757  1.00  0.00    -0.272 OA
ENDROOT
BRANCH  13  18
HETATM   18  C18 UNL     1      20.226  19.370  29.114  1.00  0.00     0.040 C
BRANCH  18  19
HETATM   19  C19 UNL     1      20.070  20.460  28.102  1.00  0.00     0.047 C
BRANCH  19  20
HETATM   20  C20 UNL     1      20.189  21.813  28.751  1.00  0.00     0.063 C
BRANCH  20  21
HETATM   21  N3  UNL     1      19.531  21.980  29.985  1.00  0.00    -0.347 N
HETATM   22  C21 UNL     1      19.933  22.378  31.115  1.00  0.00     0.200 C
HETATM   23  N4  UNL     1      21.236  22.794  31.474  1.00  0.00    -0.067 NA
HETATM   24  N5  UNL     1      18.949  22.419  32.172  1.00  0.00    -0.067 NA
ATOM     25  H3  UNL     1      18.542  21.732  29.963  1.00  0.00     0.167 HD
ENDBRANCH  20  21
ENDBRANCH  19  20
ENDBRANCH  18  19
ENDBRANCH  13  18
BRANCH   8  26
HETATM   26  C12 UNL     1      19.352  16.792  32.389  1.00  0.00     0.012 C
HETATM   27  C13 UNL     1      20.083  18.081  32.836  1.00  0.00     0.012 C
BRANCH  26  28
HETATM   28  C14 UNL     1      19.391  15.926  33.656  1.00  0.00     0.002 C
HETATM   29  C15 UNL     1      20.072  16.721  34.751  1.00  0.00     0.005 C
ENDBRANCH  26  28
ENDBRANCH   8  26
BRANCH   1  30
HETATM   30  C5  UNL     1      18.610  15.147  25.719  1.00  0.00     0.025 C
BRANCH  30  31
HETATM   31  C4  UNL     1      19.781  14.248  25.576  1.00  0.00     0.002 C
BRANCH  31  32
HETATM   32  C3  UNL     1      19.386  13.017  24.794  1.00  0.00    -0.000 C
BRANCH  32  33
HETATM   33  C2  UNL     1      19.373  11.773  25.624  1.00  0.00    -0.005 C
HETATM   34  C1  UNL     1      20.622  11.716  26.506  1.00  0.00     0.005 C
ENDBRANCH  32  33
ENDBRANCH  31  32
ENDBRANCH  30  31
ENDBRANCH   1  30
BRANCH   7  35
HETATM   35  O3  UNL     1      15.889  16.211  32.028  1.00  0.00    -0.348 OA
ATOM     36  H3  UNL     1      15.261  16.855  31.720  1.00  0.00     0.219 HD
ENDBRANCH   7  35
BRANCH   4  37
HETATM   37  C9  UNL     1      17.565  13.105  30.808  1.00  0.00     0.197 C
HETATM   38  O1  UNL     1      18.212  13.100  31.875  1.00  0.00    -0.646 OA
HETATM   39  O2  UNL     1      16.689  12.100  30.448  1.00  0.00    -0.646 OA
ENDBRANCH   4  37
TORSDOF 12
ENDMDL