MODEL 4
REMARK VINA RESULT: -7.509315079      3.483      5.991
REMARK  14 active torsions:
REMARK  status: ('A' for Active; 'I' for Inactive)
REMARK    1  A    between atoms: C2_2  and  C3_3
REMARK    2  A    between atoms: C3_3  and  N1_4
REMARK    3  A    between atoms: N1_4  and  C4_5
REMARK    4  A    between atoms: N1_4  and  C20_37
REMARK    5  A    between atoms: C4_5  and  C5_6
REMARK    6  A    between atoms: C5_6  and  C6_7
REMARK    7  A    between atoms: C6_7  and  N2_8
REMARK    8  A    between atoms: N2_8  and  C7_10
REMARK    9  A    between atoms: C8_13  and  N4_14
REMARK   10  A    between atoms: N4_14  and  C9_16
REMARK   11  A    between atoms: C9_16  and  C10_17
REMARK   12  A    between atoms: C13_26  and  N8_27
REMARK   13  A    between atoms: N8_27  and  C14_29
REMARK   14  A    between atoms: C24_41  and  C25_42
ROOT
HETATM    1  C7  UNL     1      17.493  16.751  31.166  1.00  0.00     0.707 A
HETATM    2  N3  UNL     1      16.536  16.104  30.483  1.00  0.00    -0.022 N
ATOM      3  H3  UNL     1      16.269  15.165  30.781  1.00  0.00     0.203 HD
HETATM    4  C8  UNL     1      15.911  16.653  29.411  1.00  0.00     0.707 A
HETATM    5  N7  UNL     1      16.293  17.905  29.046  1.00  0.00    -0.021 N
ATOM      6  H7  UNL     1      15.841  18.344  28.244  1.00  0.00     0.203 HD
HETATM    7  C13 UNL     1      17.242  18.582  29.703  1.00  0.00     0.707 A
HETATM    8  N9  UNL     1      17.828  17.982  30.761  1.00  0.00    -0.022 N
ATOM      9  H9  UNL     1      18.554  18.486  31.271  1.00  0.00     0.203 HD
ENDROOT
BRANCH   1  10
HETATM   10  N2  UNL     1      18.031  16.160  32.165  1.00  0.00    -0.225 N
ATOM     11  H2  UNL     1      17.968  15.142  32.171  1.00  0.00     0.177 HD
BRANCH  10  12
HETATM   12  C6  UNL     1      18.707  16.751  33.269  1.00  0.00     0.139 C
BRANCH  12  13
HETATM   13  C5  UNL     1      20.193  16.842  33.131  1.00  0.00     0.040 C
BRANCH  13  14
HETATM   14  C4  UNL     1      20.694  18.184  33.604  1.00  0.00     0.126 C
BRANCH  14  15
HETATM   15  N1  UNL     1      21.598  18.809  32.655  1.00  0.00    -0.364 N
BRANCH  15  16
HETATM   16  C3  UNL     1      21.090  19.974  31.962  1.00  0.00     0.151 C
BRANCH  16  17
HETATM   17  C2  UNL     1      20.359  20.885  32.898  1.00  0.00    -0.017 C
HETATM   18  C1  UNL     1      19.939  22.081  32.528  1.00  0.00     0.008 C
ENDBRANCH  16  17
ENDBRANCH  15  16
BRANCH  15  19
HETATM   19  C20 UNL     1      22.900  18.271  32.444  1.00  0.00     0.103 A
HETATM   20  C21 UNL     1      23.721  18.006  33.439  1.00  0.00     0.048 A
HETATM   21  C22 UNL     1      25.043  17.454  33.138  1.00  0.00     0.006 A
HETATM   22  C23 UNL     1      25.391  17.232  31.887  1.00  0.00     0.033 A
HETATM   23  C24 UNL     1      24.461  17.535  30.796  1.00  0.00     0.074 A
HETATM   24  N12 UNL     1      23.321  18.015  31.111  1.00  0.00    -0.340 N
ATOM     25  H12 UNL     1      22.669  18.229  30.357  1.00  0.00     0.167 HD
BRANCH  23  26
HETATM   26  C25 UNL     1      24.778  17.316  29.402  1.00  0.00     0.137 C
HETATM   27  N10 UNL     1      23.909  17.484  28.498  1.00  0.00    -0.386 N
ATOM     28 2H10 UNL     1      22.964  17.780  28.744  1.00  0.00     0.157 HD
ATOM     29 1H10 UNL     1      24.132  17.330  27.515  1.00  0.00     0.157 HD
HETATM   30  N11 UNL     1      26.099  16.902  29.058  1.00  0.00    -0.081 NA
ENDBRANCH  23  26
ENDBRANCH  15  19
ENDBRANCH  14  15
ENDBRANCH  13  14
ENDBRANCH  12  13
ENDBRANCH  10  12
ENDBRANCH   1  10
BRANCH   4  31
HETATM   31  N4  UNL     1      14.993  16.005  28.775  1.00  0.00    -0.219 N
ATOM     32  H4  UNL     1      14.012  16.072  29.046  1.00  0.00     0.178 HD
BRANCH  31  33
HETATM   33  C9  UNL     1      15.411  15.179  27.661  1.00  0.00     0.196 C
BRANCH  33  34
HETATM   34  C10 UNL     1      14.753  15.646  26.423  1.00  0.00     0.044 A
HETATM   35  C11 UNL     1      13.814  16.643  26.278  1.00  0.00     0.115 A
HETATM   36  N5  UNL     1      13.497  16.729  24.986  1.00  0.00    -0.360 N
HETATM   37  C12 UNL     1      14.197  15.829  24.297  1.00  0.00     0.180 A
ATOM     38  H5  UNL     1      12.823  17.382  24.587  1.00  0.00     0.166 HD
HETATM   39  N6  UNL     1      14.961  15.173  25.186  1.00  0.00    -0.353 N
ATOM     40  H6  UNL     1      15.609  14.420  24.952  1.00  0.00     0.166 HD
ENDBRANCH  33  34
ENDBRANCH  31  33
ENDBRANCH   4  31
BRANCH   7  41
HETATM   41  N8  UNL     1      17.588  19.745  29.351  1.00  0.00    -0.220 N
ATOM     42  H8  UNL     1      16.828  20.409  29.202  1.00  0.00     0.178 HD
BRANCH  41  43
HETATM   43  C14 UNL     1      18.901  20.247  29.135  1.00  0.00     0.099 C
HETATM   44  C15 UNL     1      18.923  21.669  28.615  1.00  0.00     0.026 C
HETATM   45  C16 UNL     1      20.342  22.171  28.748  1.00  0.00     0.002 C
HETATM   46  C17 UNL     1      21.319  21.300  27.991  1.00  0.00     0.000 C
HETATM   47  C18 UNL     1      21.157  19.839  28.333  1.00  0.00     0.002 C
HETATM   48  C19 UNL     1      19.713  19.409  28.173  1.00  0.00     0.026 C
ENDBRANCH  41  43
ENDBRANCH   7  41
TORSDOF 14
ENDMDL