MODEL 2
REMARK VINA RESULT: -6.291207831      3.770      6.502
REMARK  15 active torsions:
REMARK  status: ('A' for Active; 'I' for Inactive)
REMARK    1  A    between atoms: C7_7  and  C8_8
REMARK    2  A    between atoms: C10_14  and  C11_15
REMARK    3  A    between atoms: C11_15  and  C12_16
REMARK    4  A    between atoms: C12_16  and  C13_17
REMARK    5  A    between atoms: C13_17  and  N2_18
REMARK    6  A    between atoms: N2_18  and  C14_20
REMARK    7  A    between atoms: C14_20  and  N3_22
REMARK    8  A    between atoms: N3_22  and  C15_24
REMARK    9  A    between atoms: C15_24  and  C16_25
REMARK   10  A    between atoms: C16_25  and  C17_26
REMARK   11  A    between atoms: C17_26  and  C18_27
REMARK   12  A    between atoms: C18_27  and  C19_28
REMARK   13  A    between atoms: C19_28  and  N4_29
REMARK   14  A    between atoms: N4_29  and  C20_31
REMARK   15  A    between atoms: C20_31  and  N5_33
ROOT
HETATM    1  N5  UNL     1      13.603  15.224  22.495  1.00  0.00    -0.270 N
ATOM      2  H5  UNL     1      13.418  14.458  21.848  1.00  0.00     0.180 HD
HETATM    3  C21 UNL     1      12.535  16.014  22.868  1.00  0.00     0.184 C
HETATM    4  N6  UNL     1      11.599  16.668  23.159  1.00  0.00    -0.172 NA
ENDROOT
BRANCH   1   5
HETATM    5  C20 UNL     1      14.923  15.392  22.935  1.00  0.00     0.180 C
HETATM    6  S2  UNL     1      16.115  14.941  21.837  1.00  0.00    -0.040 SA
BRANCH   5   7
HETATM    7  N4  UNL     1      15.336  15.891  24.181  1.00  0.00    -0.366 N
ATOM      8  H4  UNL     1      14.607  16.125  24.855  1.00  0.00     0.161 HD
BRANCH   7   9
HETATM    9  C19 UNL     1      16.696  16.098  24.586  1.00  0.00     0.122 C
BRANCH   9  10
HETATM   10  C18 UNL     1      16.861  15.570  26.009  1.00  0.00     0.020 C
BRANCH  10  11
HETATM   11  C17 UNL     1      15.987  16.290  26.982  1.00  0.00     0.003 C
BRANCH  11  12
HETATM   12  C16 UNL     1      15.633  15.364  28.154  1.00  0.00     0.020 C
BRANCH  12  13
HETATM   13  C15 UNL     1      16.774  14.440  28.413  1.00  0.00     0.122 C
BRANCH  13  14
HETATM   14  N3  UNL     1      16.906  13.964  29.753  1.00  0.00    -0.367 N
ATOM     15  H3  UNL     1      16.102  13.466  30.134  1.00  0.00     0.161 HD
BRANCH  14  16
HETATM   16  C14 UNL     1      18.014  14.100  30.610  1.00  0.00     0.167 C
HETATM   17  S1  UNL     1      19.261  13.044  30.432  1.00  0.00    -0.041 SA
BRANCH  16  18
HETATM   18  N2  UNL     1      18.124  15.074  31.626  1.00  0.00    -0.367 N
ATOM     19  H2  UNL     1      19.040  15.208  32.052  1.00  0.00     0.161 HD
BRANCH  18  20
HETATM   20  C13 UNL     1      17.052  15.882  32.102  1.00  0.00     0.122 C
BRANCH  20  21
HETATM   21  C12 UNL     1      17.204  17.353  31.941  1.00  0.00     0.022 C
BRANCH  21  22
HETATM   22  C11 UNL     1      17.264  17.666  30.448  1.00  0.00     0.044 C
BRANCH  22  23
HETATM   23  C10 UNL     1      18.702  18.002  30.045  1.00  0.00     0.277 C
HETATM   24  C9  UNL     1      18.715  19.435  29.654  1.00  0.00     0.252 C
HETATM   25  N1  UNL     1      19.730  20.369  29.312  1.00  0.00    -0.331 N
HETATM   26  O3  UNL     1      17.582  19.978  29.601  1.00  0.00    -0.271 OA
HETATM   27  C5  UNL     1      21.121  20.381  29.007  1.00  0.00     0.090 C
HETATM   28  C7  UNL     1      19.707  21.808  29.134  1.00  0.00     0.190 C
HETATM   29  C4  UNL     1      21.613  19.319  28.093  1.00  0.00     0.027 C
HETATM   30  C6  UNL     1      20.896  21.666  28.213  1.00  0.00     0.061 C
HETATM   31  C3  UNL     1      20.593  18.361  27.583  1.00  0.00     0.034 C
HETATM   32  C2  UNL     1      20.390  17.282  28.617  1.00  0.00     0.183 C
HETATM   33  C1  UNL     1      20.943  15.942  28.174  1.00  0.00     0.040 C
HETATM   34  N7  UNL     1      18.979  17.189  28.876  1.00  0.00    -0.058 N
ATOM     35  H72 UNL     1      18.408  17.440  28.069  1.00  0.00     0.278 HD
ATOM     36  H71 UNL     1      18.654  16.227  28.973  1.00  0.00     0.278 HD
BRANCH  28  37
HETATM   37  C8  UNL     1      20.094  22.589  30.336  1.00  0.00     0.197 C
HETATM   38  O1  UNL     1      21.193  23.137  30.498  1.00  0.00    -0.646 OA
HETATM   39  O2  UNL     1      19.125  22.695  31.336  1.00  0.00    -0.646 OA
ENDBRANCH  28  37
ENDBRANCH  22  23
ENDBRANCH  21  22
ENDBRANCH  20  21
ENDBRANCH  18  20
ENDBRANCH  16  18
ENDBRANCH  14  16
ENDBRANCH  13  14
ENDBRANCH  12  13
ENDBRANCH  11  12
ENDBRANCH  10  11
ENDBRANCH   9  10
ENDBRANCH   7   9
ENDBRANCH   5   7
ENDBRANCH   1   5
TORSDOF 15
ENDMDL