MODEL 2
REMARK VINA RESULT: -7.385418318      0.941      2.045
REMARK  10 active torsions:
REMARK  status: ('A' for Active; 'I' for Inactive)
REMARK    1  A    between atoms: C2_2  and  C3_3
REMARK    2  A    between atoms: C3_3  and  C4_4
REMARK    3  A    between atoms: C4_4  and  C5_5
REMARK    4  A    between atoms: C5_5  and  N1_6
REMARK    5  A    between atoms: C5_5  and  C9_12
REMARK    6  A    between atoms: N1_6  and  O1_8
REMARK    7  A    between atoms: O1_8  and  C6_9
REMARK       I    between atoms: C9_12  and  N2_14
REMARK    8  A    between atoms: N2_14  and  C10_15
REMARK    9  A    between atoms: C10_15  and  C11_16
REMARK       I    between atoms: C11_16  and  N3_18
REMARK   10  A    between atoms: N3_18  and  C12_20
REMARK       I    between atoms: N5_35  and  C24_36
ROOT
HETATM    1  C10 UNL     1      18.418  16.533  32.574  1.00  0.00     0.192 C
HETATM    2  C21 UNL     1      18.998  15.561  31.469  1.00  0.00     0.059 C
HETATM    3  C22 UNL     1      19.528  14.308  31.917  1.00  0.00     0.024 C
HETATM    4  C23 UNL     1      18.865  13.694  33.083  1.00  0.00     0.125 C
HETATM    5  N5  UNL     1      17.598  14.387  33.419  1.00  0.00    -0.352 N
HETATM    6  C24 UNL     1      16.696  13.518  33.945  1.00  0.00     0.184 C
HETATM    7  N6  UNL     1      15.836  12.731  33.530  1.00  0.00    -0.374 N
ATOM      8  H61 UNL     1      15.158  12.079  33.925  1.00  0.00     0.158 HD
ATOM      9  H62 UNL     1      15.651  12.959  32.553  1.00  0.00     0.158 HD
HETATM   10  N7  UNL     1      16.967  13.185  35.378  1.00  0.00    -0.064 NA
HETATM   11  C25 UNL     1      17.347  15.815  33.190  1.00  0.00     0.181 C
ENDROOT
BRANCH   1  12
HETATM   12  N2  UNL     1      18.544  17.713  31.928  1.00  0.00    -0.390 NA
HETATM   13  C9  UNL     1      18.241  18.908  31.385  1.00  0.00     0.312 C
HETATM   14  O2  UNL     1      17.328  19.526  31.086  1.00  0.00    -0.255 OA
BRANCH  13  15
HETATM   15  C5  UNL     1      19.639  19.634  31.184  1.00  0.00     0.212 C
BRANCH  15  16
HETATM   16  C4  UNL     1      20.333  18.712  30.150  1.00  0.00     0.042 C
BRANCH  16  17
HETATM   17  C3  UNL     1      20.187  19.214  28.743  1.00  0.00     0.029 C
BRANCH  17  18
HETATM   18  C2  UNL     1      21.331  20.096  28.417  1.00  0.00    -0.037 C
HETATM   19  C1  UNL     1      21.229  21.278  28.035  1.00  0.00     0.007 C
ENDBRANCH  17  18
ENDBRANCH  16  17
ENDBRANCH  15  16
BRANCH  15  20
HETATM   20  N1  UNL     1      20.483  19.928  32.156  1.00  0.00    -0.287 N
ATOM     21  H1  UNL     1      20.672  19.321  32.953  1.00  0.00     0.188 HD
BRANCH  20  22
HETATM   22  O1  UNL     1      21.062  21.128  31.965  1.00  0.00    -0.280 OA
BRANCH  22  23
HETATM   23  C6  UNL     1      20.065  22.118  32.034  1.00  0.00     0.143 C
HETATM   24  C7  UNL     1      20.494  23.194  31.102  1.00  0.00     0.042 C
HETATM   25  C8  UNL     1      19.912  22.592  33.473  1.00  0.00     0.042 C
ENDBRANCH  22  23
ENDBRANCH  20  22
ENDBRANCH  15  20
ENDBRANCH  13  15
ENDBRANCH   1  12
BRANCH   1  26
HETATM   26  C11 UNL     1      19.592  16.712  33.658  1.00  0.00     0.261 C
HETATM   27  O3  UNL     1      19.407  16.861  34.787  1.00  0.00    -0.269 OA
HETATM   28  N3  UNL     1      20.835  16.677  33.050  1.00  0.00    -0.352 N
ATOM     29  H3  UNL     1      20.854  16.370  32.077  1.00  0.00     0.163 HD
BRANCH  28  30
HETATM   30  C12 UNL     1      22.111  17.025  33.636  1.00  0.00     0.098 C
HETATM   31  C13 UNL     1      22.694  15.811  34.251  1.00  0.00     0.032 C
HETATM   32  C14 UNL     1      24.177  15.677  34.235  1.00  0.00     0.005 C
HETATM   33  C15 UNL     1      24.889  17.006  34.223  1.00  0.00     0.006 C
HETATM   34  C20 UNL     1      24.626  14.708  33.191  1.00  0.00     0.127 C
HETATM   35  C16 UNL     1      25.158  17.574  32.869  1.00  0.00     0.001 C
HETATM   36  C17 UNL     1      23.881  18.297  32.451  1.00  0.00     0.016 C
HETATM   37  C18 UNL     1      22.847  17.287  32.237  1.00  0.00     0.100 C
HETATM   38  C19 UNL     1      23.245  16.078  31.575  1.00  0.00     0.223 C
HETATM   39  O4  UNL     1      23.116  16.126  30.294  1.00  0.00    -0.273 OA
HETATM   40  N4  UNL     1      23.731  14.820  32.061  1.00  0.00    -0.360 N
ATOM     41  H4  UNL     1      23.431  13.966  31.588  1.00  0.00     0.162 HD
ENDBRANCH  28  30
ENDBRANCH   1  26
TORSDOF 10
ENDMDL