MODEL 1
REMARK VINA RESULT: -7.824125263      0.000      0.000
REMARK  13 active torsions:
REMARK  status: ('A' for Active; 'I' for Inactive)
REMARK       I    between atoms: C2_2  and  N1_4
REMARK    1  A    between atoms: N1_4  and  C3_6
REMARK    2  A    between atoms: C3_6  and  C4_7
REMARK    3  A    between atoms: C4_7  and  C5_8
REMARK    4  A    between atoms: C5_8  and  C6_9
REMARK    5  A    between atoms: C6_9  and  N2_10
REMARK    6  A    between atoms: N2_10  and  C7_12
REMARK    7  A    between atoms: C8_15  and  N4_16
REMARK    8  A    between atoms: C14_25  and  N6_26
REMARK    9  A    between atoms: N6_26  and  C15_28
REMARK   10  A    between atoms: C15_28  and  C16_29
REMARK   11  A    between atoms: C15_28  and  C18_35
REMARK   12  A    between atoms: C16_29  and  C17_30
REMARK   13  A    between atoms: C18_35  and  C19_36
ROOT
HETATM    1  C7  UNL     1      20.682  20.762  32.084  1.00  0.00     0.707 A
HETATM    2  N3  UNL     1      21.561  19.910  32.637  1.00  0.00    -0.021 N
ATOM      3  H3  UNL     1      22.440  20.285  32.994  1.00  0.00     0.203 HD
HETATM    4  C8  UNL     1      21.339  18.582  32.742  1.00  0.00     0.716 A
HETATM    5  N5  UNL     1      20.163  18.147  32.253  1.00  0.00    -0.021 N
ATOM      6  H5  UNL     1      19.956  17.150  32.314  1.00  0.00     0.203 HD
HETATM    7  C14 UNL     1      19.249  18.952  31.690  1.00  0.00     0.707 A
HETATM    8  N10 UNL     1      19.510  20.260  31.607  1.00  0.00    -0.022 N
ATOM      9  H10 UNL     1      18.826  20.887  31.183  1.00  0.00     0.203 HD
ENDROOT
BRANCH   7  10
HETATM   10  N6  UNL     1      18.184  18.438  31.263  1.00  0.00    -0.220 N
ATOM     11  H6  UNL     1      17.338  18.774  31.724  1.00  0.00     0.178 HD
BRANCH  10  12
HETATM   12  C15 UNL     1      17.956  17.471  30.253  1.00  0.00     0.108 C
BRANCH  12  13
HETATM   13  C16 UNL     1      17.460  16.137  30.693  1.00  0.00     0.098 C
BRANCH  13  14
HETATM   14  C17 UNL     1      17.145  15.985  32.110  1.00  0.00     0.088 C
HETATM   15  N7  UNL     1      16.021  16.053  32.691  1.00  0.00    -0.391 N
ATOM     16  H72 UNL     1      15.224  16.223  32.077  1.00  0.00     0.157 HD
ATOM     17  H71 UNL     1      15.800  15.947  33.682  1.00  0.00     0.157 HD
HETATM   18  N8  UNL     1      18.265  15.746  32.975  1.00  0.00    -0.088 NA
ENDBRANCH  13  14
ENDBRANCH  12  13
BRANCH  12  19
HETATM   19  C18 UNL     1      17.065  17.991  29.169  1.00  0.00     0.051 C
BRANCH  19  20
HETATM   20  C19 UNL     1      16.101  17.018  28.588  1.00  0.00     0.086 C
HETATM   21  C20 UNL     1      16.673  16.650  27.208  1.00  0.00     0.026 C
HETATM   22  C21 UNL     1      15.937  15.474  26.616  1.00  0.00     0.011 C
HETATM   23  C22 UNL     1      14.469  15.508  26.872  1.00  0.00     0.103 C
HETATM   24  C23 UNL     1      14.054  16.880  27.274  1.00  0.00     0.217 C
HETATM   25  O3  UNL     1      13.099  17.420  26.676  1.00  0.00    -0.274 OA
HETATM   26  N9  UNL     1      14.781  17.511  28.333  1.00  0.00    -0.356 N
ATOM     27  H9  UNL     1      14.379  18.274  28.878  1.00  0.00     0.162 HD
ENDBRANCH  19  20
ENDBRANCH  12  19
ENDBRANCH  10  12
ENDBRANCH   7  10
BRANCH   4  28
HETATM   28  N4  UNL     1      22.298  17.726  33.333  1.00  0.00    -0.150 N
HETATM   29  C9  UNL     1      23.573  17.490  32.736  1.00  0.00     0.151 C
HETATM   30  C10 UNL     1      24.717  17.474  33.697  1.00  0.00     0.021 C
HETATM   31  C11 UNL     1      24.382  16.964  35.061  1.00  0.00     0.011 C
HETATM   32  C12 UNL     1      23.075  16.215  35.126  1.00  0.00     0.104 C
HETATM   33  C13 UNL     1      21.986  17.080  34.559  1.00  0.00     0.238 C
HETATM   34  O2  UNL     1      20.894  17.212  35.128  1.00  0.00    -0.273 OA
ENDBRANCH   4  28
BRANCH   1  35
HETATM   35  N2  UNL     1      20.927  22.018  31.991  1.00  0.00    -0.225 N
ATOM     36  H2  UNL     1      21.776  22.415  32.393  1.00  0.00     0.177 HD
BRANCH  35  37
HETATM   37  C6  UNL     1      19.973  22.857  31.304  1.00  0.00     0.138 C
BRANCH  37  38
HETATM   38  C5  UNL     1      20.547  23.345  29.954  1.00  0.00     0.022 C
BRANCH  38  39
HETATM   39  C4  UNL     1      19.866  22.624  28.871  1.00  0.00     0.021 C
BRANCH  39  40
HETATM   40  C3  UNL     1      20.626  21.716  27.985  1.00  0.00     0.122 C
BRANCH  40  41
HETATM   41  N1  UNL     1      21.480  20.735  28.537  1.00  0.00    -0.361 N
HETATM   42  C2  UNL     1      21.357  19.339  28.558  1.00  0.00     0.213 C
HETATM   43  C1  UNL     1      22.415  18.461  29.187  1.00  0.00     0.117 C
HETATM   44  O1  UNL     1      20.392  18.730  28.073  1.00  0.00    -0.274 OA
ATOM     45  H1  UNL     1      22.318  21.099  28.990  1.00  0.00     0.162 HD
ENDBRANCH  40  41
ENDBRANCH  39  40
ENDBRANCH  38  39
ENDBRANCH  37  38
ENDBRANCH  35  37
ENDBRANCH   1  35
TORSDOF 13
ENDMDL