MODEL 1
REMARK VINA RESULT: -6.811533399      0.000      0.000
REMARK  14 active torsions:
REMARK  status: ('A' for Active; 'I' for Inactive)
REMARK       I    between atoms: N2_7  and  C4_8
REMARK    1  A    between atoms: C4_8  and  C5_10
REMARK    2  A    between atoms: C5_10  and  C6_11
REMARK    3  A    between atoms: C6_11  and  C7_12
REMARK    4  A    between atoms: C7_12  and  C8_13
REMARK    5  A    between atoms: C8_13  and  C9_14
REMARK    6  A    between atoms: C9_14  and  N3_15
REMARK    7  A    between atoms: N3_15  and  C10_18
REMARK    8  A    between atoms: C10_18  and  C11_19
REMARK    9  A    between atoms: C11_19  and  N4_20
REMARK   10  A    between atoms: C21_36  and  C22_37
REMARK   11  A    between atoms: C22_37  and  C23_38
REMARK   12  A    between atoms: C23_38  and  C24_39
REMARK   13  A    between atoms: C24_39  and  N6_40
REMARK   14  A    between atoms: C25_46  and  O4_47
ROOT
HETATM    1  C1  UNL     1      18.273  17.421  28.495  1.00  0.00     0.041 C
HETATM    2  C2  UNL     1      16.832  17.644  28.666  1.00  0.00     0.156 C
HETATM    3  N1  UNL     1      16.501  18.028  30.049  1.00  0.00    -0.331 N
ATOM      4  H1  UNL     1      15.507  18.070  30.271  1.00  0.00     0.165 HD
HETATM    5  C3  UNL     1      17.364  18.340  31.092  1.00  0.00     0.325 C
HETATM    6  O1  UNL     1      17.182  19.495  31.636  1.00  0.00    -0.247 OA
HETATM    7  N2  UNL     1      18.412  17.559  31.638  1.00  0.00    -0.270 N
HETATM    8  C4  UNL     1      19.657  18.166  31.930  1.00  0.00     0.227 C
HETATM    9  O2  UNL     1      20.567  17.399  32.415  1.00  0.00    -0.273 OA
HETATM   10  C12 UNL     1      18.306  16.144  31.923  1.00  0.00     0.137 C
HETATM   11  C13 UNL     1      17.685  15.768  33.210  1.00  0.00     0.020 C
HETATM   12  C14 UNL     1      18.090  14.305  33.467  1.00  0.00     0.002 C
HETATM   13  C15 UNL     1      17.501  13.373  32.451  1.00  0.00     0.000 C
HETATM   14  C16 UNL     1      18.581  12.632  31.705  1.00  0.00     0.000 C
HETATM   15  C17 UNL     1      18.049  11.748  30.601  1.00  0.00     0.002 C
HETATM   16  C18 UNL     1      17.252  12.559  29.656  1.00  0.00     0.020 C
HETATM   17  C19 UNL     1      17.640  12.443  28.198  1.00  0.00     0.122 C
HETATM   18  N5  UNL     1      18.425  13.570  27.741  1.00  0.00    -0.359 N
ATOM     19  H5  UNL     1      19.303  13.755  28.224  1.00  0.00     0.162 HD
HETATM   20  C20 UNL     1      18.075  14.432  26.683  1.00  0.00     0.240 C
HETATM   21  O3  UNL     1      18.996  14.773  25.896  1.00  0.00    -0.271 OA
HETATM   22  C21 UNL     1      16.722  14.979  26.401  1.00  0.00     0.175 C
HETATM   23  N7  UNL     1      16.030  15.390  27.596  1.00  0.00    -0.359 N
ATOM     24  H7  UNL     1      15.531  14.625  28.051  1.00  0.00     0.162 HD
HETATM   25  C25 UNL     1      15.896  16.590  28.258  1.00  0.00     0.135 C
ENDROOT
BRANCH   8  26
HETATM   26  C5  UNL     1      19.985  19.601  31.719  1.00  0.00     0.103 C
BRANCH  26  27
HETATM   27  C6  UNL     1      20.566  20.167  32.993  1.00  0.00     0.009 C
BRANCH  27  28
HETATM   28  C7  UNL     1      20.218  21.625  33.186  1.00  0.00     0.002 C
BRANCH  28  29
HETATM   29  C8  UNL     1      19.462  22.217  32.063  1.00  0.00     0.027 C
BRANCH  29  30
HETATM   30  C9  UNL     1      20.282  23.243  31.341  1.00  0.00     0.232 C
BRANCH  30  31
HETATM   31  N3  UNL     1      20.938  22.668  30.217  1.00  0.00    -0.074 N
ATOM     32  H32 UNL     1      21.866  23.073  30.093  1.00  0.00     0.277 HD
ATOM     33  H31 UNL     1      21.200  21.701  30.406  1.00  0.00     0.277 HD
BRANCH  31  34
HETATM   34  C10 UNL     1      20.164  22.764  28.992  1.00  0.00     0.259 C
BRANCH  34  35
HETATM   35  C11 UNL     1      19.816  21.433  28.395  1.00  0.00     0.257 C
BRANCH  35  36
HETATM   36  N4  UNL     1      18.476  21.015  28.760  1.00  0.00    -0.078 N
ATOM     37  H43 UNL     1      17.964  21.768  29.219  1.00  0.00     0.274 HD
ATOM     38  H42 UNL     1      17.886  20.898  27.937  1.00  0.00     0.274 HD
ATOM     39  H41 UNL     1      18.487  20.170  29.332  1.00  0.00     0.274 HD
ENDBRANCH  35  36
ENDBRANCH  34  35
ENDBRANCH  31  34
ENDBRANCH  30  31
ENDBRANCH  29  30
ENDBRANCH  28  29
ENDBRANCH  27  28
ENDBRANCH  26  27
ENDBRANCH   8  26
BRANCH  25  40
HETATM   40  O4  UNL     1      14.681  16.899  28.624  1.00  0.00    -0.348 OA
ATOM     41  H4  UNL     1      14.141  16.119  28.661  1.00  0.00     0.219 HD
ENDBRANCH  25  40
BRANCH  22  42
HETATM   42  C22 UNL     1      16.759  15.972  25.287  1.00  0.00     0.036 C
BRANCH  42  43
HETATM   43  C23 UNL     1      15.560  15.877  24.374  1.00  0.00     0.030 C
BRANCH  43  44
HETATM   44  C24 UNL     1      14.631  17.037  24.739  1.00  0.00     0.230 C
BRANCH  44  45
HETATM   45  N6  UNL     1      13.497  16.589  25.500  1.00  0.00    -0.079 N
ATOM     46  H63 UNL     1      12.972  17.374  25.884  1.00  0.00     0.274 HD
ATOM     47  H62 UNL     1      12.775  16.195  24.896  1.00  0.00     0.274 HD
ATOM     48  H61 UNL     1      13.771  15.931  26.231  1.00  0.00     0.274 HD
ENDBRANCH  44  45
ENDBRANCH  43  44
ENDBRANCH  42  43
ENDBRANCH  22  42
TORSDOF 14
ENDMDL