MODEL 3
REMARK VINA RESULT: -7.886586863      3.996      7.182
REMARK  13 active torsions:
REMARK  status: ('A' for Active; 'I' for Inactive)
REMARK       I    between atoms: C1_4  and  N3_6
REMARK    1  A    between atoms: N3_6  and  C2_8
REMARK    2  A    between atoms: C2_8  and  C3_9
REMARK    3  A    between atoms: C3_9  and  C4_10
REMARK    4  A    between atoms: C4_10  and  C5_11
REMARK       I    between atoms: C5_11  and  N4_13
REMARK    5  A    between atoms: C7_18  and  N6_19
REMARK    6  A    between atoms: N6_19  and  O2_21
REMARK    7  A    between atoms: O2_21  and  C8_22
REMARK    8  A    between atoms: C8_22  and  C9_23
REMARK    9  A    between atoms: C9_23  and  O3_24
REMARK   10  A    between atoms: O3_24  and  C10_25
REMARK   11  A    between atoms: C10_25  and  C11_26
REMARK   12  A    between atoms: C20_37  and  N8_38
REMARK   13  A    between atoms: N8_38  and  C21_40
ROOT
HETATM    1  C5  UNL     1      19.167  15.698  32.727  1.00  0.00     0.235 C
HETATM    2  O1  UNL     1      19.618  14.947  31.852  1.00  0.00    -0.273 OA
HETATM    3  N4  UNL     1      19.674  17.004  32.883  1.00  0.00    -0.159 N
ATOM      4  H4  UNL     1      19.005  17.773  32.929  1.00  0.00     0.187 HD
HETATM    5  C6  UNL     1      20.828  17.267  32.964  1.00  0.00     0.714 A
HETATM    6  N5  UNL     1      20.459  18.820  33.137  1.00  0.00    -0.019 N
ATOM      7  H5  UNL     1      19.476  19.092  33.126  1.00  0.00     0.203 HD
HETATM    8  C7  UNL     1      21.325  19.708  33.285  1.00  0.00     0.731 A
HETATM    9  N7  UNL     1      22.693  19.540  33.326  1.00  0.00    -0.020 N
ATOM     10  H7  UNL     1      23.352  20.308  33.461  1.00  0.00     0.203 HD
HETATM   11  C20 UNL     1      23.075  18.229  33.165  1.00  0.00     0.707 A
HETATM   12  N9  UNL     1      22.069  17.411  33.028  1.00  0.00    -0.021 N
ATOM     13  H9  UNL     1      22.470  16.478  32.930  1.00  0.00     0.203 HD
ENDROOT
BRANCH   8  14
HETATM   14  N6  UNL     1      20.975  20.946  32.948  1.00  0.00    -0.095 N
ATOM     15  H6  UNL     1      20.552  21.419  33.747  1.00  0.00     0.213 HD
BRANCH  14  16
HETATM   16  O2  UNL     1      21.001  21.689  31.991  1.00  0.00    -0.264 OA
BRANCH  16  17
HETATM   17  C8  UNL     1      20.253  22.900  31.698  1.00  0.00     0.228 C
BRANCH  17  18
HETATM   18  C9  UNL     1      20.295  22.829  30.220  1.00  0.00     0.196 C
BRANCH  18  19
HETATM   19  O3  UNL     1      20.908  21.923  29.511  1.00  0.00    -0.388 OA
BRANCH  19  20
HETATM   20  C10 UNL     1      19.736  21.118  28.996  1.00  0.00     0.177 C
BRANCH  20  21
HETATM   21  C11 UNL     1      20.391  19.893  28.541  1.00  0.00    -0.015 C
HETATM   22  C12 UNL     1      21.728  20.128  27.881  1.00  0.00     0.017 C
HETATM   23  C13 UNL     1      22.357  18.756  28.157  1.00  0.00    -0.013 C
HETATM   24  C14 UNL     1      21.570  17.765  27.334  1.00  0.00     0.009 C
HETATM   25  C18 UNL     1      22.048  18.623  29.659  1.00  0.00     0.010 C
HETATM   26  C15 UNL     1      20.100  17.795  27.622  1.00  0.00    -0.013 C
HETATM   27  C16 UNL     1      19.903  17.595  29.134  1.00  0.00     0.010 C
HETATM   28  C19 UNL     1      19.530  19.187  27.461  1.00  0.00     0.017 C
HETATM   29  C17 UNL     1      20.560  18.865  29.622  1.00  0.00    -0.003 C
ENDBRANCH  20  21
ENDBRANCH  19  20
ENDBRANCH  18  19
ENDBRANCH  17  18
ENDBRANCH  16  17
ENDBRANCH  14  16
ENDBRANCH   8  14
BRANCH  11  30
HETATM   30  N8  UNL     1      24.297  17.935  33.190  1.00  0.00    -0.220 N
ATOM     31  H8  UNL     1      24.933  18.614  33.607  1.00  0.00     0.178 HD
BRANCH  30  32
HETATM   32  C21 UNL     1      24.871  16.724  32.679  1.00  0.00     0.099 C
HETATM   33  C22 UNL     1      26.242  16.577  33.329  1.00  0.00     0.026 C
HETATM   34  C23 UNL     1      27.137  17.262  32.352  1.00  0.00     0.002 C
HETATM   35  C24 UNL     1      26.603  16.822  30.999  1.00  0.00     0.002 C
HETATM   36  C25 UNL     1      25.126  16.985  31.176  1.00  0.00     0.026 C
ENDBRANCH  30  32
ENDBRANCH  11  30
BRANCH   1  37
HETATM   37  C4  UNL     1      18.140  15.181  33.640  1.00  0.00     0.105 C
BRANCH  37  38
HETATM   38  C3  UNL     1      16.940  16.129  33.569  1.00  0.00     0.029 C
BRANCH  38  39
HETATM   39  C2  UNL     1      16.569  16.493  32.150  1.00  0.00     0.122 C
BRANCH  39  40
HETATM   40  N3  UNL     1      16.408  17.955  32.190  1.00  0.00    -0.365 N
HETATM   41  C1  UNL     1      17.009  18.818  31.211  1.00  0.00     0.181 C
HETATM   42  N1  UNL     1      16.590  18.797  30.032  1.00  0.00    -0.374 N
HETATM   43  N2  UNL     1      17.991  19.715  31.689  1.00  0.00    -0.064 NA
ATOM     44  H12 UNL     1      17.018  19.409  29.338  1.00  0.00     0.158 HD
ATOM     45  H11 UNL     1      15.881  18.150  29.688  1.00  0.00     0.158 HD
ATOM     46  H3  UNL     1      15.851  18.370  32.937  1.00  0.00     0.162 HD
ENDBRANCH  39  40
ENDBRANCH  38  39
ENDBRANCH  37  38
ENDBRANCH   1  37
TORSDOF 13
ENDMDL