MODEL 2
REMARK VINA RESULT: -8.054744694      7.664     10.292
REMARK  7 active torsions:
REMARK  status: ('A' for Active; 'I' for Inactive)
REMARK    1  A    between atoms: C2_5  and  O2_6
REMARK    2  A    between atoms: C3_8  and  C4_9
REMARK    3  A    between atoms: N2_10  and  N3_12
REMARK    4  A    between atoms: C6_17  and  C7_18
REMARK    5  A    between atoms: C8_27  and  N9_28
REMARK    6  A    between atoms: N9_28  and  O3_29
REMARK    7  A    between atoms: N9_28  and  O4_31
ROOT
HETATM    1  N3  UNL     1      24.748  42.248  17.685  1.00  0.00    -0.280 N
ATOM      2  H3  UNL     1      24.300  42.703  18.480  1.00  0.00     0.189 HD
HETATM    3  C5  UNL     1      24.322  41.063  17.312  1.00  0.00     0.165 A
HETATM    4  N4  UNL     1      24.755  40.300  16.319  1.00  0.00    -0.330 N
ATOM      5  H4  UNL     1      25.521  40.612  15.722  1.00  0.00     0.168 HD
HETATM    6  C6  UNL     1      24.182  39.134  16.117  1.00  0.00     0.115 A
HETATM    7  C8  UNL     1      23.160  38.786  16.962  1.00  0.00     0.140 A
HETATM    8  S1  UNL     1      23.072  40.136  17.996  1.00  0.00    -0.034 SA
ENDROOT
BRANCH   1   9
HETATM    9  N2  UNL     1      25.774  42.897  17.045  1.00  0.00    -0.307 N
HETATM   10  C4  UNL     1      26.390  43.910  17.573  1.00  0.00     0.149 C
ATOM     11  H2  UNL     1      26.063  42.572  16.122  1.00  0.00     0.186 HD
BRANCH  10  12
HETATM   12  C3  UNL     1      26.004  44.398  18.888  1.00  0.00     0.148 A
HETATM   13  C2  UNL     1      26.445  43.897  20.088  1.00  0.00     0.180 A
HETATM   14  N1  UNL     1      25.864  44.614  21.093  1.00  0.00    -0.280 N
HETATM   15  C1  UNL     1      25.091  45.526  20.471  1.00  0.00     0.372 A
ATOM     16  H1  UNL     1      25.988  44.486  22.097  1.00  0.00     0.173 HD
HETATM   17  O1  UNL     1      24.395  46.372  21.058  1.00  0.00    -0.238 OA
HETATM   18  O5  UNL     1      25.197  45.372  19.160  1.00  0.00    -0.255 OA
BRANCH  13  19
HETATM   19  O2  UNL     1      27.323  42.849  20.323  1.00  0.00    -0.344 OA
ATOM     20  H2  UNL     1      27.598  42.246  19.643  1.00  0.00     0.219 HD
ENDBRANCH  13  19
ENDBRANCH  10  12
ENDBRANCH   1   9
BRANCH   6  21
HETATM   21  C7  UNL     1      24.592  38.200  15.028  1.00  0.00     0.167 A
HETATM   22  N5  UNL     1      23.917  37.947  13.906  1.00  0.00    -0.267 N
HETATM   23  N6  UNL     1      24.605  37.071  13.203  1.00  0.00    -0.227 N
ATOM     24  H5  UNL     1      23.024  38.361  13.639  1.00  0.00     0.190 HD
HETATM   25  N7  UNL     1      25.691  36.780  13.868  1.00  0.00    -0.227 N
ATOM     26  H6  UNL     1      24.338  36.687  12.296  1.00  0.00     0.210 HD
HETATM   27  N8  UNL     1      25.698  37.458  14.982  1.00  0.00    -0.267 N
ATOM     28  H7  UNL     1      26.415  36.128  13.566  1.00  0.00     0.210 HD
ATOM     29  H8  UNL     1      26.426  37.427  15.696  1.00  0.00     0.190 HD
ENDBRANCH   6  21
BRANCH   7  30
HETATM   30  N9  UNL     1      22.342  37.602  17.007  1.00  0.00    -0.027 NA
BRANCH  30  31
HETATM   31  O3  UNL     1      21.278  37.845  16.172  1.00  0.00    -0.284 OA
ATOM     32  H3  UNL     1      21.645  37.951  15.303  1.00  0.00     0.240 HD
ENDBRANCH  30  31
BRANCH  30  33
HETATM   33  O4  UNL     1      22.998  36.556  16.478  1.00  0.00    -0.284 OA
ATOM     34  H4  UNL     1      23.023  35.833  17.092  1.00  0.00     0.240 HD
ENDBRANCH  30  33
ENDBRANCH   7  30
TORSDOF 7
ENDMDL