MODEL 1
REMARK VINA RESULT: -8.600745218      0.000      0.000
REMARK  5 active torsions:
REMARK  status: ('A' for Active; 'I' for Inactive)
REMARK    1  A    between atoms: S1_2  and  C2_3
REMARK    2  A    between atoms: C5_9  and  N2_10
REMARK    3  A    between atoms: N2_10  and  N3_12
REMARK    4  A    between atoms: C7_17  and  N5_18
REMARK       I    between atoms: N6_21  and  C8_22
REMARK    5  A    between atoms: N10_29  and  N11_30
ROOT
HETATM    1  N3  UNL     1      24.660  41.826  18.116  1.00  0.00    -0.282 N
ATOM      2  H3  UNL     1      23.900  41.605  18.760  1.00  0.00     0.188 HD
HETATM    3  C6  UNL     1      25.589  42.580  18.543  1.00  0.00     0.163 A
HETATM    4  N4  UNL     1      25.520  43.051  19.835  1.00  0.00    -0.173 N
ATOM      5  H4  UNL     1      24.727  42.778  20.416  1.00  0.00     0.186 HD
HETATM    6  C7  UNL     1      26.449  43.847  20.354  1.00  0.00     0.689 A
HETATM    7  N6  UNL     1      27.526  44.245  19.633  1.00  0.00    -0.084 N
HETATM    8  C8  UNL     1      28.508  45.100  20.221  1.00  0.00     0.355 C
HETATM    9  N7  UNL     1      29.647  45.547  19.521  1.00  0.00    -0.039 NA
HETATM   10  O2  UNL     1      28.332  45.457  21.408  1.00  0.00    -0.249 OA
HETATM   11  C9  UNL     1      27.662  43.829  18.367  1.00  0.00     0.172 A
HETATM   12  N8  UNL     1      28.769  44.218  17.576  1.00  0.00    -0.079 NA
HETATM   13  C10 UNL     1      26.683  42.991  17.826  1.00  0.00     0.134 A
HETATM   14  N9  UNL     1      26.819  42.548  16.473  1.00  0.00    -0.095 NA
ENDROOT
BRANCH   1  15
HETATM   15  N2  UNL     1      24.598  41.292  16.868  1.00  0.00    -0.282 N
ATOM     16  H2  UNL     1      24.864  41.896  16.091  1.00  0.00     0.188 HD
BRANCH  15  17
HETATM   17  C5  UNL     1      24.191  39.951  16.541  1.00  0.00     0.148 A
HETATM   18  C4  UNL     1      23.193  39.325  17.266  1.00  0.00     0.126 A
HETATM   19  C3  UNL     1      22.822  38.058  16.933  1.00  0.00     0.251 A
HETATM   20  N1  UNL     1      23.415  37.426  15.916  1.00  0.00    -0.302 N
HETATM   21  O1  UNL     1      21.922  37.467  17.569  1.00  0.00    -0.268 OA
HETATM   22  C2  UNL     1      24.405  38.032  15.187  1.00  0.00     0.169 A
ATOM     23  H1  UNL     1      23.127  36.478  15.678  1.00  0.00     0.171 HD
HETATM   24  N10 UNL     1      24.752  39.256  15.523  1.00  0.00    -0.222 N
BRANCH  22  25
HETATM   25  S1  UNL     1      25.129  37.138  13.869  1.00  0.00    -0.096 SA
HETATM   26  C1  UNL     1      24.627  37.570  12.225  1.00  0.00     0.099 C
ENDBRANCH  22  25
BRANCH  24  27
HETATM   27  N11 UNL     1      25.755  39.913  14.822  1.00  0.00    -0.335 N
ATOM     28 2H11 UNL     1      26.624  40.068  15.332  1.00  0.00     0.177 HD
ATOM     29 1H11 UNL     1      25.598  40.205  13.857  1.00  0.00     0.177 HD
ENDBRANCH  24  27
ENDBRANCH  15  17
ENDBRANCH   1  15
BRANCH   6  30
HETATM   30  N5  UNL     1      26.344  44.271  21.592  1.00  0.00    -0.234 N
ATOM     31  H52 UNL     1      25.709  45.046  21.781  1.00  0.00     0.174 HD
ATOM     32  H51 UNL     1      26.887  43.832  22.336  1.00  0.00     0.174 HD
ENDBRANCH   6  30
TORSDOF 5
ENDMDL