MODEL 5
REMARK VINA RESULT: -7.457860870      9.044     12.274
REMARK  7 active torsions:
REMARK  status: ('A' for Active; 'I' for Inactive)
REMARK    1  A    between atoms: C1_4  and  S1_6
REMARK    2  A    between atoms: S1_6  and  C2_7
REMARK    3  A    between atoms: C2_7  and  C3_8
REMARK       I    between atoms: C3_8  and  N3_10
REMARK    4  A    between atoms: N3_10  and  N4_12
REMARK    5  A    between atoms: C7_18  and  C8_19
REMARK    6  A    between atoms: C9_25  and  N8_26
REMARK    7  A    between atoms: N9_29  and  N10_30
ROOT
HETATM    1  N4  UNL     1      32.487  45.140  21.076  1.00  0.00    -0.116 N
HETATM    2  C4  UNL     1      32.551  46.471  21.008  1.00  0.00     0.315 A
HETATM    3  O2  UNL     1      31.564  47.220  20.842  1.00  0.00    -0.262 OA
HETATM    4  C5  UNL     1      33.774  47.138  21.123  1.00  0.00     0.172 A
HETATM    5  C6  UNL     1      34.078  48.502  21.082  1.00  0.00     0.116 A
HETATM    6  N5  UNL     1      33.177  49.575  20.907  1.00  0.00    -0.097 NA
HETATM    7  C7  UNL     1      35.457  48.581  21.249  1.00  0.00     0.152 A
HETATM    8  N6  UNL     1      35.882  47.318  21.375  1.00  0.00    -0.271 N
ATOM      9  H6  UNL     1      36.859  47.055  21.512  1.00  0.00     0.188 HD
HETATM   10  N7  UNL     1      34.886  46.452  21.301  1.00  0.00    -0.075 N
HETATM   11  C9  UNL     1      34.835  45.116  21.371  1.00  0.00     0.735 A
HETATM   12  N9  UNL     1      33.650  44.484  21.259  1.00  0.00    -0.000 N
ENDROOT
BRANCH   1  13
HETATM   13  N3  UNL     1      31.334  44.419  20.973  1.00  0.00    -0.242 N
HETATM   14  C3  UNL     1      30.149  44.348  21.690  1.00  0.00     0.247 C
HETATM   15  O1  UNL     1      29.829  44.985  22.688  1.00  0.00    -0.271 OA
ATOM     16  H3  UNL     1      31.347  43.779  20.180  1.00  0.00     0.192 HD
BRANCH  14  17
HETATM   17  C2  UNL     1      29.095  43.364  21.194  1.00  0.00     0.186 C
BRANCH  17  18
HETATM   18  S1  UNL     1      27.953  44.122  20.056  1.00  0.00    -0.088 SA
BRANCH  18  19
HETATM   19  C1  UNL     1      26.261  44.091  20.538  1.00  0.00     0.148 C
HETATM   20  N1  UNL     1      25.660  44.830  21.367  1.00  0.00    -0.382 N
ATOM     21  H12 UNL     1      24.679  44.812  21.646  1.00  0.00     0.157 HD
ATOM     22  H11 UNL     1      26.233  45.551  21.806  1.00  0.00     0.157 HD
HETATM   23  N2  UNL     1      25.441  43.059  19.909  1.00  0.00    -0.075 NA
ENDBRANCH  18  19
ENDBRANCH  17  18
ENDBRANCH  14  17
ENDBRANCH   1  13
BRANCH  12  24
HETATM   24  N10 UNL     1      33.607  43.098  21.333  1.00  0.00    -0.307 N
ATOM     25 2H10 UNL     1      33.986  42.543  20.565  1.00  0.00     0.179 HD
ATOM     26 1H10 UNL     1      33.192  42.679  22.165  1.00  0.00     0.179 HD
ENDBRANCH  12  24
BRANCH  11  27
HETATM   27  N8  UNL     1      35.924  44.420  21.547  1.00  0.00    -0.230 N
ATOM     28  H82 UNL     1      36.648  44.766  22.177  1.00  0.00     0.174 HD
ATOM     29  H81 UNL     1      36.057  43.533  21.060  1.00  0.00     0.174 HD
ENDBRANCH  11  27
BRANCH   7  30
HETATM   30  C8  UNL     1      36.247  49.803  21.275  1.00  0.00     0.230 C
HETATM   31  O3  UNL     1      36.937  50.085  22.286  1.00  0.00    -0.643 OA
HETATM   32  O4  UNL     1      36.286  50.698  20.219  1.00  0.00    -0.643 OA
ENDBRANCH   7  30
TORSDOF 7
ENDMDL