MODEL 3
REMARK VINA RESULT: -7.912040174      2.075      3.104
REMARK  8 active torsions:
REMARK  status: ('A' for Active; 'I' for Inactive)
REMARK    1  A    between atoms: C2_2  and  N1_3
REMARK    2  A    between atoms: C2_2  and  C7_21
REMARK    3  A    between atoms: N1_3  and  N2_4
REMARK    4  A    between atoms: N2_4  and  C3_6
REMARK    5  A    between atoms: C5_11  and  N5_12
REMARK    6  A    between atoms: C6_15  and  N6_16
REMARK    7  A    between atoms: C9_23  and  N8_24
REMARK    8  A    between atoms: N8_24  and  N9_26
ROOT
HETATM    1  N1  UNL     1      23.377  42.341  18.052  1.00  0.00    -0.318 NA
ENDROOT
BRANCH   1   2
HETATM    2  C2  UNL     1      23.023  41.224  18.082  1.00  0.00     0.106 C
HETATM    3  C1  UNL     1      21.596  40.840  18.417  1.00  0.00     0.084 C
BRANCH   2   4
HETATM    4  C7  UNL     1      23.908  40.022  17.798  1.00  0.00     0.153 A
HETATM    5  C8  UNL     1      24.687  40.160  16.545  1.00  0.00     0.110 A
HETATM    6  C9  UNL     1      24.423  39.088  15.580  1.00  0.00     0.106 A
HETATM    7  N10 UNL     1      23.608  38.147  15.817  1.00  0.00    -0.319 N
HETATM    8  C10 UNL     1      22.852  37.988  17.005  1.00  0.00     0.190 A
ATOM      9  H10 UNL     1      23.485  37.443  15.090  1.00  0.00     0.169 HD
HETATM   10  N11 UNL     1      21.963  36.901  17.188  1.00  0.00    -0.063 NA
HETATM   11  N12 UNL     1      23.032  38.890  17.895  1.00  0.00    -0.353 N
ATOM     12  H12 UNL     1      22.500  38.795  18.760  1.00  0.00     0.163 HD
BRANCH   6  13
HETATM   13  N8  UNL     1      25.128  39.119  14.304  1.00  0.00    -0.229 N
ATOM     14  H8  UNL     1      25.824  39.839  14.111  1.00  0.00     0.194 HD
BRANCH  13  15
HETATM   15  N9  UNL     1      24.837  38.157  13.365  1.00  0.00    -0.038 N
HETATM   16  O3  UNL     1      24.339  38.494  12.275  1.00  0.00    -0.516 OA
HETATM   17  O4  UNL     1      25.071  36.824  13.574  1.00  0.00    -0.516 OA
ENDBRANCH  13  15
ENDBRANCH   6  13
ENDBRANCH   2   4
ENDBRANCH   1   2
BRANCH   1  18
HETATM   18  N2  UNL     1      23.608  43.603  18.008  1.00  0.00    -0.065 N
ATOM     19  H2  UNL     1      22.873  44.207  17.639  1.00  0.00     0.221 HD
BRANCH  18  20
HETATM   20  C3  UNL     1      24.702  44.161  18.395  1.00  0.00     0.710 A
HETATM   21  N3  UNL     1      25.249  43.749  19.544  1.00  0.00    -0.174 N
HETATM   22  C4  UNL     1      26.406  44.345  19.949  1.00  0.00     0.168 A
ATOM     23  H3  UNL     1      24.813  43.013  20.099  1.00  0.00     0.185 HD
HETATM   24  N4  UNL     1      27.051  43.971  21.146  1.00  0.00    -0.079 NA
HETATM   25  C5  UNL     1      26.947  45.325  19.172  1.00  0.00     0.188 A
HETATM   26  C6  UNL     1      26.375  45.735  18.002  1.00  0.00     0.151 A
HETATM   27  N7  UNL     1      25.232  45.124  17.630  1.00  0.00    -0.172 N
ATOM     28  H7  UNL     1      24.769  45.396  16.763  1.00  0.00     0.186 HD
BRANCH  25  29
HETATM   29  N5  UNL     1      28.151  45.958  19.578  1.00  0.00    -0.108 N
HETATM   30  O1  UNL     1      29.247  45.507  19.255  1.00  0.00    -0.532 OA
HETATM   31  O2  UNL     1      28.081  47.091  20.340  1.00  0.00    -0.532 OA
ENDBRANCH  25  29
BRANCH  26  32
HETATM   32  N6  UNL     1      26.881  46.661  17.262  1.00  0.00    -0.383 N
ATOM     33  H62 UNL     1      27.798  47.047  17.484  1.00  0.00     0.157 HD
ATOM     34  H61 UNL     1      26.403  47.039  16.444  1.00  0.00     0.157 HD
ENDBRANCH  26  32
ENDBRANCH  18  20
ENDBRANCH   1  18
TORSDOF 8
ENDMDL