MODEL 2
REMARK VINA RESULT: -8.034087522      0.040      1.526
REMARK  7 active torsions:
REMARK  status: ('A' for Active; 'I' for Inactive)
REMARK    1  A    between atoms: C3_3  and  N1_4
REMARK    2  A    between atoms: N1_4  and  N2_6
REMARK    3  A    between atoms: N2_6  and  C4_8
REMARK    4  A    between atoms: N3_9  and  N4_10
REMARK    5  A    between atoms: C5_13  and  N5_14
REMARK    6  A    between atoms: N6_16  and  C6_18
REMARK    7  A    between atoms: N11_31  and  N12_32
REMARK       I    between atoms: N12_32  and  C10_34
ROOT
HETATM    1  C1  UNL     1      24.530  37.702  11.281  1.00  0.00     0.103 C
HETATM    2  C2  UNL     1      24.935  37.099  12.380  1.00  0.00    -0.142 C
HETATM    3  C3  UNL     1      25.308  36.559  13.519  1.00  0.00     0.157 C
ENDROOT
BRANCH   3   4
HETATM    4  N1  UNL     1      25.312  37.416  14.629  1.00  0.00    -0.290 N
ATOM      5  H1  UNL     1      25.892  37.169  15.431  1.00  0.00     0.187 HD
BRANCH   4   6
HETATM    6  N2  UNL     1      24.564  38.587  14.689  1.00  0.00    -0.128 N
ATOM      7  H2  UNL     1      24.127  38.920  13.830  1.00  0.00     0.205 HD
BRANCH   6   8
HETATM    8  C4  UNL     1      24.388  39.280  15.764  1.00  0.00     0.742 A
HETATM    9  N3  UNL     1      25.181  40.345  16.097  1.00  0.00    -0.068 N
HETATM   10  C5  UNL     1      24.732  40.828  17.252  1.00  0.00     0.204 A
HETATM   11  C9  UNL     1      23.658  40.050  17.618  1.00  0.00     0.204 A
HETATM   12  N10 UNL     1      22.900  40.255  18.810  1.00  0.00    -0.076 NA
HETATM   13  N11 UNL     1      23.436  39.069  16.679  1.00  0.00    -0.062 N
BRANCH   9  14
HETATM   14  N4  UNL     1      26.256  40.802  15.333  1.00  0.00    -0.322 N
ATOM     15  H42 UNL     1      26.415  40.678  14.333  1.00  0.00     0.178 HD
ATOM     16  H41 UNL     1      27.041  41.339  15.702  1.00  0.00     0.178 HD
ENDBRANCH   9  14
BRANCH  10  17
HETATM   17  N5  UNL     1      25.251  41.943  17.989  1.00  0.00    -0.266 N
HETATM   18  N6  UNL     1      25.605  41.842  19.200  1.00  0.00    -0.130 N
ATOM     19  H6  UNL     1      25.540  40.960  19.709  1.00  0.00     0.205 HD
ATOM     20  H5  UNL     1      25.336  42.847  17.523  1.00  0.00     0.189 HD
BRANCH  18  21
HETATM   21  C6  UNL     1      26.104  43.036  19.813  1.00  0.00     0.705 A
HETATM   22  N7  UNL     1      27.325  43.047  20.393  1.00  0.00    -0.139 N
HETATM   23  C7  UNL     1      27.787  44.179  20.969  1.00  0.00     0.342 A
ATOM     24  H7  UNL     1      27.897  42.202  20.396  1.00  0.00     0.189 HD
HETATM   25  O1  UNL     1      28.924  44.193  21.509  1.00  0.00    -0.246 OA
HETATM   26  N8  UNL     1      27.082  45.310  20.992  1.00  0.00    -0.260 N
HETATM   27  C8  UNL     1      25.857  45.298  20.410  1.00  0.00     0.342 A
ATOM     28  H8  UNL     1      27.450  46.154  21.431  1.00  0.00     0.175 HD
HETATM   29  O2  UNL     1      25.198  46.356  20.434  1.00  0.00    -0.246 OA
HETATM   30  N9  UNL     1      25.407  44.171  19.841  1.00  0.00    -0.139 N
ATOM     31  H9  UNL     1      24.484  44.182  19.409  1.00  0.00     0.189 HD
ENDBRANCH  18  21
ENDBRANCH  10  17
BRANCH  13  32
HETATM   32  N12 UNL     1      22.416  38.146  16.801  1.00  0.00    -0.248 N
HETATM   33  C10 UNL     1      22.455  36.750  16.743  1.00  0.00     0.233 C
HETATM   34  C11 UNL     1      21.160  35.968  16.913  1.00  0.00     0.119 C
HETATM   35  O3  UNL     1      23.448  36.056  16.565  1.00  0.00    -0.272 OA
ATOM     36  H12 UNL     1      21.490  38.545  16.958  1.00  0.00     0.191 HD
ENDBRANCH  13  32
ENDBRANCH   6   8
ENDBRANCH   4   6
ENDBRANCH   3   4
TORSDOF 7
ENDMDL