MODEL 4
REMARK VINA RESULT: -8.813841784      1.831      8.725
REMARK  8 active torsions:
REMARK  status: ('A' for Active; 'I' for Inactive)
REMARK    1  A    between atoms: N1_1  and  C1_4
REMARK    2  A    between atoms: N5_11  and  C2_12
REMARK    3  A    between atoms: C2_12  and  C3_13
REMARK    4  A    between atoms: C3_13  and  C4_14
REMARK    5  A    between atoms: C5_17  and  C6_18
REMARK    6  A    between atoms: N7_19  and  N8_21
REMARK    7  A    between atoms: N8_21  and  C7_23
REMARK    8  A    between atoms: C10_32  and  O1_33
ROOT
HETATM    1  C4  UNL     1      23.940  38.699  16.154  1.00  0.00     0.110 A
HETATM    2  N6  UNL     1      24.211  39.978  16.462  1.00  0.00    -0.346 N
ATOM      3  H6  UNL     1      24.848  40.538  15.895  1.00  0.00     0.166 HD
HETATM    4  C5  UNL     1      23.603  40.493  17.559  1.00  0.00     0.109 A
HETATM    5  C10 UNL     1      22.742  39.730  18.324  1.00  0.00     0.215 A
HETATM    6  O2  UNL     1      22.490  38.477  18.004  1.00  0.00    -0.248 OA
HETATM    7  C11 UNL     1      23.076  37.961  16.935  1.00  0.00     0.317 A
HETATM    8  O3  UNL     1      22.856  36.757  16.597  1.00  0.00    -0.257 OA
ENDROOT
BRANCH   4   9
HETATM    9  C6  UNL     1      23.849  41.879  17.959  1.00  0.00     0.142 C
HETATM   10  N7  UNL     1      24.640  42.153  18.939  1.00  0.00    -0.295 N
ATOM     11  H7  UNL     1      25.090  41.381  19.430  1.00  0.00     0.186 HD
BRANCH  10  12
HETATM   12  N8  UNL     1      24.905  43.439  19.354  1.00  0.00    -0.131 N
ATOM     13  H8  UNL     1      24.192  44.150  19.185  1.00  0.00     0.205 HD
BRANCH  12  14
HETATM   14  C7  UNL     1      26.110  43.845  20.005  1.00  0.00     0.707 C
HETATM   15  N9  UNL     1      26.182  44.115  21.261  1.00  0.00    -0.135 N
HETATM   16  N10 UNL     1      27.390  44.508  21.836  1.00  0.00    -0.321 N
ATOM     17  H9  UNL     1      25.347  44.042  21.843  1.00  0.00     0.205 HD
HETATM   18  C8  UNL     1      28.660  44.070  21.297  1.00  0.00     0.160 C
ATOM     19  H10 UNL     1      27.378  45.117  22.655  1.00  0.00     0.180 HD
HETATM   20  C9  UNL     1      28.582  43.694  19.848  1.00  0.00     0.159 C
HETATM   21  N11 UNL     1      27.299  43.963  19.240  1.00  0.00    -0.222 N
ATOM     22  H11 UNL     1      27.247  44.238  18.259  1.00  0.00     0.177 HD
ENDBRANCH  12  14
ENDBRANCH  10  12
ENDBRANCH   4   9
BRANCH   5  23
HETATM   23  O1  UNL     1      22.150  40.327  19.444  1.00  0.00    -0.339 OA
ATOM     24  H1  UNL     1      22.613  41.042  19.866  1.00  0.00     0.220 HD
ENDBRANCH   5  23
BRANCH   1  25
HETATM   25  C3  UNL     1      24.558  38.057  14.975  1.00  0.00     0.056 C
BRANCH  25  26
HETATM   26  C2  UNL     1      25.053  38.783  13.988  1.00  0.00     0.139 C
BRANCH  26  27
HETATM   27  N5  UNL     1      24.661  38.536  12.648  1.00  0.00    -0.081 N
HETATM   28  C1  UNL     1      25.276  39.060  11.565  1.00  0.00     0.713 A
HETATM   29  N2  UNL     1      24.611  38.592  10.487  1.00  0.00    -0.115 N
HETATM   30  N3  UNL     1      23.634  37.817  10.881  1.00  0.00    -0.213 N
ATOM     31  H2  UNL     1      24.836  38.809   9.517  1.00  0.00     0.207 HD
HETATM   32  N4  UNL     1      23.677  37.793  12.212  1.00  0.00    -0.207 N
ATOM     33  H3  UNL     1      22.967  37.325  10.285  1.00  0.00     0.210 HD
ATOM     34  H4  UNL     1      23.034  37.270  12.806  1.00  0.00     0.211 HD
BRANCH  28  35
HETATM   35  N1  UNL     1      26.296  39.849  11.558  1.00  0.00    -0.231 N
ATOM     36  H12 UNL     1      27.116  39.787  10.954  1.00  0.00     0.174 HD
ATOM     37  H11 UNL     1      26.441  40.661  12.157  1.00  0.00     0.174 HD
ENDBRANCH  28  35
ENDBRANCH  26  27
ENDBRANCH  25  26
ENDBRANCH   1  25
TORSDOF 8
ENDMDL