MODEL 5
REMARK VINA RESULT: -6.225078066      2.551      4.714
REMARK  7 active torsions:
REMARK  status: ('A' for Active; 'I' for Inactive)
REMARK    1  A    between atoms: C1_4  and  C2_6
REMARK    2  A    between atoms: C3_11  and  N5_12
REMARK    3  A    between atoms: N7_20  and  C8_21
REMARK    4  A    between atoms: C9_27  and  C10_28
REMARK    5  A    between atoms: C10_28  and  N11_33
REMARK    6  A    between atoms: N10_29  and  O1_31
REMARK    7  A    between atoms: N11_33  and  N12_35
ROOT
HETATM    1  C2  UNL     1      32.604  45.146  19.796  1.00  0.00     0.186 A
HETATM    2  N3  UNL     1      32.218  46.399  19.429  1.00  0.00    -0.267 N
ATOM      3  H3  UNL     1      31.450  46.614  18.795  1.00  0.00     0.189 HD
HETATM    4  N4  UNL     1      32.983  47.282  20.014  1.00  0.00    -0.130 N
ATOM      5  H4  UNL     1      32.900  48.293  19.904  1.00  0.00     0.205 HD
HETATM    6  C3  UNL     1      33.919  46.645  20.804  1.00  0.00     0.705 A
HETATM    7  N7  UNL     1      33.636  45.347  20.627  1.00  0.00    -0.108 N
ENDROOT
BRANCH   7   8
HETATM    8  C8  UNL     1      34.351  44.242  21.250  1.00  0.00     0.169 A
HETATM    9  N8  UNL     1      35.306  43.625  20.571  1.00  0.00    -0.295 N
HETATM   10  S1  UNL     1      35.878  42.455  21.616  1.00  0.00     0.069 SA
ATOM     11  H8  UNL     1      35.622  43.821  19.622  1.00  0.00     0.177 HD
HETATM   12  N9  UNL     1      34.874  42.776  22.920  1.00  0.00    -0.306 N
HETATM   13  C9  UNL     1      34.103  43.801  22.515  1.00  0.00     0.133 A
ATOM     14  H9  UNL     1      34.853  42.300  23.822  1.00  0.00     0.176 HD
BRANCH  13  15
HETATM   15  C10 UNL     1      33.071  44.361  23.443  1.00  0.00     0.171 C
HETATM   16  N10 UNL     1      33.411  45.141  24.380  1.00  0.00    -0.250 N
ATOM     17  H10 UNL     1      34.398  45.377  24.485  1.00  0.00     0.196 HD
BRANCH  16  18
HETATM   18  O1  UNL     1      32.520  45.677  25.250  1.00  0.00    -0.288 OA
ATOM     19  H1  UNL     1      32.649  45.667  26.191  1.00  0.00     0.244 HD
ENDBRANCH  16  18
BRANCH  15  20
HETATM   20  N11 UNL     1      31.701  44.017  23.276  1.00  0.00    -0.289 N
ATOM     21  H11 UNL     1      31.370  43.105  23.591  1.00  0.00     0.188 HD
BRANCH  20  22
HETATM   22  N12 UNL     1      30.803  44.907  22.687  1.00  0.00    -0.344 N
ATOM     23 2H12 UNL     1      31.055  45.333  21.795  1.00  0.00     0.176 HD
ATOM     24 1H12 UNL     1      29.914  45.129  23.134  1.00  0.00     0.176 HD
ENDBRANCH  20  22
ENDBRANCH  15  20
ENDBRANCH  13  15
ENDBRANCH   7   8
BRANCH   1  25
HETATM   25  C1  UNL     1      31.964  43.934  19.335  1.00  0.00     0.157 C
HETATM   26  N1  UNL     1      31.915  43.670  18.083  1.00  0.00    -0.385 N
ATOM     27  H12 UNL     1      31.464  42.815  17.757  1.00  0.00     0.157 HD
ATOM     28  H11 UNL     1      32.339  44.322  17.422  1.00  0.00     0.157 HD
HETATM   29  N2  UNL     1      31.380  43.035  20.246  1.00  0.00    -0.079 NA
ENDBRANCH   1  25
BRANCH   6  30
HETATM   30  N5  UNL     1      34.896  47.307  21.579  1.00  0.00    -0.213 N
HETATM   31  C4  UNL     1      36.299  47.418  21.333  1.00  0.00     0.168 C
HETATM   32  C5  UNL     1      36.937  48.283  22.450  1.00  0.00     0.252 C
HETATM   33  N6  UNL     1      36.273  49.541  22.555  1.00  0.00    -0.072 N
HETATM   34  C6  UNL     1      34.859  49.416  22.851  1.00  0.00     0.252 C
ATOM     35  H62 UNL     1      36.736  50.140  23.240  1.00  0.00     0.277 HD
ATOM     36  H61 UNL     1      36.420  50.101  21.715  1.00  0.00     0.277 HD
HETATM   37  C7  UNL     1      34.443  47.980  22.802  1.00  0.00     0.168 C
ENDBRANCH   6  30
TORSDOF 7
ENDMDL