MODEL 4
REMARK VINA RESULT: -6.824721824      7.625      9.629
REMARK  8 active torsions:
REMARK  status: ('A' for Active; 'I' for Inactive)
REMARK    1  A    between atoms: C2_3  and  N2_4
REMARK    2  A    between atoms: C3_5  and  N3_6
REMARK    3  A    between atoms: N3_6  and  N4_8
REMARK    4  A    between atoms: N4_8  and  C4_10
REMARK    5  A    between atoms: C4_10  and  N5_11
REMARK    6  A    between atoms: C5_14  and  C6_15
REMARK       I    between atoms: C6_15  and  N6_17
REMARK    7  A    between atoms: N6_17  and  N7_19
REMARK    8  A    between atoms: C11_29  and  O3_30
ROOT
HETATM    1  N2  UNL     1      34.371  46.055  20.005  1.00  0.00    -0.216 N
HETATM    2  C3  UNL     1      35.040  44.854  19.975  1.00  0.00     0.166 A
HETATM    3  C5  UNL     1      34.333  43.974  19.190  1.00  0.00     0.150 A
HETATM    4  C7  UNL     1      33.224  44.728  18.767  1.00  0.00     0.281 A
HETATM    5  O2  UNL     1      32.296  44.315  18.015  1.00  0.00    -0.265 OA
HETATM    6  N8  UNL     1      33.296  45.967  19.283  1.00  0.00    -0.251 N
HETATM    7  C8  UNL     1      32.282  46.982  19.017  1.00  0.00     0.182 C
ENDROOT
BRANCH   1   8
HETATM    8  C2  UNL     1      34.799  47.186  20.726  1.00  0.00     0.136 A
HETATM    9  N1  UNL     1      34.367  47.328  21.989  1.00  0.00    -0.301 N
HETATM   10  C1  UNL     1      33.473  46.371  22.653  1.00  0.00     0.161 C
HETATM   11  C12 UNL     1      34.761  48.396  22.708  1.00  0.00     0.284 A
HETATM   12  C11 UNL     1      35.603  49.363  22.191  1.00  0.00     0.159 A
HETATM   13  O4  UNL     1      34.353  48.535  23.908  1.00  0.00    -0.265 OA
HETATM   14  C10 UNL     1      36.067  49.242  20.884  1.00  0.00     0.088 A
HETATM   15  C9  UNL     1      35.650  48.145  20.174  1.00  0.00     0.080 A
HETATM   16  N9  UNL     1      36.937  50.196  20.287  1.00  0.00    -0.099 NA
BRANCH  12  17
HETATM   17  O3  UNL     1      36.015  50.460  22.910  1.00  0.00    -0.354 OA
ATOM     18  H3  UNL     1      35.342  51.023  23.273  1.00  0.00     0.218 HD
ENDBRANCH  12  17
ENDBRANCH   1   8
BRANCH   2  19
HETATM   19  N3  UNL     1      36.269  44.637  20.680  1.00  0.00    -0.275 N
ATOM     20  H3  UNL     1      37.041  45.262  20.445  1.00  0.00     0.189 HD
BRANCH  19  21
HETATM   21  N4  UNL     1      36.525  43.698  21.620  1.00  0.00    -0.249 N
ATOM     22  H4  UNL     1      37.435  43.236  21.629  1.00  0.00     0.198 HD
BRANCH  21  23
HETATM   23  C4  UNL     1      35.647  43.375  22.503  1.00  0.00     0.060 C
BRANCH  23  24
HETATM   24  N5  UNL     1      34.671  42.775  23.060  1.00  0.00    -0.351 N
ATOM     25  H52 UNL     1      34.725  41.922  22.504  1.00  0.00     0.167 HD
ATOM     26  H51 UNL     1      33.887  42.594  23.686  1.00  0.00     0.167 HD
ENDBRANCH  23  24
ENDBRANCH  21  23
ENDBRANCH  19  21
ENDBRANCH   2  19
BRANCH   3  27
HETATM   27  C6  UNL     1      34.543  42.589  18.864  1.00  0.00     0.279 C
HETATM   28  O1  UNL     1      35.592  41.994  19.173  1.00  0.00    -0.266 OA
HETATM   29  N6  UNL     1      33.588  41.819  18.183  1.00  0.00    -0.272 N
ATOM     30  H6  UNL     1      32.705  42.240  17.896  1.00  0.00     0.189 HD
BRANCH  29  31
HETATM   31  N7  UNL     1      33.855  40.437  17.891  1.00  0.00    -0.342 N
ATOM     32  H72 UNL     1      33.665  40.084  16.953  1.00  0.00     0.176 HD
ATOM     33  H71 UNL     1      34.228  39.826  18.617  1.00  0.00     0.176 HD
ENDBRANCH  29  31
ENDBRANCH   3  27
TORSDOF 8
ENDMDL