MODEL 2
REMARK VINA RESULT: -7.454486802      5.123      7.914
REMARK  5 active torsions:
REMARK  status: ('A' for Active; 'I' for Inactive)
REMARK       I    between atoms: C1_4  and  N3_6
REMARK    1  A    between atoms: C3_11  and  N6_12
REMARK    2  A    between atoms: N7_14  and  C4_16
REMARK    3  A    between atoms: C5_17  and  S1_18
REMARK    4  A    between atoms: C6_25  and  O5_26
REMARK    5  A    between atoms: C7_28  and  N9_29
ROOT
HETATM    1  N1  UNL     1      29.146  44.190  21.627  1.00  0.00    -0.372 N
ATOM      2  H11 UNL     1      29.360  44.927  20.956  1.00  0.00     0.158 HD
ATOM      3  H12 UNL     1      28.186  43.861  21.726  1.00  0.00     0.158 HD
HETATM    4  C1  UNL     1      30.121  43.707  22.330  1.00  0.00     0.210 C
HETATM    5  N2  UNL     1      29.824  42.685  23.261  1.00  0.00    -0.062 NA
HETATM    6  N3  UNL     1      31.457  44.166  22.192  1.00  0.00    -0.188 N
HETATM    7  N4  UNL     1      32.038  44.970  23.057  1.00  0.00    -0.274 N
ATOM      8  H4  UNL     1      31.503  45.279  23.868  1.00  0.00     0.189 HD
HETATM    9  C2  UNL     1      33.311  45.407  22.923  1.00  0.00     0.162 A
HETATM   10  N5  UNL     1      33.864  46.269  23.905  1.00  0.00    -0.079 NA
HETATM   11  C3  UNL     1      34.111  45.043  21.862  1.00  0.00     0.122 A
HETATM   12  C7  UNL     1      33.495  44.184  20.937  1.00  0.00     0.128 A
HETATM   13  C8  UNL     1      32.196  43.780  21.136  1.00  0.00     0.297 A
HETATM   14  O6  UNL     1      31.636  43.001  20.296  1.00  0.00    -0.264 OA
ENDROOT
BRANCH  11  15
HETATM   15  N6  UNL     1      35.444  45.468  21.682  1.00  0.00    -0.295 N
HETATM   16  N7  UNL     1      35.928  46.419  21.105  1.00  0.00    -0.293 N
ATOM     17  H7  UNL     1      36.946  46.434  21.164  1.00  0.00     0.187 HD
ATOM     18  H6  UNL     1      36.133  44.858  22.121  1.00  0.00     0.187 HD
BRANCH  16  19
HETATM   19  C4  UNL     1      35.426  47.489  20.384  1.00  0.00     0.151 A
HETATM   20  C5  UNL     1      35.195  48.797  20.845  1.00  0.00     0.204 A
HETATM   21  N8  UNL     1      34.719  49.477  19.816  1.00  0.00    -0.243 N
HETATM   22  O4  UNL     1      34.636  48.715  18.769  1.00  0.00    -0.209 OA
ATOM     23  H8  UNL     1      34.454  50.461  19.841  1.00  0.00     0.196 HD
HETATM   24  C6  UNL     1      35.054  47.501  19.062  1.00  0.00     0.236 A
BRANCH  20  25
HETATM   25  S1  UNL     1      35.499  49.355  22.467  1.00  0.00     0.159 S
HETATM   26  O1  UNL     1      34.248  49.444  23.256  1.00  0.00    -0.590 OA
HETATM   27  O2  UNL     1      36.157  50.708  22.468  1.00  0.00    -0.590 OA
HETATM   28  O3  UNL     1      36.560  48.261  23.219  1.00  0.00    -0.590 OA
ENDBRANCH  20  25
BRANCH  24  29
HETATM   29  O5  UNL     1      35.119  46.401  18.203  1.00  0.00    -0.338 OA
ATOM     30  H5  UNL     1      34.791  46.387  17.311  1.00  0.00     0.220 HD
ENDBRANCH  24  29
ENDBRANCH  16  19
ENDBRANCH  11  15
BRANCH  12  31
HETATM   31  N9  UNL     1      34.190  43.810  19.926  1.00  0.00    -0.393 N
ATOM     32  H92 UNL     1      34.388  42.830  19.725  1.00  0.00     0.156 HD
ATOM     33  H91 UNL     1      34.550  44.538  19.309  1.00  0.00     0.156 HD
ENDBRANCH  12  31
TORSDOF 5
ENDMDL