MODEL 4
REMARK VINA RESULT: -8.047626762      1.042      1.181
REMARK  13 active torsions:
REMARK  status: ('A' for Active; 'I' for Inactive)
REMARK    1  A    between atoms: C2_2  and  O2_4
REMARK    2  A    between atoms: O2_4  and  C3_5
REMARK    3  A    between atoms: C4_8  and  N2_9
REMARK    4  A    between atoms: N4_15  and  N5_17
REMARK    5  A    between atoms: N5_17  and  O3_19
REMARK    6  A    between atoms: O3_19  and  C6_20
REMARK    7  A    between atoms: C6_20  and  C7_22
REMARK    8  A    between atoms: C7_22  and  O5_23
REMARK    9  A    between atoms: N6_25  and  O6_27
REMARK   10  A    between atoms: N7_29  and  C8_30
REMARK   11  A    between atoms: C8_30  and  O7_31
REMARK   12  A    between atoms: C8_30  and  N8_33
REMARK   13  A    between atoms: N8_33  and  O8_35
ROOT
HETATM    1  C3  UNL     1      24.641  38.324  15.211  1.00  0.00     0.271 A
HETATM    2  N1  UNL     1      25.617  39.235  14.890  1.00  0.00    -0.153 N
ATOM      3  H1  UNL     1      26.270  39.004  14.140  1.00  0.00     0.188 HD
HETATM    4  C4  UNL     1      25.753  40.404  15.509  1.00  0.00     0.693 A
HETATM    5  N3  UNL     1      24.889  40.677  16.482  1.00  0.00    -0.020 N
ATOM      6  H3  UNL     1      24.958  41.562  16.984  1.00  0.00     0.203 HD
HETATM    7  C5  UNL     1      23.930  39.805  16.809  1.00  0.00     0.726 A
HETATM    8  N4  UNL     1      23.119  40.134  17.763  1.00  0.00    -0.111 N
ATOM      9  H4  UNL     1      22.379  39.485  18.032  1.00  0.00     0.207 HD
HETATM   10  N7  UNL     1      23.765  38.579  16.177  1.00  0.00    -0.068 N
ENDROOT
BRANCH   8  11
HETATM   11  N5  UNL     1      23.229  41.349  18.432  1.00  0.00    -0.184 N
ATOM     12  H5  UNL     1      22.488  42.046  18.361  1.00  0.00     0.217 HD
BRANCH  11  13
HETATM   13  O3  UNL     1      24.349  41.599  19.190  1.00  0.00    -0.176 OA
BRANCH  13  14
HETATM   14  C6  UNL     1      25.155  42.710  19.001  1.00  0.00     0.359 C
HETATM   15  O4  UNL     1      25.087  43.250  17.851  1.00  0.00    -0.253 OA
BRANCH  14  16
HETATM   16  C7  UNL     1      26.029  43.252  20.011  1.00  0.00     0.239 C
HETATM   17  N6  UNL     1      25.547  43.989  20.949  1.00  0.00    -0.242 N
ATOM     18  H6  UNL     1      24.544  44.177  20.957  1.00  0.00     0.196 HD
BRANCH  16  19
HETATM   19  O5  UNL     1      27.381  42.998  19.997  1.00  0.00    -0.340 OA
ATOM     20  H5  UNL     1      28.015  43.698  20.104  1.00  0.00     0.219 HD
ENDBRANCH  16  19
BRANCH  17  21
HETATM   21  O6  UNL     1      26.327  44.534  21.940  1.00  0.00    -0.288 OA
ATOM     22  H6  UNL     1      26.009  45.206  22.532  1.00  0.00     0.244 HD
ENDBRANCH  17  21
ENDBRANCH  14  16
ENDBRANCH  13  14
ENDBRANCH  11  13
ENDBRANCH   8  11
BRANCH  10  23
HETATM   23  C8  UNL     1      22.639  37.834  16.547  1.00  0.00     0.268 C
BRANCH  23  24
HETATM   24  O7  UNL     1      21.565  38.621  16.710  1.00  0.00    -0.330 OA
ATOM     25  H7  UNL     1      20.806  38.268  16.260  1.00  0.00     0.221 HD
ENDBRANCH  23  24
BRANCH  23  26
HETATM   26  N8  UNL     1      22.328  36.518  16.782  1.00  0.00    -0.227 N
HETATM   27  C9  UNL     1      23.057  35.311  16.974  1.00  0.00     0.189 C
BRANCH  26  28
HETATM   28  O8  UNL     1      20.918  36.282  16.864  1.00  0.00    -0.285 OA
ATOM     29  H8  UNL     1      20.632  35.549  16.331  1.00  0.00     0.245 HD
ENDBRANCH  26  28
ENDBRANCH  23  26
ENDBRANCH  10  23
BRANCH   4  30
HETATM   30  N2  UNL     1      26.689  41.253  15.182  1.00  0.00    -0.234 N
ATOM     31  H22 UNL     1      26.486  42.059  14.591  1.00  0.00     0.174 HD
ATOM     32  H21 UNL     1      27.651  41.143  15.502  1.00  0.00     0.174 HD
ENDBRANCH   4  30
BRANCH   1  33
HETATM   33  O2  UNL     1      24.626  37.140  14.490  1.00  0.00    -0.245 OA
BRANCH  33  34
HETATM   34  C2  UNL     1      24.799  37.200  13.077  1.00  0.00     0.262 C
HETATM   35  C1  UNL     1      25.607  36.158  12.393  1.00  0.00     0.126 C
HETATM   36  O1  UNL     1      24.242  38.152  12.501  1.00  0.00    -0.265 OA
ENDBRANCH  33  34
ENDBRANCH   1  33
TORSDOF 13
ENDMDL