MODEL 5
REMARK VINA RESULT: -8.192270034      2.594      6.314
REMARK  13 active torsions:
REMARK  status: ('A' for Active; 'I' for Inactive)
REMARK       I    between atoms: N1_2  and  C2_4
REMARK    1  A    between atoms: C2_4  and  C3_6
REMARK    2  A    between atoms: C3_6  and  C4_7
REMARK    3  A    between atoms: C4_7  and  C5_8
REMARK    4  A    between atoms: C4_7  and  C24_32
REMARK    5  A    between atoms: C5_8  and  C6_9
REMARK    6  A    between atoms: C6_9  and  C7_10
REMARK    7  A    between atoms: C6_9  and  C12_16
REMARK    8  A    between atoms: C7_10  and  C8_11
REMARK    9  A    between atoms: C10_13  and  C11_14
REMARK   10  A    between atoms: C12_16  and  C13_17
REMARK   11  A    between atoms: C16_22  and  C17_23
REMARK   12  A    between atoms: C17_23  and  O4_25
REMARK       I    between atoms: C24_32  and  N3_34
REMARK   13  A    between atoms: N3_34  and  C25_36
ROOT
HETATM    1  C6  UNL     1      15.159  65.899  23.868  1.00  0.00    -0.004 C
ENDROOT
BRANCH   1   2
HETATM    2  C5  UNL     1      16.433  65.280  23.436  1.00  0.00     0.020 C
BRANCH   2   3
HETATM    3  C4  UNL     1      16.397  64.023  22.652  1.00  0.00     0.087 C
BRANCH   3   4
HETATM    4  C3  UNL     1      17.550  64.130  21.639  1.00  0.00     0.117 C
BRANCH   4   5
HETATM    5  C2  UNL     1      17.087  64.666  20.348  1.00  0.00     0.217 C
HETATM    6  N1  UNL     1      17.695  65.835  19.835  1.00  0.00    -0.365 N
HETATM    7  C1  UNL     1      17.252  66.367  18.577  1.00  0.00     0.149 C
ATOM      8  H1  UNL     1      18.442  66.297  20.355  1.00  0.00     0.161 HD
HETATM    9  O1  UNL     1      16.174  64.098  19.722  1.00  0.00    -0.274 OA
ENDBRANCH   4   5
ENDBRANCH   3   4
BRANCH   3  10
HETATM   10  C24 UNL     1      16.818  62.809  23.484  1.00  0.00     0.226 C
HETATM   11  O5  UNL     1      15.973  62.360  24.302  1.00  0.00    -0.273 OA
HETATM   12  N3  UNL     1      18.071  62.269  23.311  1.00  0.00    -0.327 N
ATOM     13  H3  UNL     1      18.671  62.716  22.618  1.00  0.00     0.169 HD
BRANCH  12  14
HETATM   14  C25 UNL     1      18.610  61.165  23.991  1.00  0.00     0.034 A
HETATM   15  C26 UNL     1      19.272  61.218  25.197  1.00  0.00     0.030 A
HETATM   16  C27 UNL     1      19.765  60.058  25.817  1.00  0.00     0.009 A
HETATM   17  C28 UNL     1      19.614  58.818  25.257  1.00  0.00    -0.062 A
HETATM   18  C29 UNL     1      20.115  57.574  25.872  1.00  0.00     0.048 C
HETATM   19  C30 UNL     1      18.951  58.757  24.045  1.00  0.00     0.009 A
HETATM   20  C31 UNL     1      18.466  59.877  23.433  1.00  0.00     0.030 A
ENDBRANCH  12  14
ENDBRANCH   3  10
ENDBRANCH   2   3
ENDBRANCH   1   2
BRANCH   1  21
HETATM   21  C7  UNL     1      13.941  65.293  23.268  1.00  0.00     0.039 C
BRANCH  21  22
HETATM   22  C8  UNL     1      13.039  66.310  22.659  1.00  0.00    -0.081 C
HETATM   23  C9  UNL     1      11.807  66.709  23.359  1.00  0.00     0.043 C
HETATM   24  C10 UNL     1      13.356  66.835  21.504  1.00  0.00     0.043 C
BRANCH  24  25
HETATM   25  C11 UNL     1      12.537  67.837  20.829  1.00  0.00     0.259 C
HETATM   26  O2  UNL     1      12.919  69.031  20.770  1.00  0.00    -0.302 OA
ENDBRANCH  24  25
ENDBRANCH  21  22
ENDBRANCH   1  21
BRANCH   1  27
HETATM   27  C12 UNL     1      15.010  66.250  25.288  1.00  0.00     0.062 C
BRANCH  27  28
HETATM   28  C13 UNL     1      14.490  65.200  26.197  1.00  0.00     0.017 A
HETATM   29  N2  UNL     1      13.155  64.944  26.322  1.00  0.00    -0.358 N
HETATM   30  C14 UNL     1      12.936  63.927  27.167  1.00  0.00     0.044 A
ATOM     31  H2  UNL     1      12.420  65.459  25.837  1.00  0.00     0.166 HD
HETATM   32  C15 UNL     1      11.777  63.296  27.620  1.00  0.00     0.048 A
HETATM   33  C21 UNL     1      14.183  63.526  27.592  1.00  0.00    -0.002 A
HETATM   34  C16 UNL     1      11.881  62.255  28.505  1.00  0.00     0.041 A
HETATM   35  C19 UNL     1      13.146  61.867  28.922  1.00  0.00     0.018 A
HETATM   36  C20 UNL     1      14.302  62.478  28.485  1.00  0.00     0.015 A
HETATM   37  C22 UNL     1      15.145  64.301  27.004  1.00  0.00    -0.027 A
HETATM   38  C23 UNL     1      16.630  64.226  27.221  1.00  0.00     0.051 C
BRANCH  34  39
HETATM   39  C17 UNL     1      10.695  61.551  29.016  1.00  0.00     0.293 C
HETATM   40  O3  UNL     1      10.405  60.427  28.540  1.00  0.00    -0.259 OA
BRANCH  39  41
HETATM   41  O4  UNL     1       9.877  62.071  30.002  1.00  0.00    -0.323 OA
HETATM   42  C18 UNL     1       9.680  61.399  31.244  1.00  0.00     0.213 C
ENDBRANCH  39  41
ENDBRANCH  34  39
ENDBRANCH  27  28
ENDBRANCH   1  27
TORSDOF 13
ENDMDL