MODEL 5
REMARK VINA RESULT: -8.290560888      3.155      7.964
REMARK  10 active torsions:
REMARK  status: ('A' for Active; 'I' for Inactive)
REMARK    1  A    between atoms: C5_5  and  N1_6
REMARK    2  A    between atoms: N1_6  and  C6_7
REMARK       I    between atoms: N1_6  and  C9_12
REMARK    3  A    between atoms: C6_7  and  C7_8
REMARK    4  A    between atoms: C7_8  and  C8_9
REMARK    5  A    between atoms: C9_12  and  C10_14
REMARK    6  A    between atoms: C10_14  and  C11_15
REMARK    7  A    between atoms: C11_15  and  O3_16
REMARK    8  A    between atoms: O3_16  and  C12_17
REMARK    9  A    between atoms: C17_22  and  N3_23
REMARK       I    between atoms: N3_23  and  C18_25
REMARK       I    between atoms: C18_25  and  N4_27
REMARK   10  A    between atoms: N4_27  and  C19_29
ROOT
HETATM    1  C12 UNL     1      13.527  64.460  26.809  1.00  0.00     0.070 A
HETATM    2  C13 UNL     1      12.371  64.389  27.623  1.00  0.00     0.037 A
HETATM    3  C14 UNL     1      11.299  65.198  27.379  1.00  0.00     0.012 A
HETATM    4  C15 UNL     1      11.259  66.115  26.355  1.00  0.00    -0.035 A
HETATM    5  C16 UNL     1      10.051  66.960  26.135  1.00  0.00     0.050 C
HETATM    6  C17 UNL     1      12.384  66.208  25.526  1.00  0.00     0.044 A
HETATM    7  C29 UNL     1      13.462  65.388  25.783  1.00  0.00     0.066 A
ENDROOT
BRANCH   1   8
HETATM    8  O3  UNL     1      14.580  63.637  27.081  1.00  0.00    -0.351 OA
BRANCH   8   9
HETATM    9  C11 UNL     1      15.864  63.940  27.508  1.00  0.00     0.185 C
BRANCH   9  10
HETATM   10  C10 UNL     1      16.860  63.236  26.617  1.00  0.00     0.130 C
BRANCH  10  11
HETATM   11  C9  UNL     1      17.208  64.017  25.411  1.00  0.00     0.226 C
HETATM   12  N1  UNL     1      17.912  63.360  24.347  1.00  0.00    -0.318 N
HETATM   13  O2  UNL     1      16.921  65.223  25.253  1.00  0.00    -0.273 OA
BRANCH  12  14
HETATM   14  C5  UNL     1      18.379  62.013  24.513  1.00  0.00     0.037 A
HETATM   15  C4  UNL     1      17.899  61.012  23.706  1.00  0.00     0.030 A
HETATM   16  C3  UNL     1      18.377  59.707  23.910  1.00  0.00     0.009 A
HETATM   17  C2  UNL     1      19.293  59.427  24.880  1.00  0.00    -0.062 A
HETATM   18  C1  UNL     1      19.766  58.034  25.058  1.00  0.00     0.048 C
HETATM   19  C31 UNL     1      19.748  60.468  25.670  1.00  0.00     0.009 A
HETATM   20  C30 UNL     1      19.298  61.751  25.492  1.00  0.00     0.030 A
ENDBRANCH  12  14
BRANCH  12  21
HETATM   21  C6  UNL     1      18.136  63.981  23.079  1.00  0.00     0.141 C
BRANCH  21  22
HETATM   22  C7  UNL     1      16.893  64.249  22.305  1.00  0.00     0.119 C
BRANCH  22  23
HETATM   23  C8  UNL     1      17.290  64.421  20.864  1.00  0.00     0.232 C
HETATM   24  N2  UNL     1      16.279  64.275  19.888  1.00  0.00    -0.062 NA
HETATM   25  O1  UNL     1      18.468  64.678  20.581  1.00  0.00    -0.277 OA
ENDBRANCH  22  23
ENDBRANCH  21  22
ENDBRANCH  12  21
ENDBRANCH  10  11
ENDBRANCH   9  10
ENDBRANCH   8   9
ENDBRANCH   1   8
BRANCH   6  26
HETATM   26  N3  UNL     1      12.355  67.179  24.502  1.00  0.00    -0.308 N
HETATM   27  C18 UNL     1      12.079  67.007  23.141  1.00  0.00     0.321 C
HETATM   28  O4  UNL     1      11.761  65.897  22.676  1.00  0.00    -0.247 OA
HETATM   29  N4  UNL     1      12.140  68.092  22.203  1.00  0.00    -0.337 N
ATOM     30  H4  UNL     1      12.419  69.016  22.535  1.00  0.00     0.164 HD
ATOM     31  H3  UNL     1      12.564  68.135  24.793  1.00  0.00     0.170 HD
BRANCH  29  32
HETATM   32  C19 UNL     1      11.816  67.917  20.789  1.00  0.00     0.094 C
HETATM   33  C20 UNL     1      10.448  68.376  20.456  1.00  0.00     0.030 C
HETATM   34  C21 UNL     1      10.297  69.590  19.627  1.00  0.00    -0.016 C
HETATM   35  C22 UNL     1       9.403  70.657  20.217  1.00  0.00     0.010 C
HETATM   36  C23 UNL     1      11.605  70.235  19.200  1.00  0.00     0.009 C
HETATM   37  C24 UNL     1      12.424  69.089  18.642  1.00  0.00    -0.009 C
HETATM   38  C25 UNL     1      13.563  69.513  17.789  1.00  0.00     0.011 C
HETATM   39  C26 UNL     1      12.912  68.323  19.858  1.00  0.00    -0.024 C
HETATM   40  C27 UNL     1      13.924  69.157  20.585  1.00  0.00     0.017 C
HETATM   41  C28 UNL     1      13.658  67.109  19.272  1.00  0.00     0.017 C
ENDBRANCH  29  32
ENDBRANCH   6  26
TORSDOF 10
ENDMDL