MODEL 3
REMARK VINA RESULT: -8.471015508      6.249     10.321
REMARK  10 active torsions:
REMARK  status: ('A' for Active; 'I' for Inactive)
REMARK       I    between atoms: C1_2  and  N1_3
REMARK    1  A    between atoms: C1_2  and  S2_28
REMARK    2  A    between atoms: N1_3  and  C2_5
REMARK    3  A    between atoms: C5_8  and  N2_9
REMARK    4  A    between atoms: C6_10  and  S1_11
REMARK    5  A    between atoms: S1_11  and  C7_12
REMARK    6  A    between atoms: C7_12  and  C8_13
REMARK    7  A    between atoms: C8_13  and  C9_14
REMARK    8  A    between atoms: S2_28  and  C18_29
REMARK    9  A    between atoms: C20_31  and  C21_32
REMARK   10  A    between atoms: C21_32  and  C22_33
ROOT
HETATM    1  C2  UNL     1      16.031  65.258  22.253  1.00  0.00     0.038 A
HETATM    2  C3  UNL     1      16.515  64.851  21.006  1.00  0.00     0.032 A
HETATM    3  C4  UNL     1      16.536  65.800  20.016  1.00  0.00     0.036 A
HETATM    4  C5  UNL     1      16.100  67.066  20.258  1.00  0.00     0.085 A
HETATM    5  C16 UNL     1      15.629  67.486  21.456  1.00  0.00     0.145 A
HETATM    6  F1  UNL     1      15.210  68.723  21.803  1.00  0.00    -0.204 F
HETATM    7  C17 UNL     1      15.607  66.527  22.472  1.00  0.00     0.074 A
ENDROOT
BRANCH   1   8
HETATM    8  N1  UNL     1      15.971  64.367  23.354  1.00  0.00    -0.318 N
HETATM    9  C1  UNL     1      17.061  64.176  24.215  1.00  0.00     0.289 C
HETATM   10  O1  UNL     1      18.133  64.802  23.983  1.00  0.00    -0.260 OA
ATOM     11  H1  UNL     1      15.109  63.850  23.526  1.00  0.00     0.169 HD
BRANCH   9  12
HETATM   12  S2  UNL     1      16.880  63.029  25.592  1.00  0.00    -0.017 SA
BRANCH  12  13
HETATM   13  C18 UNL     1      15.345  63.234  26.441  1.00  0.00     0.106 C
HETATM   14  C19 UNL     1      14.178  62.733  26.213  1.00  0.00     0.047 C
HETATM   15  C20 UNL     1      13.112  63.118  27.134  1.00  0.00     0.004 C
HETATM   16  C27 UNL     1      13.373  64.535  27.596  1.00  0.00     0.193 C
HETATM   17  S3  UNL     1      15.164  64.240  27.897  1.00  0.00     0.186 S
HETATM   18  O4  UNL     1      15.894  65.499  27.852  1.00  0.00    -0.222 OA
HETATM   19  O5  UNL     1      15.371  63.368  29.060  1.00  0.00    -0.222 OA
BRANCH  15  20
HETATM   20  C21 UNL     1      12.217  62.294  27.623  1.00  0.00    -0.113 C
BRANCH  20  21
HETATM   21  C22 UNL     1      11.316  61.479  28.075  1.00  0.00    -0.009 C
HETATM   22  C23 UNL     1      11.811  61.732  29.653  1.00  0.00     0.074 C
HETATM   23  C24 UNL     1      11.026  60.989  30.510  1.00  0.00    -0.021 C
HETATM   24  C25 UNL     1       9.935  60.741  29.764  1.00  0.00    -0.003 C
HETATM   25  C26 UNL     1      10.360  60.612  28.595  1.00  0.00     0.015 C
ENDBRANCH  20  21
ENDBRANCH  15  20
ENDBRANCH  12  13
ENDBRANCH   9  12
ENDBRANCH   1   8
BRANCH   4  26
HETATM   26  N2  UNL     1      16.158  68.025  19.190  1.00  0.00    -0.231 N
HETATM   27  C6  UNL     1      15.330  68.308  18.194  1.00  0.00     0.176 A
HETATM   28  N3  UNL     1      15.902  69.319  17.515  1.00  0.00    -0.233 N
HETATM   29  O2  UNL     1      17.024  69.655  18.056  1.00  0.00    -0.178 OA
ATOM     30  H3  UNL     1      15.503  69.760  16.686  1.00  0.00     0.197 HD
HETATM   31  C15 UNL     1      17.216  68.887  19.087  1.00  0.00     0.396 A
HETATM   32  O3  UNL     1      18.196  68.933  19.849  1.00  0.00    -0.235 OA
BRANCH  27  33
HETATM   33  S1  UNL     1      13.778  67.575  17.794  1.00  0.00    -0.091 SA
BRANCH  33  34
HETATM   34  C7  UNL     1      12.353  68.527  18.264  1.00  0.00     0.087 C
BRANCH  34  35
HETATM   35  C8  UNL     1      12.616  68.963  19.716  1.00  0.00     0.049 C
BRANCH  35  36
HETATM   36  C9  UNL     1      11.674  68.189  20.538  1.00  0.00    -0.057 A
HETATM   37  C10 UNL     1      12.110  67.065  21.214  1.00  0.00     0.007 A
HETATM   38  C11 UNL     1      11.250  66.315  22.006  1.00  0.00     0.001 A
HETATM   39  C12 UNL     1       9.935  66.715  22.103  1.00  0.00     0.000 A
HETATM   40  C13 UNL     1       9.504  67.861  21.409  1.00  0.00     0.001 A
HETATM   41  C14 UNL     1      10.344  68.601  20.635  1.00  0.00     0.007 A
ENDBRANCH  35  36
ENDBRANCH  34  35
ENDBRANCH  33  34
ENDBRANCH  27  33
ENDBRANCH   4  26
TORSDOF 10
ENDMDL