MODEL 3
REMARK VINA RESULT: -6.879492851      2.688      7.618
REMARK  15 active torsions:
REMARK  status: ('A' for Active; 'I' for Inactive)
REMARK    1  A    between atoms: C2_2  and  C3_3
REMARK    2  A    between atoms: C3_3  and  C4_4
REMARK    3  A    between atoms: C4_4  and  O1_5
REMARK    4  A    between atoms: O1_5  and  C5_6
REMARK    5  A    between atoms: C10_11  and  N1_12
REMARK    6  A    between atoms: N1_12  and  C11_14
REMARK    7  A    between atoms: C11_14  and  O2_15
REMARK    8  A    between atoms: C11_14  and  C12_17
REMARK    9  A    between atoms: C13_18  and  N2_19
REMARK       I    between atoms: N2_19  and  C14_21
REMARK       I    between atoms: C14_21  and  N3_23
REMARK   10  A    between atoms: C20_30  and  C21_31
REMARK       I    between atoms: C21_31  and  N4_33
REMARK   11  A    between atoms: N4_33  and  C22_35
REMARK   12  A    between atoms: C22_35  and  C23_36
REMARK   13  A    between atoms: C23_36  and  C24_37
REMARK   14  A    between atoms: C24_37  and  C25_38
REMARK   15  A    between atoms: C27_40  and  C28_41
ROOT
HETATM    1  C12 UNL     1      15.997  64.127  24.561  1.00  0.00     0.024 C
HETATM    2  C13 UNL     1      16.378  62.976  24.999  1.00  0.00     0.025 C
HETATM    3  C16 UNL     1      16.513  62.609  26.444  1.00  0.00     0.067 C
HETATM    4  C17 UNL     1      15.990  63.561  27.461  1.00  0.00    -0.029 C
HETATM    5  C18 UNL     1      17.148  63.984  28.346  1.00  0.00     0.016 C
HETATM    6  C19 UNL     1      15.049  62.804  28.379  1.00  0.00     0.016 C
HETATM    7  C20 UNL     1      15.257  64.730  26.902  1.00  0.00     0.098 C
HETATM    8  C27 UNL     1      15.773  65.195  25.587  1.00  0.00     0.061 C
ENDROOT
BRANCH   1   9
HETATM    9  C11 UNL     1      15.767  64.570  23.219  1.00  0.00     0.149 C
BRANCH   9  10
HETATM   10  N1  UNL     1      15.350  65.704  22.549  1.00  0.00    -0.334 N
ATOM     11  H1  UNL     1      16.078  66.258  22.099  1.00  0.00     0.168 HD
BRANCH  10  12
HETATM   12  C10 UNL     1      13.989  66.196  22.413  1.00  0.00     0.067 A
HETATM   13  C5  UNL     1      13.584  66.658  21.148  1.00  0.00     0.095 A
HETATM   14  C6  UNL     1      12.313  67.092  20.962  1.00  0.00     0.039 A
HETATM   15  C7  UNL     1      11.410  67.084  21.993  1.00  0.00     0.003 A
HETATM   16  C8  UNL     1      11.753  66.643  23.242  1.00  0.00     0.002 A
HETATM   17  C9  UNL     1      13.080  66.197  23.413  1.00  0.00     0.032 A
BRANCH  13  18
HETATM   18  O1  UNL     1      14.470  66.665  20.139  1.00  0.00    -0.349 OA
BRANCH  18  19
HETATM   19  C4  UNL     1      14.774  67.455  19.082  1.00  0.00     0.179 C
BRANCH  19  20
HETATM   20  C3  UNL     1      14.097  67.218  17.778  1.00  0.00     0.053 C
BRANCH  20  21
HETATM   21  C2  UNL     1      13.292  68.452  17.445  1.00  0.00    -0.035 C
HETATM   22  C1  UNL     1      11.986  68.510  17.550  1.00  0.00     0.007 C
ENDBRANCH  20  21
ENDBRANCH  19  20
ENDBRANCH  18  19
ENDBRANCH  13  18
ENDBRANCH  10  12
ENDBRANCH   9  10
BRANCH   9  23
HETATM   23  O2  UNL     1      16.025  63.608  22.320  1.00  0.00    -0.346 OA
ATOM     24  H2  UNL     1      15.716  62.778  22.664  1.00  0.00     0.219 HD
ENDBRANCH   9  23
ENDBRANCH   1   9
BRANCH   2  25
HETATM   25  N2  UNL     1      16.642  61.923  24.107  1.00  0.00    -0.312 N
HETATM   26  C14 UNL     1      17.814  61.117  24.165  1.00  0.00     0.320 C
HETATM   27  O3  UNL     1      18.770  61.199  24.952  1.00  0.00    -0.247 OA
HETATM   28  N3  UNL     1      17.965  60.039  23.198  1.00  0.00    -0.347 N
HETATM   29  C15 UNL     1      19.121  59.217  23.232  1.00  0.00     0.151 C
ATOM     30  H3  UNL     1      17.241  59.876  22.498  1.00  0.00     0.163 HD
ATOM     31  H2  UNL     1      15.956  61.725  23.378  1.00  0.00     0.170 HD
ENDBRANCH   2  25
BRANCH   8  32
HETATM   32  C28 UNL     1      16.879  66.135  25.719  1.00  0.00    -0.014 C
HETATM   33  C29 UNL     1      18.157  66.092  25.623  1.00  0.00    -0.091 C
HETATM   34  C30 UNL     1      18.888  67.427  25.863  1.00  0.00     0.042 C
HETATM   35  C31 UNL     1      19.086  64.987  25.347  1.00  0.00     0.042 C
ENDBRANCH   8  32
BRANCH   7  36
HETATM   36  C21 UNL     1      13.805  64.465  26.785  1.00  0.00     0.223 C
HETATM   37  O4  UNL     1      13.413  63.830  25.779  1.00  0.00    -0.273 OA
HETATM   38  N4  UNL     1      12.829  64.878  27.736  1.00  0.00    -0.357 N
ATOM     39  H4  UNL     1      13.145  65.400  28.553  1.00  0.00     0.162 HD
BRANCH  38  40
HETATM   40  C22 UNL     1      11.436  64.605  27.613  1.00  0.00     0.149 C
BRANCH  40  41
HETATM   41  C23 UNL     1      10.887  63.447  28.308  1.00  0.00    -0.011 C
BRANCH  41  42
HETATM   42  C24 UNL     1      11.324  62.079  28.079  1.00  0.00    -0.029 C
BRANCH  42  43
HETATM   43  C25 UNL     1      10.625  60.860  28.460  1.00  0.00     0.022 C
HETATM   44  C26 UNL     1      10.566  60.499  29.887  1.00  0.00     0.009 C
ENDBRANCH  42  43
ENDBRANCH  41  42
ENDBRANCH  40  41
ENDBRANCH  38  40
ENDBRANCH   7  36
TORSDOF 15
ENDMDL