MODEL 3
REMARK VINA RESULT: -9.336067072      2.852      4.267
REMARK  7 active torsions:
REMARK  status: ('A' for Active; 'I' for Inactive)
REMARK    1  A    between atoms: O1_2  and  C2_3
REMARK    2  A    between atoms: C2_3  and  C12_18
REMARK    3  A    between atoms: C3_4  and  C4_5
REMARK       I    between atoms: C4_5  and  N1_7
REMARK    4  A    between atoms: C15_21  and  C16_22
REMARK    5  A    between atoms: C16_22  and  N2_23
REMARK       I    between atoms: N2_23  and  C18_25
REMARK    6  A    between atoms: C18_25  and  C19_27
REMARK    7  A    between atoms: C21_30  and  C22_31
ROOT
HETATM    1  C12 UNL     1      15.464  66.207  21.838  1.00  0.00     0.109 A
HETATM    2  C13 UNL     1      15.920  67.247  21.065  1.00  0.00     0.042 A
HETATM    3  C14 UNL     1      15.043  68.307  21.212  1.00  0.00     0.037 A
HETATM    4  C15 UNL     1      14.078  67.850  22.085  1.00  0.00     0.071 A
HETATM    5  O5  UNL     1      14.351  66.629  22.429  1.00  0.00    -0.311 OA
ENDROOT
BRANCH   1   6
HETATM    6  C2  UNL     1      16.050  64.902  22.001  1.00  0.00     0.107 C
HETATM    7  C3  UNL     1      16.132  64.384  23.230  1.00  0.00     0.114 C
BRANCH   6   8
HETATM    8  O1  UNL     1      16.534  64.149  20.947  1.00  0.00    -0.353 OA
HETATM    9  C1  UNL     1      17.759  64.360  20.304  1.00  0.00     0.210 C
ENDBRANCH   6   8
BRANCH   7  10
HETATM   10  C4  UNL     1      16.710  63.076  23.458  1.00  0.00     0.250 C
HETATM   11  O2  UNL     1      16.105  62.084  22.986  1.00  0.00    -0.268 OA
HETATM   12  N1  UNL     1      17.932  62.972  24.203  1.00  0.00    -0.312 N
HETATM   13  C5  UNL     1      18.481  64.180  24.706  1.00  0.00     0.143 C
HETATM   14  C11 UNL     1      18.461  61.658  24.347  1.00  0.00     0.061 A
HETATM   15  C6  UNL     1      19.652  64.131  25.598  1.00  0.00     0.100 C
HETATM   16  S1  UNL     1      19.619  62.616  26.658  1.00  0.00    -0.123 SA
HETATM   17  C7  UNL     1      19.297  61.318  25.491  1.00  0.00     0.070 A
HETATM   18  C8  UNL     1      19.652  60.085  25.403  1.00  0.00     0.185 A
HETATM   19  F1  UNL     1      20.436  59.402  26.264  1.00  0.00    -0.200 F
HETATM   20  C9  UNL     1      19.082  59.491  24.187  1.00  0.00     0.213 A
HETATM   21  O3  UNL     1      19.187  58.325  23.739  1.00  0.00    -0.285 OA
HETATM   22  C10 UNL     1      18.323  60.596  23.564  1.00  0.00     0.089 A
ENDBRANCH   7  10
ENDBRANCH   1   6
BRANCH   4  23
HETATM   23  C16 UNL     1      12.924  68.643  22.543  1.00  0.00     0.190 C
BRANCH  23  24
HETATM   24  N2  UNL     1      11.709  67.970  22.141  1.00  0.00    -0.345 N
HETATM   25  C17 UNL     1      11.348  68.071  20.707  1.00  0.00     0.153 C
HETATM   26  C18 UNL     1      10.838  67.241  22.950  1.00  0.00     0.270 C
HETATM   27  O4  UNL     1       9.834  66.701  22.387  1.00  0.00    -0.266 OA
BRANCH  26  28
HETATM   28  C19 UNL     1      11.046  67.089  24.392  1.00  0.00     0.108 A
HETATM   29  C20 UNL     1      10.425  67.973  25.276  1.00  0.00     0.086 A
HETATM   30  S2  UNL     1      10.965  67.393  26.784  1.00  0.00    -0.086 SA
HETATM   31  C21 UNL     1      11.924  66.096  26.239  1.00  0.00     0.055 A
HETATM   32  N3  UNL     1      11.779  66.177  24.934  1.00  0.00    -0.349 N
ATOM     33  H3  UNL     1      12.258  65.503  24.338  1.00  0.00     0.166 HD
BRANCH  31  34
HETATM   34  C22 UNL     1      12.738  65.101  27.037  1.00  0.00     0.043 C
HETATM   35  C23 UNL     1      11.761  64.207  27.733  1.00  0.00     0.011 C
HETATM   36  C24 UNL     1      12.071  62.737  27.549  1.00  0.00     0.001 C
HETATM   37  C25 UNL     1      13.548  62.555  27.763  1.00  0.00     0.000 C
HETATM   38  C26 UNL     1      14.358  63.228  26.675  1.00  0.00     0.001 C
HETATM   39  C27 UNL     1      13.603  64.372  26.044  1.00  0.00     0.011 C
ENDBRANCH  31  34
ENDBRANCH  26  28
ENDBRANCH  23  24
ENDBRANCH   4  23
TORSDOF 7
ENDMDL