MODEL 4
REMARK VINA RESULT: -9.312847338      1.723      2.214
REMARK  8 active torsions:
REMARK  status: ('A' for Active; 'I' for Inactive)
REMARK    1  A    between atoms: C7_7  and  N1_8
REMARK       I    between atoms: N1_8  and  C8_10
REMARK    2  A    between atoms: C8_10  and  C9_12
REMARK    3  A    between atoms: C9_12  and  O2_13
REMARK    4  A    between atoms: O2_13  and  C10_14
REMARK    5  A    between atoms: C10_14  and  C11_16
REMARK    6  A    between atoms: C11_16  and  S1_17
REMARK    7  A    between atoms: S1_17  and  C12_18
REMARK    8  A    between atoms: C13_21  and  C14_22
ROOT
HETATM    1  N1  UNL     1      12.885  63.319  27.850  1.00  0.00    -0.325 N
ATOM      2  H1  UNL     1      12.575  64.138  27.327  1.00  0.00     0.169 HD
HETATM    3  C8  UNL     1      14.247  63.081  27.859  1.00  0.00     0.246 C
HETATM    4  O1  UNL     1      14.779  62.121  28.433  1.00  0.00    -0.271 OA
ENDROOT
BRANCH   1   5
HETATM    5  C7  UNL     1      11.874  62.562  28.481  1.00  0.00     0.046 A
HETATM    6  C6  UNL     1      11.429  61.410  27.872  1.00  0.00     0.031 A
HETATM    7  C5  UNL     1      10.532  60.585  28.552  1.00  0.00     0.011 A
HETATM    8  C4  UNL     1      10.101  60.932  29.823  1.00  0.00    -0.042 A
HETATM    9  C3  UNL     1       9.300  59.882  30.497  1.00  0.00     0.078 C
HETATM   10  C25 UNL     1      10.513  62.079  30.467  1.00  0.00    -0.000 A
HETATM   11  C2  UNL     1       8.484  60.356  31.625  1.00  0.00    -0.050 C
HETATM   12  C1  UNL     1       7.347  59.773  31.918  1.00  0.00     0.020 C
HETATM   13  C26 UNL     1       8.954  61.532  32.373  1.00  0.00     0.013 C
HETATM   14  C24 UNL     1       9.964  62.365  31.714  1.00  0.00     0.057 C
HETATM   15  C27 UNL     1       8.600  61.750  33.607  1.00  0.00     0.201 C
HETATM   16  C23 UNL     1      10.188  63.535  32.461  1.00  0.00     0.262 C
HETATM   17  N3  UNL     1      11.346  64.256  32.540  1.00  0.00    -0.285 N
HETATM   18  O5  UNL     1       9.236  63.986  33.130  1.00  0.00    -0.267 OA
HETATM   19  C21 UNL     1      12.143  64.479  31.471  1.00  0.00     0.250 C
HETATM   20  C22 UNL     1      11.694  64.808  33.829  1.00  0.00     0.163 C
HETATM   21  C20 UNL     1      11.959  64.094  30.137  1.00  0.00     0.089 C
HETATM   22  O4  UNL     1      13.181  65.116  31.722  1.00  0.00    -0.268 OA
HETATM   23  C19 UNL     1      11.419  62.881  29.746  1.00  0.00     0.008 A
HETATM   24  F1  UNL     1       7.762  60.872  34.245  1.00  0.00    -0.218 F
ENDBRANCH   1   5
BRANCH   3  25
HETATM   25  C9  UNL     1      15.180  64.020  27.143  1.00  0.00     0.281 C
BRANCH  25  26
HETATM   26  O2  UNL     1      15.879  64.812  28.091  1.00  0.00    -0.311 OA
BRANCH  26  27
HETATM   27  C10 UNL     1      17.244  64.986  27.920  1.00  0.00     0.269 C
HETATM   28  O3  UNL     1      18.029  64.037  28.260  1.00  0.00    -0.264 OA
BRANCH  27  29
HETATM   29  C11 UNL     1      17.829  66.218  27.360  1.00  0.00     0.192 C
BRANCH  29  30
HETATM   30  S1  UNL     1      19.044  65.909  26.057  1.00  0.00    -0.095 SA
BRANCH  30  31
HETATM   31  C12 UNL     1      18.544  64.458  25.100  1.00  0.00     0.112 A
HETATM   32  N2  UNL     1      18.909  63.203  25.195  1.00  0.00    -0.344 N
HETATM   33  C13 UNL     1      18.415  62.315  24.384  1.00  0.00     0.057 A
ATOM     34  H2  UNL     1      19.583  62.923  25.907  1.00  0.00     0.167 HD
HETATM   35  C18 UNL     1      17.513  62.746  23.446  1.00  0.00     0.083 A
HETATM   36  S3  UNL     1      17.423  64.414  23.782  1.00  0.00    -0.075 SA
BRANCH  33  37
HETATM   37  C14 UNL     1      18.808  60.880  24.473  1.00  0.00     0.032 A
HETATM   38  C15 UNL     1      18.540  59.885  23.579  1.00  0.00     0.021 A
HETATM   39  C16 UNL     1      18.996  58.655  23.868  1.00  0.00     0.008 A
HETATM   40  C17 UNL     1      19.691  58.502  25.037  1.00  0.00     0.050 A
HETATM   41  S2  UNL     1      19.687  60.076  25.694  1.00  0.00    -0.100 SA
ENDBRANCH  33  37
ENDBRANCH  30  31
ENDBRANCH  29  30
ENDBRANCH  27  29
ENDBRANCH  26  27
ENDBRANCH  25  26
ENDBRANCH   3  25
TORSDOF 8
ENDMDL