MODEL 3
REMARK VINA RESULT: -9.578779046      5.369      8.856
REMARK  11 active torsions:
REMARK  status: ('A' for Active; 'I' for Inactive)
REMARK    1  A    between atoms: C2_2  and  C3_4
REMARK    2  A    between atoms: C8_10  and  C9_11
REMARK    3  A    between atoms: C9_11  and  O3_12
REMARK    4  A    between atoms: C9_11  and  N1_14
REMARK    5  A    between atoms: N1_14  and  C10_15
REMARK    6  A    between atoms: N1_14  and  C19_26
REMARK    7  A    between atoms: C10_15  and  S1_16
REMARK    8  A    between atoms: S1_16  and  C11_17
REMARK    9  A    between atoms: C20_31  and  C21_32
REMARK   10  A    between atoms: C21_32  and  C22_33
REMARK   11  A    between atoms: C22_33  and  C23_34
ROOT
HETATM    1  N1  UNL     1      17.347  63.888  26.804  1.00  0.00    -0.296 N
ENDROOT
BRANCH   1   2
HETATM    2  C9  UNL     1      18.254  64.089  27.843  1.00  0.00     0.159 C
BRANCH   2   3
HETATM    3  C8  UNL     1      18.655  65.249  28.581  1.00  0.00     0.061 A
HETATM    4  C3  UNL     1      18.137  65.553  29.854  1.00  0.00     0.056 A
HETATM    5  C4  UNL     1      18.822  66.654  30.287  1.00  0.00     0.064 A
HETATM    6  C5  UNL     1      18.633  67.367  31.598  1.00  0.00     0.077 C
HETATM    7  O2  UNL     1      19.678  66.996  29.380  1.00  0.00    -0.318 OA
HETATM    8  C6  UNL     1      19.626  66.184  28.325  1.00  0.00     0.065 A
HETATM    9  C7  UNL     1      20.526  66.350  27.129  1.00  0.00     0.077 C
BRANCH   4  10
HETATM   10  C2  UNL     1      17.090  64.887  30.611  1.00  0.00     0.159 C
HETATM   11  C1  UNL     1      17.466  63.968  31.729  1.00  0.00     0.097 C
HETATM   12  O1  UNL     1      15.889  65.052  30.365  1.00  0.00    -0.293 OA
ENDBRANCH   4  10
ENDBRANCH   2   3
BRANCH   2  13
HETATM   13  O3  UNL     1      18.848  62.977  28.196  1.00  0.00    -0.345 OA
ATOM     14  H3  UNL     1      18.798  62.275  27.557  1.00  0.00     0.219 HD
ENDBRANCH   2  13
ENDBRANCH   1   2
BRANCH   1  15
HETATM   15  C10 UNL     1      17.636  64.173  25.417  1.00  0.00     0.212 C
BRANCH  15  16
HETATM   16  S1  UNL     1      19.317  63.531  24.998  1.00  0.00    -0.110 SA
BRANCH  16  17
HETATM   17  C11 UNL     1      19.211  61.765  24.786  1.00  0.00     0.002 A
HETATM   18  C12 UNL     1      18.641  61.200  23.669  1.00  0.00     0.021 A
HETATM   19  C13 UNL     1      18.549  59.836  23.487  1.00  0.00     0.038 A
HETATM   20  C14 UNL     1      19.041  58.986  24.449  1.00  0.00     0.075 A
HETATM   21  C15 UNL     1      19.617  59.521  25.575  1.00  0.00    -0.021 A
HETATM   22  O4  UNL     1      19.093  57.590  24.549  1.00  0.00    -0.350 OA
HETATM   23  C16 UNL     1      19.700  60.906  25.742  1.00  0.00     0.028 A
HETATM   24  C17 UNL     1      20.057  58.398  26.435  1.00  0.00     0.068 C
HETATM   25  C18 UNL     1      20.113  57.243  25.470  1.00  0.00     0.180 C
ENDBRANCH  16  17
ENDBRANCH  15  16
ENDBRANCH   1  15
BRANCH   1  26
HETATM   26  C19 UNL     1      15.978  63.568  27.178  1.00  0.00     0.170 A
HETATM   27  N2  UNL     1      15.614  62.852  28.228  1.00  0.00    -0.279 N
HETATM   28  N3  UNL     1      14.385  62.641  28.447  1.00  0.00    -0.296 N
ATOM     29  H2  UNL     1      16.320  62.472  28.859  1.00  0.00     0.189 HD
HETATM   30  C20 UNL     1      13.472  63.140  27.622  1.00  0.00     0.070 A
ATOM     31  H3  UNL     1      14.097  62.088  29.254  1.00  0.00     0.187 HD
HETATM   32  S3  UNL     1      14.475  63.948  26.484  1.00  0.00    -0.038 SA
BRANCH  30  33
HETATM   33  C21 UNL     1      11.978  63.024  27.676  1.00  0.00     0.071 C
BRANCH  33  34
HETATM   34  C22 UNL     1      11.637  61.592  27.892  1.00  0.00     0.045 C
BRANCH  34  35
HETATM   35  C23 UNL     1      10.783  61.491  29.133  1.00  0.00    -0.050 A
HETATM   36  C24 UNL     1      10.226  60.260  29.387  1.00  0.00     0.057 A
HETATM   37  C25 UNL     1       9.420  59.957  30.457  1.00  0.00     0.161 A
HETATM   38  F1  UNL     1       8.896  58.716  30.657  1.00  0.00    -0.198 F
HETATM   39  S2  UNL     1       9.114  61.253  31.535  1.00  0.00    -0.018 SA
HETATM   40  C26 UNL     1       9.890  62.702  31.056  1.00  0.00     0.216 A
HETATM   41  O5  UNL     1       9.774  63.759  31.734  1.00  0.00    -0.280 OA
HETATM   42  C27 UNL     1      10.620  62.611  29.910  1.00  0.00     0.070 A
ENDBRANCH  34  35
ENDBRANCH  33  34
ENDBRANCH  30  33
ENDBRANCH   1  26
TORSDOF 11
ENDMDL