MODEL 5
REMARK VINA RESULT: -8.762350629      2.445      6.203
REMARK  11 active torsions:
REMARK  status: ('A' for Active; 'I' for Inactive)
REMARK    1  A    between atoms: C3_3  and  C4_4
REMARK    2  A    between atoms: C4_4  and  O1_5
REMARK    3  A    between atoms: C4_4  and  N1_7
REMARK    4  A    between atoms: N1_7  and  C5_8
REMARK    5  A    between atoms: N1_7  and  C17_24
REMARK    6  A    between atoms: C5_8  and  S1_9
REMARK    7  A    between atoms: S1_9  and  C6_10
REMARK    8  A    between atoms: C6_10  and  C7_11
REMARK    9  A    between atoms: C7_11  and  O3_13
REMARK   10  A    between atoms: O3_13  and  C8_14
REMARK   11  A    between atoms: C8_14  and  C9_15
ROOT
HETATM    1  N1  UNL     1      18.020  62.577  24.624  1.00  0.00    -0.315 N
ENDROOT
BRANCH   1   2
HETATM    2  C4  UNL     1      16.742  63.095  24.448  1.00  0.00     0.161 C
BRANCH   2   3
HETATM    3  C3  UNL     1      16.111  64.097  23.617  1.00  0.00     0.065 A
HETATM    4  C2  UNL     1      15.037  64.903  23.612  1.00  0.00    -0.022 A
HETATM    5  C1  UNL     1      14.244  65.097  24.883  1.00  0.00     0.051 C
HETATM    6  C27 UNL     1      14.746  65.618  22.490  1.00  0.00     0.073 A
HETATM    7  C23 UNL     1      15.579  65.468  21.440  1.00  0.00     0.093 A
HETATM    8  C26 UNL     1      13.685  66.491  22.246  1.00  0.00     0.263 A
HETATM    9  S2  UNL     1      16.740  64.365  21.980  1.00  0.00    -0.067 SA
HETATM   10  N2  UNL     1      15.455  66.085  20.234  1.00  0.00    -0.326 N
HETATM   11  C24 UNL     1      14.425  66.925  20.024  1.00  0.00     0.181 A
ATOM     12  H2  UNL     1      16.137  65.912  19.496  1.00  0.00     0.169 HD
HETATM   13  S3  UNL     1      14.226  67.693  18.600  1.00  0.00    -0.040 SA
HETATM   14  N3  UNL     1      13.587  67.091  21.034  1.00  0.00    -0.294 N
HETATM   15  C25 UNL     1      12.467  68.011  20.782  1.00  0.00     0.162 C
HETATM   16  O5  UNL     1      12.785  66.788  23.053  1.00  0.00    -0.267 OA
ENDBRANCH   2   3
BRANCH   2  17
HETATM   17  O1  UNL     1      15.884  62.496  25.287  1.00  0.00    -0.345 OA
ATOM     18  H1  UNL     1      15.464  63.105  25.884  1.00  0.00     0.219 HD
ENDBRANCH   2  17
ENDBRANCH   1   2
BRANCH   1  19
HETATM   19  C5  UNL     1      19.063  63.621  24.894  1.00  0.00     0.205 C
BRANCH  19  20
HETATM   20  S1  UNL     1      18.560  64.894  26.002  1.00  0.00    -0.139 SA
BRANCH  20  21
HETATM   21  C6  UNL     1      18.135  64.416  27.656  1.00  0.00     0.186 C
BRANCH  21  22
HETATM   22  C7  UNL     1      16.700  64.714  27.917  1.00  0.00     0.268 C
HETATM   23  O2  UNL     1      16.337  65.903  27.995  1.00  0.00    -0.264 OA
BRANCH  22  24
HETATM   24  O3  UNL     1      15.795  63.703  28.068  1.00  0.00    -0.316 OA
BRANCH  24  25
HETATM   25  C8  UNL     1      15.047  63.586  29.245  1.00  0.00     0.217 C
BRANCH  25  26
HETATM   26  C9  UNL     1      13.794  62.864  28.981  1.00  0.00    -0.031 A
HETATM   27  C10 UNL     1      13.296  62.779  27.711  1.00  0.00     0.010 A
HETATM   28  C11 UNL     1      12.117  62.095  27.492  1.00  0.00     0.015 A
HETATM   29  C12 UNL     1      11.447  61.503  28.537  1.00  0.00    -0.001 A
HETATM   30  C13 UNL     1      10.286  60.779  28.617  1.00  0.00     0.039 A
HETATM   31  C15 UNL     1      11.957  61.594  29.808  1.00  0.00     0.085 A
HETATM   32  C14 UNL     1      10.138  60.459  29.937  1.00  0.00     0.143 A
HETATM   33  O4  UNL     1      11.136  60.955  30.595  1.00  0.00    -0.322 OA
HETATM   34  C16 UNL     1      13.131  62.272  30.052  1.00  0.00     0.047 A
ENDBRANCH  25  26
ENDBRANCH  24  25
ENDBRANCH  22  24
ENDBRANCH  21  22
ENDBRANCH  20  21
ENDBRANCH  19  20
ENDBRANCH   1  19
BRANCH   1  35
HETATM   35  C17 UNL     1      18.535  61.280  24.652  1.00  0.00     0.076 A
HETATM   36  C18 UNL     1      18.362  60.408  23.600  1.00  0.00     0.033 A
HETATM   37  C19 UNL     1      18.880  59.134  23.592  1.00  0.00     0.002 A
HETATM   38  C20 UNL     1      19.608  58.671  24.661  1.00  0.00     0.003 A
HETATM   39  C21 UNL     1      19.796  59.513  25.721  1.00  0.00     0.044 A
HETATM   40  C22 UNL     1      19.266  60.809  25.722  1.00  0.00     0.143 A
HETATM   41  F1  UNL     1      19.515  61.525  26.847  1.00  0.00    -0.204 F
ENDBRANCH   1  35
TORSDOF 11
ENDMDL