MODEL 2
REMARK VINA RESULT: -7.041276893      1.620      2.721
REMARK  11 active torsions:
REMARK  status: ('A' for Active; 'I' for Inactive)
REMARK    1  A    between atoms: O1_2  and  C2_3
REMARK    2  A    between atoms: C2_3  and  C3_5
REMARK    3  A    between atoms: C4_6  and  N1_7
REMARK       I    between atoms: N1_7  and  C5_9
REMARK    4  A    between atoms: C5_9  and  C6_11
REMARK    5  A    between atoms: C12_20  and  C13_21
REMARK    6  A    between atoms: C13_21  and  O4_22
REMARK    7  A    between atoms: C13_21  and  N2_24
REMARK    8  A    between atoms: N2_24  and  C14_25
REMARK    9  A    between atoms: N2_24  and  C18_31
REMARK   10  A    between atoms: C14_25  and  C15_26
REMARK       I    between atoms: C15_26  and  N3_28
REMARK   11  A    between atoms: C21_34  and  C22_35
ROOT
HETATM    1  C3  UNL     1      15.933  65.192  21.503  1.00  0.00     0.086 A
HETATM    2  C4  UNL     1      15.750  64.397  22.594  1.00  0.00     0.095 A
HETATM    3  S3  UNL     1      14.670  65.287  23.551  1.00  0.00    -0.066 SA
HETATM    4  C12 UNL     1      14.462  66.706  22.523  1.00  0.00     0.070 A
HETATM    5  C21 UNL     1      15.265  66.387  21.475  1.00  0.00     0.015 A
ENDROOT
BRANCH   4   6
HETATM    6  C13 UNL     1      13.504  67.744  22.843  1.00  0.00     0.157 C
BRANCH   6   7
HETATM    7  O4  UNL     1      13.948  68.413  23.953  1.00  0.00    -0.345 OA
ATOM      8  H4  UNL     1      14.766  68.844  23.734  1.00  0.00     0.219 HD
ENDBRANCH   6   7
BRANCH   6   9
HETATM    9  N2  UNL     1      12.316  68.283  22.423  1.00  0.00    -0.347 N
BRANCH   9  10
HETATM   10  C14 UNL     1      12.447  69.497  21.525  1.00  0.00     0.228 C
BRANCH  10  11
HETATM   11  C15 UNL     1      11.819  70.646  22.198  1.00  0.00     0.236 C
HETATM   12  O5  UNL     1      12.277  71.074  23.276  1.00  0.00    -0.272 OA
HETATM   13  N3  UNL     1      10.692  71.249  21.596  1.00  0.00    -0.359 N
HETATM   14  C16 UNL     1      10.148  70.757  20.332  1.00  0.00     0.152 C
HETATM   15  C17 UNL     1      10.072  72.375  22.262  1.00  0.00     0.152 C
ENDBRANCH  10  11
ENDBRANCH   9  10
BRANCH   9  16
HETATM   16  C18 UNL     1      10.973  67.830  22.515  1.00  0.00     0.087 A
HETATM   17  C19 UNL     1      10.490  66.805  23.478  1.00  0.00     0.027 A
HETATM   18  C20 UNL     1      10.548  66.453  22.037  1.00  0.00     0.027 A
ENDBRANCH   9  16
ENDBRANCH   6   9
ENDBRANCH   4   6
BRANCH   5  19
HETATM   19  C22 UNL     1      15.403  67.276  20.269  1.00  0.00    -0.023 A
HETATM   20  C23 UNL     1      16.352  68.294  20.229  1.00  0.00     0.015 A
HETATM   21  C24 UNL     1      16.481  69.108  19.123  1.00  0.00     0.043 A
HETATM   22  C25 UNL     1      15.652  68.914  18.019  1.00  0.00     0.116 A
HETATM   23  F1  UNL     1      15.758  69.700  16.915  1.00  0.00    -0.206 F
HETATM   24  C26 UNL     1      14.706  67.907  18.041  1.00  0.00     0.043 A
HETATM   25  C27 UNL     1      14.606  67.116  19.163  1.00  0.00     0.015 A
ENDBRANCH   5  19
BRANCH   2  26
HETATM   26  N1  UNL     1      16.316  63.104  22.947  1.00  0.00    -0.316 N
HETATM   27  C5  UNL     1      17.564  63.075  23.616  1.00  0.00     0.263 C
HETATM   28  O3  UNL     1      18.144  64.136  23.890  1.00  0.00    -0.267 OA
ATOM     29  H1  UNL     1      15.826  62.238  22.718  1.00  0.00     0.169 HD
BRANCH  27  30
HETATM   30  C6  UNL     1      18.196  61.808  23.999  1.00  0.00     0.073 A
HETATM   31  C7  UNL     1      18.997  61.551  25.072  1.00  0.00     0.033 A
HETATM   32  C8  UNL     1      19.470  60.257  25.213  1.00  0.00    -0.034 A
HETATM   33  C9  UNL     1      19.103  59.380  24.295  1.00  0.00    -0.000 A
HETATM   34  C11 UNL     1      20.389  59.683  26.302  1.00  0.00     0.114 C
HETATM   35  S1  UNL     1      18.110  60.297  23.222  1.00  0.00    -0.088 SA
HETATM   36  C10 UNL     1      19.582  57.979  24.407  1.00  0.00     0.120 C
HETATM   37  S2  UNL     1      19.995  57.920  26.196  1.00  0.00    -0.159 SA
ENDBRANCH  27  30
ENDBRANCH   2  26
BRANCH   1  38
HETATM   38  C2  UNL     1      16.792  64.695  20.376  1.00  0.00     0.296 C
HETATM   39  O2  UNL     1      16.367  63.972  19.454  1.00  0.00    -0.259 OA
BRANCH  38  40
HETATM   40  O1  UNL     1      18.122  65.018  20.296  1.00  0.00    -0.322 OA
HETATM   41  C1  UNL     1      18.653  65.748  19.210  1.00  0.00     0.213 C
ENDBRANCH  38  40
ENDBRANCH   1  38
TORSDOF 11
ENDMDL