MODEL 1
REMARK VINA RESULT: -8.726323565      0.000      0.000
REMARK  10 active torsions:
REMARK  status: ('A' for Active; 'I' for Inactive)
REMARK    1  A    between atoms: C2_2  and  C3_3
REMARK    2  A    between atoms: C3_3  and  S1_4
REMARK    3  A    between atoms: S1_4  and  C4_5
REMARK    4  A    between atoms: C4_5  and  C5_7
REMARK    5  A    between atoms: C5_7  and  C6_8
REMARK    6  A    between atoms: C5_7  and  S2_13
REMARK    7  A    between atoms: C6_8  and  C7_9
REMARK    8  A    between atoms: C7_9  and  O3_11
REMARK    9  A    between atoms: S2_13  and  C9_14
REMARK   10  A    between atoms: N2_26  and  C18_27
ROOT
HETATM    1  C9  UNL     1      15.667  63.760  23.903  1.00  0.00     0.148 A
HETATM    2  N1  UNL     1      14.421  64.202  24.145  1.00  0.00    -0.330 N
ATOM      3  H1  UNL     1      13.895  63.790  24.916  1.00  0.00     0.168 HD
HETATM    4  C10 UNL     1      13.833  65.185  23.396  1.00  0.00     0.093 A
HETATM    5  S3  UNL     1      12.301  65.931  23.445  1.00  0.00    -0.070 SA
HETATM    6  C11 UNL     1      12.508  67.001  22.128  1.00  0.00     0.036 A
HETATM    7  C12 UNL     1      11.660  67.952  21.569  1.00  0.00     0.009 A
HETATM    8  C13 UNL     1      10.417  68.035  22.093  1.00  0.00     0.015 A
HETATM    9  C14 UNL     1       9.512  68.934  21.519  1.00  0.00     0.001 A
HETATM   10  C15 UNL     1       9.899  69.704  20.450  1.00  0.00     0.002 A
HETATM   11  C16 UNL     1      11.189  69.600  19.927  1.00  0.00     0.031 A
HETATM   12  C17 UNL     1      12.094  68.727  20.477  1.00  0.00     0.050 A
HETATM   13  N2  UNL     1      13.336  68.496  20.043  1.00  0.00    -0.303 N
HETATM   14  C24 UNL     1      14.161  67.537  20.607  1.00  0.00     0.261 A
HETATM   15  O4  UNL     1      15.264  67.454  20.052  1.00  0.00    -0.267 OA
HETATM   16  C25 UNL     1      13.771  66.750  21.680  1.00  0.00     0.069 A
HETATM   17  C26 UNL     1      14.479  65.782  22.352  1.00  0.00     0.083 A
HETATM   18  C27 UNL     1      15.784  65.313  22.106  1.00  0.00     0.261 A
HETATM   19  O5  UNL     1      16.543  65.715  21.212  1.00  0.00    -0.267 OA
HETATM   20  N3  UNL     1      16.301  64.338  22.886  1.00  0.00    -0.303 N
ATOM     21  H3  UNL     1      17.249  64.023  22.680  1.00  0.00     0.171 HD
ENDROOT
BRANCH   1  22
HETATM   22  S2  UNL     1      16.407  62.466  24.886  1.00  0.00    -0.080 SA
BRANCH  22  23
HETATM   23  C5  UNL     1      18.107  62.192  24.403  1.00  0.00     0.145 C
BRANCH  23  24
HETATM   24  C4  UNL     1      18.943  63.342  24.826  1.00  0.00     0.201 C
HETATM   25  O1  UNL     1      18.876  64.369  24.149  1.00  0.00    -0.284 OA
BRANCH  24  26
HETATM   26  S1  UNL     1      20.010  63.232  26.275  1.00  0.00    -0.088 SA
BRANCH  26  27
HETATM   27  C3  UNL     1      20.639  64.892  26.618  1.00  0.00     0.108 C
BRANCH  27  28
HETATM   28  C2  UNL     1      22.015  65.085  26.112  1.00  0.00    -0.026 C
HETATM   29  C1  UNL     1      22.669  66.240  26.228  1.00  0.00     0.007 C
ENDBRANCH  27  28
ENDBRANCH  26  27
ENDBRANCH  24  26
ENDBRANCH  23  24
BRANCH  23  30
HETATM   30  C6  UNL     1      18.660  60.875  24.822  1.00  0.00     0.135 C
BRANCH  30  31
HETATM   31  C7  UNL     1      18.816  59.883  23.754  1.00  0.00     0.259 C
HETATM   32  O2  UNL     1      18.217  59.943  22.657  1.00  0.00    -0.265 OA
BRANCH  31  33
HETATM   33  O3  UNL     1      19.687  58.799  23.961  1.00  0.00    -0.326 OA
HETATM   34  C8  UNL     1      19.698  58.228  25.254  1.00  0.00     0.213 C
ENDBRANCH  31  33
ENDBRANCH  30  31
ENDBRANCH  23  30
ENDBRANCH  22  23
ENDBRANCH   1  22
BRANCH  13  35
HETATM   35  C18 UNL     1      13.941  69.368  19.048  1.00  0.00     0.037 C
HETATM   36  C19 UNL     1      13.422  70.795  19.211  1.00  0.00     0.039 C
HETATM   37  C20 UNL     1      13.251  68.884  17.726  1.00  0.00     0.031 C
HETATM   38  C21 UNL     1      14.373  68.677  16.687  1.00  0.00     0.002 C
HETATM   39  C22 UNL     1      15.310  69.743  17.103  1.00  0.00     0.002 C
HETATM   40  C23 UNL     1      15.318  69.287  18.624  1.00  0.00     0.031 C
ENDBRANCH  13  35
TORSDOF 10
ENDMDL