MODEL 5
REMARK VINA RESULT: -9.423989917      0.903      1.359
REMARK  14 active torsions:
REMARK  status: ('A' for Active; 'I' for Inactive)
REMARK       I    between atoms: C1_4  and  N3_6
REMARK       I    between atoms: N3_6  and  C2_8
REMARK    1  A    between atoms: C2_8  and  C3_10
REMARK    2  A    between atoms: C3_10  and  C4_11
REMARK    3  A    between atoms: C7_14  and  C8_15
REMARK    4  A    between atoms: C8_15  and  C9_16
REMARK    5  A    between atoms: C9_16  and  C10_17
REMARK    6  A    between atoms: N4_20  and  C13_21
REMARK    7  A    between atoms: C13_21  and  C14_22
REMARK    8  A    between atoms: C17_25  and  C18_26
REMARK    9  A    between atoms: C19_27  and  N5_28
REMARK   10  A    between atoms: N5_28  and  C20_29
REMARK   11  A    between atoms: C20_29  and  C21_30
REMARK   12  A    between atoms: C21_30  and  S1_31
REMARK   13  A    between atoms: N6_41  and  C27_42
REMARK   14  A    between atoms: C27_42  and  C28_43
ROOT
HETATM    1  C14 UNL     1      10.815  67.195  25.487  1.00  0.00    -0.040 A
HETATM    2  C15 UNL     1      10.990  65.832  25.650  1.00  0.00     0.009 A
HETATM    3  C16 UNL     1      12.073  65.319  26.301  1.00  0.00     0.010 A
HETATM    4  C17 UNL     1      13.061  66.094  26.840  1.00  0.00    -0.032 A
HETATM    5  C34 UNL     1      12.854  67.472  26.659  1.00  0.00     0.010 A
HETATM    6  C35 UNL     1      11.787  68.013  26.015  1.00  0.00     0.009 A
ENDROOT
BRANCH   1   7
HETATM    7  C13 UNL     1       9.657  67.786  24.791  1.00  0.00     0.166 C
BRANCH   7   8
HETATM    8  N4  UNL     1       9.956  68.159  23.421  1.00  0.00    -0.362 N
HETATM    9  C12 UNL     1      10.237  69.444  23.140  1.00  0.00     0.091 A
HETATM   10  C11 UNL     1      10.518  69.776  21.833  1.00  0.00     0.024 A
HETATM   11  C10 UNL     1      10.513  68.826  20.835  1.00  0.00    -0.052 A
HETATM   12  C37 UNL     1      10.221  67.519  21.161  1.00  0.00     0.024 A
HETATM   13  C36 UNL     1       9.943  67.206  22.473  1.00  0.00     0.091 A
BRANCH  11  14
HETATM   14  C9  UNL     1      10.828  69.250  19.430  1.00  0.00     0.068 C
BRANCH  14  15
HETATM   15  C8  UNL     1      11.227  68.063  18.617  1.00  0.00     0.007 C
BRANCH  15  16
HETATM   16  C7  UNL     1      12.476  67.889  18.261  1.00  0.00     0.029 A
HETATM   17  C6  UNL     1      13.153  68.492  17.238  1.00  0.00     0.031 A
HETATM   18  C5  UNL     1      14.454  67.999  17.234  1.00  0.00     0.032 A
HETATM   19  C4  UNL     1      14.560  67.093  18.261  1.00  0.00     0.037 A
HETATM   20  N7  UNL     1      13.331  67.053  18.865  1.00  0.00    -0.356 N
ATOM     21  H7  UNL     1      13.098  66.466  19.667  1.00  0.00     0.166 HD
BRANCH  19  22
HETATM   22  C3  UNL     1      15.583  66.384  18.637  1.00  0.00     0.104 C
BRANCH  22  23
HETATM   23  C2  UNL     1      16.888  66.915  18.880  1.00  0.00     0.249 C
HETATM   24  N3  UNL     1      17.962  66.545  17.994  1.00  0.00    -0.298 N
HETATM   25  C1  UNL     1      19.278  67.033  18.174  1.00  0.00     0.188 C
ATOM     26  H3  UNL     1      17.768  65.915  17.216  1.00  0.00     0.171 HD
HETATM   27  N1  UNL     1      20.210  66.674  17.354  1.00  0.00    -0.373 N
HETATM   28  N2  UNL     1      19.578  67.920  19.258  1.00  0.00    -0.064 NA
ATOM     29  H12 UNL     1      21.158  67.025  17.483  1.00  0.00     0.158 HD
ATOM     30  H11 UNL     1      19.997  66.043  16.582  1.00  0.00     0.158 HD
HETATM   31  O1  UNL     1      17.185  67.699  19.826  1.00  0.00    -0.268 OA
ENDBRANCH  22  23
ENDBRANCH  19  22
ENDBRANCH  15  16
ENDBRANCH  14  15
ENDBRANCH  11  14
ENDBRANCH   7   8
ENDBRANCH   1   7
BRANCH   4  32
HETATM   32  C18 UNL     1      14.242  65.655  27.544  1.00  0.00     0.165 C
HETATM   33  C19 UNL     1      15.401  65.030  26.966  1.00  0.00     0.309 C
HETATM   34  C26 UNL     1      15.528  64.395  28.302  1.00  0.00     0.258 C
HETATM   35  O5  UNL     1      16.449  63.851  28.940  1.00  0.00    -0.271 OA
HETATM   36  N6  UNL     1      14.137  64.652  28.600  1.00  0.00    -0.314 N
BRANCH  33  37
HETATM   37  N5  UNL     1      15.522  64.159  25.883  1.00  0.00    -0.051 N
HETATM   38  C22 UNL     1      14.898  62.914  25.819  1.00  0.00     0.238 A
HETATM   39  C23 UNL     1      14.279  62.734  24.426  1.00  0.00     0.030 A
HETATM   40  C24 UNL     1      14.508  64.027  23.716  1.00  0.00     0.030 A
HETATM   41  C25 UNL     1      15.251  64.896  24.662  1.00  0.00     0.238 A
BRANCH  37  42
HETATM   42  C20 UNL     1      16.978  63.866  25.813  1.00  0.00     0.256 C
BRANCH  42  43
HETATM   43  C21 UNL     1      17.297  62.435  25.633  1.00  0.00     0.193 C
BRANCH  43  44
HETATM   44  S1  UNL     1      18.309  62.311  24.146  1.00  0.00     0.103 S
HETATM   45  O2  UNL     1      18.445  63.685  23.552  1.00  0.00    -0.595 OA
HETATM   46  O3  UNL     1      17.667  61.430  23.136  1.00  0.00    -0.595 OA
HETATM   47  O4  UNL     1      19.857  61.787  24.538  1.00  0.00    -0.595 OA
ENDBRANCH  43  44
ENDBRANCH  42  43
ENDBRANCH  37  42
ENDBRANCH  33  37
BRANCH  36  48
HETATM   48  C27 UNL     1      13.276  64.089  29.579  1.00  0.00     0.106 C
BRANCH  48  49
HETATM   49  C28 UNL     1      12.443  62.957  29.227  1.00  0.00    -0.021 A
HETATM   50  C29 UNL     1      11.739  62.242  30.170  1.00  0.00     0.013 A
HETATM   51  C30 UNL     1      10.950  61.149  29.852  1.00  0.00     0.001 A
HETATM   52  C31 UNL     1      10.854  60.751  28.542  1.00  0.00     0.000 A
HETATM   53  C32 UNL     1      11.548  61.449  27.569  1.00  0.00     0.001 A
HETATM   54  C33 UNL     1      12.318  62.521  27.919  1.00  0.00     0.013 A
ENDBRANCH  48  49
ENDBRANCH  36  48
ENDBRANCH   4  32
TORSDOF 14
ENDMDL