MODEL 3
REMARK VINA RESULT: -10.626567585      6.108     11.583
REMARK  13 active torsions:
REMARK  status: ('A' for Active; 'I' for Inactive)
REMARK       I    between atoms: C1_2  and  N3_10
REMARK       I    between atoms: N2_3  and  C2_5
REMARK    1  A    between atoms: C2_5  and  C3_7
REMARK    2  A    between atoms: C3_7  and  O2_8
REMARK    3  A    between atoms: N3_10  and  C4_12
REMARK    4  A    between atoms: C4_12  and  C5_13
REMARK    5  A    between atoms: C10_18  and  C11_19
REMARK    6  A    between atoms: C11_19  and  C12_20
REMARK    7  A    between atoms: C12_20  and  C13_21
REMARK       I    between atoms: N4_25  and  C17_26
REMARK    8  A    between atoms: C17_26  and  C18_28
REMARK       I    between atoms: C18_28  and  N5_30
REMARK    9  A    between atoms: N5_30  and  C19_32
REMARK   10  A    between atoms: C19_32  and  C20_33
REMARK   11  A    between atoms: C19_32  and  C29_44
REMARK   12  A    between atoms: C20_33  and  C21_34
REMARK   13  A    between atoms: C29_44  and  N7_45
ROOT
HETATM    1  C13 UNL     1      15.272  63.119  24.625  1.00  0.00     0.091 C
HETATM    2  C14 UNL     1      14.222  62.911  23.501  1.00  0.00     0.027 C
HETATM    3  C15 UNL     1      13.427  64.179  23.601  1.00  0.00     0.022 C
HETATM    4  C16 UNL     1      13.534  64.571  25.064  1.00  0.00     0.127 C
HETATM    5  N4  UNL     1      14.390  63.552  25.668  1.00  0.00    -0.339 N
HETATM    6  C17 UNL     1      14.262  63.083  26.978  1.00  0.00     0.311 C
HETATM    7  O3  UNL     1      14.944  62.074  27.375  1.00  0.00    -0.262 OA
ENDROOT
BRANCH   1   8
HETATM    8  C12 UNL     1      16.209  64.218  24.125  1.00  0.00     0.053 C
BRANCH   8   9
HETATM    9  C11 UNL     1      17.558  63.782  23.878  1.00  0.00    -0.013 C
BRANCH   9  10
HETATM   10  C10 UNL     1      18.218  62.669  24.512  1.00  0.00    -0.027 A
HETATM   11  C5  UNL     1      18.715  62.546  25.761  1.00  0.00    -0.010 A
HETATM   12  C6  UNL     1      19.300  61.325  26.139  1.00  0.00     0.021 A
HETATM   13  C7  UNL     1      19.396  60.243  25.311  1.00  0.00    -0.043 A
HETATM   14  C8  UNL     1      18.894  60.359  24.040  1.00  0.00    -0.007 A
HETATM   15  C41 UNL     1      20.039  58.985  25.808  1.00  0.00     0.066 C
HETATM   16  C9  UNL     1      18.322  61.533  23.645  1.00  0.00     0.026 A
HETATM   17  C39 UNL     1      18.997  59.307  23.246  1.00  0.00     0.146 C
HETATM   18  O5  UNL     1      19.576  58.130  23.649  1.00  0.00    -0.362 OA
HETATM   19  C40 UNL     1      19.752  57.790  24.985  1.00  0.00     0.179 C
BRANCH  11  20
HETATM   20  C4  UNL     1      18.703  63.494  26.692  1.00  0.00     0.103 C
BRANCH  20  21
HETATM   21  N3  UNL     1      17.501  63.716  27.467  1.00  0.00    -0.340 N
HETATM   22  C1  UNL     1      17.678  63.918  28.857  1.00  0.00     0.194 C
HETATM   23  N1  UNL     1      18.976  64.204  29.347  1.00  0.00    -0.063 NA
HETATM   24  N2  UNL     1      16.663  63.819  29.629  1.00  0.00    -0.299 N
HETATM   25  C2  UNL     1      16.702  63.979  31.044  1.00  0.00     0.247 C
ATOM     26  H2  UNL     1      15.761  63.611  29.200  1.00  0.00     0.171 HD
HETATM   27  O1  UNL     1      17.622  64.562  31.662  1.00  0.00    -0.271 OA
ATOM     28  H3  UNL     1      16.577  63.726  27.034  1.00  0.00     0.167 HD
BRANCH  25  29
HETATM   29  C3  UNL     1      15.596  63.426  31.871  1.00  0.00     0.267 C
BRANCH  29  30
HETATM   30  O2  UNL     1      14.716  62.687  31.083  1.00  0.00    -0.392 OA
ATOM     31  H2  UNL     1      14.121  63.261  30.615  1.00  0.00     0.210 HD
ENDBRANCH  29  30
ENDBRANCH  25  29
ENDBRANCH  20  21
ENDBRANCH  11  20
ENDBRANCH   9  10
ENDBRANCH   8   9
ENDBRANCH   1   8
BRANCH   6  32
HETATM   32  C18 UNL     1      13.380  63.655  27.994  1.00  0.00     0.309 C
HETATM   33  O4  UNL     1      13.873  64.533  28.727  1.00  0.00    -0.262 OA
HETATM   34  N5  UNL     1      12.035  63.262  28.153  1.00  0.00    -0.346 N
ATOM     35  H5  UNL     1      11.696  62.534  27.525  1.00  0.00     0.163 HD
BRANCH  34  36
HETATM   36  C19 UNL     1      11.097  63.776  29.100  1.00  0.00     0.107 C
BRANCH  36  37
HETATM   37  C20 UNL     1       9.728  63.717  28.420  1.00  0.00     0.067 C
BRANCH  37  38
HETATM   38  C21 UNL     1       9.127  65.057  28.246  1.00  0.00    -0.028 A
HETATM   39  C22 UNL     1       8.144  65.612  29.061  1.00  0.00     0.096 A
HETATM   40  N6  UNL     1       7.858  66.830  28.583  1.00  0.00    -0.365 N
HETATM   41  C23 UNL     1       8.608  67.096  27.494  1.00  0.00     0.042 A
ATOM     42  H6  UNL     1       7.169  67.466  28.985  1.00  0.00     0.165 HD
HETATM   43  C24 UNL     1       8.695  68.199  26.647  1.00  0.00     0.030 A
HETATM   44  C28 UNL     1       9.394  66.001  27.283  1.00  0.00    -0.002 A
HETATM   45  C25 UNL     1       9.571  68.201  25.589  1.00  0.00     0.002 A
HETATM   46  C26 UNL     1      10.365  67.100  25.374  1.00  0.00     0.001 A
HETATM   47  C27 UNL     1      10.284  66.016  26.199  1.00  0.00     0.014 A
ENDBRANCH  37  38
ENDBRANCH  36  37
BRANCH  36  48
HETATM   48  C29 UNL     1      11.090  63.141  30.436  1.00  0.00     0.154 C
BRANCH  48  49
HETATM   49  N7  UNL     1      10.332  61.914  30.566  1.00  0.00    -0.354 N
HETATM   50  C30 UNL     1      10.627  60.774  29.914  1.00  0.00     0.091 A
HETATM   51  C31 UNL     1       9.933  59.594  29.989  1.00  0.00     0.018 A
HETATM   52  C32 UNL     1       8.828  59.540  30.797  1.00  0.00     0.015 A
HETATM   53  C33 UNL     1       8.487  60.680  31.483  1.00  0.00    -0.009 A
HETATM   54  C34 UNL     1       7.365  60.644  32.306  1.00  0.00     0.014 A
HETATM   55  C38 UNL     1       9.232  61.842  31.364  1.00  0.00     0.044 A
HETATM   56  C35 UNL     1       6.994  61.771  33.006  1.00  0.00     0.001 A
HETATM   57  C36 UNL     1       7.737  62.946  32.892  1.00  0.00     0.002 A
HETATM   58  C37 UNL     1       8.856  62.964  32.065  1.00  0.00     0.030 A
ENDBRANCH  48  49
ENDBRANCH  36  48
ENDBRANCH  34  36
ENDBRANCH   6  32
TORSDOF 13
ENDMDL