MODEL 4
REMARK VINA RESULT: -9.323936803      2.114      8.769
REMARK  18 active torsions:
REMARK  status: ('A' for Active; 'I' for Inactive)
REMARK    1  A    between atoms: N1_1  and  C1_4
REMARK    2  A    between atoms: C2_9  and  N4_10
REMARK    3  A    between atoms: N4_10  and  C3_12
REMARK    4  A    between atoms: C3_12  and  C4_13
REMARK    5  A    between atoms: C4_13  and  C5_14
REMARK    6  A    between atoms: C8_17  and  C9_18
REMARK    7  A    between atoms: C10_19  and  C11_20
REMARK    8  A    between atoms: C11_20  and  C12_21
REMARK    9  A    between atoms: C11_20  and  C29_42
REMARK   10  A    between atoms: C12_21  and  N5_22
REMARK   11  A    between atoms: C15_25  and  C16_26
REMARK   12  A    between atoms: C16_26  and  O1_27
REMARK   13  A    between atoms: C16_26  and  N6_29
REMARK   14  A    between atoms: N7_45  and  C32_46
REMARK   15  A    between atoms: C32_46  and  C33_47
REMARK   16  A    between atoms: C33_47  and  C34_48
REMARK   17  A    between atoms: C34_48  and  C35_49
REMARK   18  A    between atoms: C35_49  and  N8_50
ROOT
HETATM    1  C11 UNL     1      10.504  66.353  26.252  1.00  0.00     0.135 C
ENDROOT
BRANCH   1   2
HETATM    2  C10 UNL     1      11.720  65.641  25.774  1.00  0.00    -0.088 C
HETATM    3  C9  UNL     1      12.707  65.100  25.353  1.00  0.00    -0.066 C
BRANCH   3   4
HETATM    4  C8  UNL     1      13.897  64.494  24.807  1.00  0.00     0.017 A
HETATM    5  C7  UNL     1      15.088  65.203  24.911  1.00  0.00     0.021 A
HETATM    6  C6  UNL     1      16.246  64.701  24.373  1.00  0.00     0.009 A
HETATM    7  C5  UNL     1      16.286  63.489  23.716  1.00  0.00    -0.057 A
HETATM    8  C40 UNL     1      15.103  62.773  23.609  1.00  0.00     0.009 A
HETATM    9  C39 UNL     1      13.929  63.291  24.157  1.00  0.00     0.021 A
BRANCH   7  10
HETATM   10  C4  UNL     1      17.539  63.009  23.136  1.00  0.00     0.058 C
BRANCH  10  11
HETATM   11  C3  UNL     1      18.417  62.324  24.168  1.00  0.00     0.142 C
BRANCH  11  12
HETATM   12  N4  UNL     1      18.181  60.901  24.083  1.00  0.00    -0.224 N
ATOM     13  H4  UNL     1      17.423  60.572  23.485  1.00  0.00     0.177 HD
BRANCH  12  14
HETATM   14  C2  UNL     1      18.872  60.032  24.717  1.00  0.00     0.707 A
HETATM   15  N3  UNL     1      19.594  60.269  25.819  1.00  0.00    -0.117 N
HETATM   16  N2  UNL     1      20.185  59.131  26.212  1.00  0.00    -0.118 N
ATOM     17  H3  UNL     1      19.681  61.172  26.286  1.00  0.00     0.206 HD
HETATM   18  C1  UNL     1      19.810  58.195  25.330  1.00  0.00     0.705 A
ATOM     19  H2  UNL     1      20.796  59.003  27.020  1.00  0.00     0.206 HD
HETATM   20  N12 UNL     1      18.997  58.735  24.395  1.00  0.00    -0.020 N
ATOM     21  H12 UNL     1      18.566  58.255  23.605  1.00  0.00     0.203 HD
BRANCH  18  22
HETATM   22  N1  UNL     1      20.185  56.946  25.387  1.00  0.00    -0.233 N
ATOM     23  H12 UNL     1      21.095  56.609  25.700  1.00  0.00     0.174 HD
ATOM     24  H11 UNL     1      19.594  56.161  25.114  1.00  0.00     0.174 HD
ENDBRANCH  18  22
ENDBRANCH  12  14
ENDBRANCH  11  12
ENDBRANCH  10  11
ENDBRANCH   7  10
ENDBRANCH   3   4
ENDBRANCH   1   2
BRANCH   1  25
HETATM   25  C12 UNL     1       9.366  66.224  25.259  1.00  0.00     0.151 C
BRANCH  25  26
HETATM   26  N5  UNL     1       9.774  66.824  23.993  1.00  0.00    -0.365 N
HETATM   27  C13 UNL     1       9.979  68.135  23.830  1.00  0.00     0.091 A
HETATM   28  C14 UNL     1      10.359  68.666  22.641  1.00  0.00     0.033 A
HETATM   29  C15 UNL     1      10.554  67.835  21.505  1.00  0.00     0.018 A
HETATM   30  C27 UNL     1      10.336  66.498  21.699  1.00  0.00     0.033 A
HETATM   31  C28 UNL     1       9.944  65.995  22.949  1.00  0.00     0.091 A
BRANCH  29  32
HETATM   32  C16 UNL     1      11.053  68.440  20.300  1.00  0.00     0.152 C
BRANCH  32  33
HETATM   33  O1  UNL     1      10.069  69.053  19.629  1.00  0.00    -0.345 OA
ATOM     34  H1  UNL     1      10.059  69.985  19.816  1.00  0.00     0.219 HD
ENDBRANCH  32  33
BRANCH  32  35
HETATM   35  N6  UNL     1      12.299  68.513  19.708  1.00  0.00    -0.341 N
HETATM   36  C17 UNL     1      12.454  69.090  18.435  1.00  0.00     0.066 C
HETATM   37  C18 UNL     1      12.689  68.197  17.263  1.00  0.00     0.050 C
HETATM   38  C19 UNL     1      14.064  67.937  16.836  1.00  0.00    -0.005 C
HETATM   39  C20 UNL     1      15.163  68.897  17.055  1.00  0.00     0.010 C
HETATM   40  C25 UNL     1      14.817  66.902  17.598  1.00  0.00    -0.006 C
HETATM   41  C21 UNL     1      15.807  67.934  18.031  1.00  0.00    -0.009 C
HETATM   42  C22 UNL     1      15.527  68.275  19.457  1.00  0.00     0.011 C
HETATM   43  C23 UNL     1      14.468  67.331  19.962  1.00  0.00     0.005 C
HETATM   44  C24 UNL     1      14.150  66.405  18.833  1.00  0.00     0.011 C
HETATM   45  C26 UNL     1      13.305  67.949  20.624  1.00  0.00     0.135 C
ENDBRANCH  32  35
ENDBRANCH  29  32
ENDBRANCH  25  26
ENDBRANCH   1  25
BRANCH   1  46
HETATM   46  C29 UNL     1      10.129  65.699  27.553  1.00  0.00     0.045 A
HETATM   47  C30 UNL     1      10.989  65.744  28.616  1.00  0.00     0.047 A
HETATM   48  C31 UNL     1      10.656  65.121  29.826  1.00  0.00     0.113 A
HETATM   49  N7  UNL     1       9.476  64.497  29.875  1.00  0.00    -0.289 N
HETATM   50  N10 UNL     1       8.661  64.480  28.800  1.00  0.00    -0.241 N
HETATM   51  N11 UNL     1       8.957  65.057  27.659  1.00  0.00    -0.289 N
ATOM     52  H10 UNL     1       7.769  63.992  28.877  1.00  0.00     0.208 HD
ATOM     53  H11 UNL     1       8.309  65.019  26.871  1.00  0.00     0.188 HD
BRANCH  49  54
HETATM   54  C32 UNL     1       9.047  63.833  31.088  1.00  0.00     0.150 C
BRANCH  54  55
HETATM   55  C33 UNL     1      10.082  62.785  31.478  1.00  0.00     0.023 C
BRANCH  55  56
HETATM   56  C34 UNL     1       9.736  61.533  30.725  1.00  0.00     0.022 C
BRANCH  56  57
HETATM   57  C35 UNL     1      10.972  60.797  30.292  1.00  0.00     0.129 C
BRANCH  57  58
HETATM   58  N8  UNL     1      11.625  61.443  29.154  1.00  0.00    -0.352 N
HETATM   59  C36 UNL     1      12.832  62.071  29.204  1.00  0.00     0.108 A
HETATM   60  C37 UNL     1      13.133  62.554  27.965  1.00  0.00     0.106 A
HETATM   61  N9  UNL     1      12.106  62.218  27.162  1.00  0.00    -0.361 N
HETATM   62  C38 UNL     1      11.203  61.548  27.892  1.00  0.00     0.182 A
ATOM     63  H9  UNL     1      12.029  62.437  26.168  1.00  0.00     0.166 HD
ENDBRANCH  57  58
ENDBRANCH  56  57
ENDBRANCH  55  56
ENDBRANCH  54  55
ENDBRANCH  49  54
ENDBRANCH   1  46
TORSDOF 18
ENDMDL