MODEL 4
REMARK VINA RESULT: -10.283484050      1.176      2.216
REMARK  13 active torsions:
REMARK  status: ('A' for Active; 'I' for Inactive)
REMARK    1  A    between atoms: C3_3  and  N1_4
REMARK    2  A    between atoms: N1_4  and  C4_5
REMARK    3  A    between atoms: C4_5  and  C5_6
REMARK    4  A    between atoms: C20_26  and  N5_27
REMARK    5  A    between atoms: C20_26  and  C32_46
REMARK       I    between atoms: N5_27  and  C21_29
REMARK    6  A    between atoms: C21_29  and  C22_31
REMARK    7  A    between atoms: C22_31  and  C23_32
REMARK    8  A    between atoms: C23_32  and  C24_33
REMARK    9  A    between atoms: C24_33  and  N6_34
REMARK   10  A    between atoms: N6_34  and  C25_36
REMARK   11  A    between atoms: C25_36  and  C26_40
REMARK       I    between atoms: C32_46  and  N8_48
REMARK   12  A    between atoms: N8_48  and  C33_50
REMARK   13  A    between atoms: C33_50  and  C34_51
ROOT
HETATM    1  C1  UNL     1      11.926  65.759  27.433  1.00  0.00     0.013 C
HETATM    2  C2  UNL     1      13.035  65.434  27.769  1.00  0.00    -0.089 C
HETATM    3  C3  UNL     1      14.347  65.093  28.191  1.00  0.00     0.336 C
ENDROOT
BRANCH   3   4
HETATM    4  N1  UNL     1      15.031  64.006  27.662  1.00  0.00    -0.025 N
HETATM    5  C16 UNL     1      16.376  64.205  28.406  1.00  0.00     0.273 C
HETATM    6  C17 UNL     1      16.995  65.203  27.512  1.00  0.00     0.014 C
HETATM    7  C18 UNL     1      16.549  65.013  26.281  1.00  0.00     0.020 C
HETATM    8  C19 UNL     1      16.532  65.388  24.878  1.00  0.00     0.195 C
HETATM    9  C41 UNL     1      15.617  63.868  26.420  1.00  0.00     0.236 C
HETATM   10  O1  UNL     1      17.010  66.435  24.431  1.00  0.00    -0.289 OA
HETATM   11  C20 UNL     1      15.841  64.280  24.113  1.00  0.00     0.181 C
HETATM   12  C40 UNL     1      14.984  63.595  25.153  1.00  0.00     0.088 C
BRANCH   4  13
HETATM   13  C4  UNL     1      14.662  62.730  28.239  1.00  0.00     0.216 C
BRANCH  13  14
HETATM   14  C5  UNL     1      13.321  62.305  28.429  1.00  0.00    -0.005 A
HETATM   15  C6  UNL     1      12.453  61.850  27.499  1.00  0.00     0.016 A
HETATM   16  C7  UNL     1      11.137  61.448  27.774  1.00  0.00     0.033 A
HETATM   17  C8  UNL     1      10.658  61.500  29.061  1.00  0.00     0.062 A
HETATM   18  N2  UNL     1       9.503  61.217  29.717  1.00  0.00    -0.296 N
HETATM   19  C11 UNL     1      11.527  61.960  30.023  1.00  0.00     0.045 A
HETATM   20  N3  UNL     1       9.648  61.487  31.028  1.00  0.00    -0.280 N
ATOM     21  H2  UNL     1       8.655  60.855  29.281  1.00  0.00     0.187 HD
HETATM   22  C9  UNL     1       8.690  61.339  32.087  1.00  0.00     0.179 C
HETATM   23  C10 UNL     1      10.913  61.955  31.238  1.00  0.00     0.132 A
HETATM   24  N4  UNL     1      11.680  62.402  32.343  1.00  0.00    -0.369 N
HETATM   25  C14 UNL     1      13.094  62.486  32.203  1.00  0.00     0.128 C
HETATM   26  C15 UNL     1      10.969  62.752  33.569  1.00  0.00     0.151 C
HETATM   27  C13 UNL     1      13.634  62.826  30.873  1.00  0.00     0.060 C
HETATM   28  C12 UNL     1      12.790  62.346  29.754  1.00  0.00    -0.029 A
ENDBRANCH  13  14
ENDBRANCH   4  13
BRANCH  11  29
HETATM   29  N5  UNL     1      15.068  64.887  23.040  1.00  0.00    -0.337 N
HETATM   30  C21 UNL     1      13.911  65.647  23.160  1.00  0.00     0.218 C
HETATM   31  O2  UNL     1      13.416  65.879  24.280  1.00  0.00    -0.274 OA
ATOM     32  H5  UNL     1      15.415  64.738  22.093  1.00  0.00     0.164 HD
BRANCH  30  33
HETATM   33  C22 UNL     1      13.249  66.191  21.957  1.00  0.00     0.104 C
BRANCH  33  34
HETATM   34  C23 UNL     1      14.144  66.650  20.872  1.00  0.00     0.029 C
BRANCH  34  35
HETATM   35  C24 UNL     1      13.582  66.657  19.491  1.00  0.00     0.121 C
BRANCH  35  36
HETATM   36  N6  UNL     1      13.049  67.990  19.219  1.00  0.00    -0.376 N
ATOM     37  H6  UNL     1      13.663  68.803  19.273  1.00  0.00     0.161 HD
BRANCH  36  38
HETATM   38  C25 UNL     1      11.688  68.157  18.880  1.00  0.00     0.104 C
HETATM   39  N7  UNL     1      11.297  67.902  17.690  1.00  0.00    -0.385 N
ATOM     40  H72 UNL     1      11.983  67.580  17.008  1.00  0.00     0.157 HD
ATOM     41  H71 UNL     1      10.314  68.023  17.445  1.00  0.00     0.157 HD
BRANCH  38  42
HETATM   42  C26 UNL     1      10.698  68.624  19.865  1.00  0.00     0.007 A
HETATM   43  C27 UNL     1      10.232  69.911  19.855  1.00  0.00     0.015 A
HETATM   44  C28 UNL     1       9.302  70.409  20.747  1.00  0.00     0.001 A
HETATM   45  C29 UNL     1       8.824  69.541  21.702  1.00  0.00     0.000 A
HETATM   46  C30 UNL     1       9.257  68.240  21.755  1.00  0.00     0.001 A
HETATM   47  C31 UNL     1      10.198  67.779  20.832  1.00  0.00     0.015 A
ENDBRANCH  38  42
ENDBRANCH  36  38
ENDBRANCH  35  36
ENDBRANCH  34  35
ENDBRANCH  33  34
ENDBRANCH  30  33
ENDBRANCH  11  29
BRANCH  11  48
HETATM   48  C32 UNL     1      16.893  63.438  23.530  1.00  0.00     0.254 C
HETATM   49  O3  UNL     1      17.196  63.686  22.308  1.00  0.00    -0.270 OA
HETATM   50  N8  UNL     1      17.588  62.402  24.167  1.00  0.00    -0.353 N
ATOM     51  H8  UNL     1      17.376  62.166  25.136  1.00  0.00     0.162 HD
BRANCH  50  52
HETATM   52  C33 UNL     1      18.620  61.658  23.443  1.00  0.00     0.179 C
BRANCH  52  53
HETATM   53  C34 UNL     1      18.959  60.379  24.088  1.00  0.00     0.028 A
HETATM   54  C35 UNL     1      19.670  60.367  25.263  1.00  0.00     0.027 A
HETATM   55  C36 UNL     1      19.984  59.137  25.852  1.00  0.00     0.003 A
HETATM   56  C37 UNL     1      19.590  57.955  25.273  1.00  0.00     0.017 A
HETATM   57  C38 UNL     1      18.878  58.029  24.095  1.00  0.00     0.090 A
HETATM   58  N9  UNL     1      18.574  59.229  23.521  1.00  0.00    -0.363 N
HETATM   59  C39 UNL     1      17.816  59.194  22.275  1.00  0.00     0.155 C
ENDBRANCH  52  53
ENDBRANCH  50  52
ENDBRANCH  11  48
ENDBRANCH   3   4
TORSDOF 13
ENDMDL