MODEL 1
REMARK VINA RESULT: -9.740659123      0.000      0.000
REMARK  14 active torsions:
REMARK  status: ('A' for Active; 'I' for Inactive)
REMARK    1  A    between atoms: C2_2  and  N1_3
REMARK    2  A    between atoms: C2_2  and  C38_53
REMARK       I    between atoms: N1_3  and  C3_5
REMARK    3  A    between atoms: C3_5  and  C4_7
REMARK    4  A    between atoms: C4_7  and  C5_8
REMARK    5  A    between atoms: C5_8  and  C6_9
REMARK    6  A    between atoms: C7_10  and  C8_11
REMARK    7  A    between atoms: N2_26  and  C23_28
REMARK    8  A    between atoms: C23_28  and  C24_29
REMARK    9  A    between atoms: C25_30  and  C26_31
REMARK   10  A    between atoms: C26_31  and  S1_32
REMARK   11  A    between atoms: S1_32  and  N3_35
REMARK   12  A    between atoms: N3_35  and  C27_37
REMARK   13  A    between atoms: C27_37  and  C28_38
REMARK   14  A    between atoms: C28_38  and  N4_39
ROOT
HETATM    1  C8  UNL     1      15.245  63.441  24.340  1.00  0.00    -0.008 A
HETATM    2  C9  UNL     1      15.067  64.175  23.190  1.00  0.00     0.014 A
HETATM    3  C10 UNL     1      14.029  65.100  23.065  1.00  0.00     0.015 A
HETATM    4  C11 UNL     1      13.114  65.354  24.070  1.00  0.00     0.006 A
HETATM    5  C12 UNL     1      13.305  64.609  25.197  1.00  0.00     0.028 A
HETATM    6  C13 UNL     1      14.350  63.676  25.325  1.00  0.00     0.030 A
HETATM    7  C14 UNL     1      12.316  64.681  26.258  1.00  0.00     0.194 A
HETATM    8  O2  UNL     1      12.469  64.008  27.300  1.00  0.00    -0.287 OA
HETATM    9  C15 UNL     1      11.150  65.523  26.130  1.00  0.00     0.027 A
HETATM   10  C16 UNL     1      10.221  65.552  27.174  1.00  0.00     0.016 A
HETATM   11  C17 UNL     1       9.091  66.325  27.120  1.00  0.00     0.001 A
HETATM   12  C18 UNL     1       8.874  67.087  26.008  1.00  0.00     0.001 A
HETATM   13  C19 UNL     1       9.823  67.049  24.957  1.00  0.00     0.014 A
HETATM   14  C20 UNL     1      10.949  66.289  24.997  1.00  0.00     0.005 A
HETATM   15  C21 UNL     1      11.950  66.258  23.871  1.00  0.00     0.053 A
HETATM   16  N2  UNL     1      12.023  67.242  23.080  1.00  0.00    -0.373 N
HETATM   17  C22 UNL     1      13.274  67.592  22.359  1.00  0.00     0.150 C
ENDROOT
BRANCH   1  18
HETATM   18  C7  UNL     1      16.344  62.457  24.383  1.00  0.00     0.050 A
HETATM   19  C6  UNL     1      17.467  62.389  25.151  1.00  0.00    -0.018 A
HETATM   20  C37 UNL     1      18.170  61.245  24.728  1.00  0.00    -0.001 A
HETATM   21  C32 UNL     1      17.479  60.638  23.722  1.00  0.00     0.043 A
HETATM   22  C36 UNL     1      19.365  60.692  25.147  1.00  0.00     0.014 A
HETATM   23  N6  UNL     1      16.392  61.389  23.540  1.00  0.00    -0.354 N
HETATM   24  C33 UNL     1      17.956  59.482  23.117  1.00  0.00     0.030 A
ATOM     25  H6  UNL     1      15.674  61.185  22.844  1.00  0.00     0.166 HD
HETATM   26  C34 UNL     1      19.135  58.931  23.527  1.00  0.00     0.002 A
HETATM   27  C35 UNL     1      19.824  59.552  24.542  1.00  0.00     0.001 A
BRANCH  19  28
HETATM   28  C5  UNL     1      17.938  63.307  26.188  1.00  0.00     0.051 C
BRANCH  28  29
HETATM   29  C4  UNL     1      18.479  64.599  25.605  1.00  0.00     0.107 C
BRANCH  29  30
HETATM   30  C3  UNL     1      19.590  65.150  26.408  1.00  0.00     0.218 C
HETATM   31  N1  UNL     1      20.592  65.984  25.860  1.00  0.00    -0.349 N
ATOM     32  H1  UNL     1      20.559  66.218  24.867  1.00  0.00     0.163 HD
HETATM   33  O1  UNL     1      19.643  64.862  27.633  1.00  0.00    -0.274 OA
BRANCH  31  34
HETATM   34  C2  UNL     1      21.655  66.510  26.672  1.00  0.00     0.169 C
HETATM   35  C1  UNL     1      21.507  67.979  26.937  1.00  0.00     0.042 C
BRANCH  34  36
HETATM   36  C38 UNL     1      22.957  66.205  25.980  1.00  0.00     0.253 C
HETATM   37  N7  UNL     1      23.980  67.209  25.958  1.00  0.00    -0.060 NA
HETATM   38  O5  UNL     1      23.114  65.093  25.445  1.00  0.00    -0.275 OA
ENDBRANCH  34  36
ENDBRANCH  31  34
ENDBRANCH  29  30
ENDBRANCH  28  29
ENDBRANCH  19  28
ENDBRANCH   1  18
BRANCH  16  39
HETATM   39  C23 UNL     1      10.986  68.103  22.498  1.00  0.00     0.216 C
BRANCH  39  40
HETATM   40  C24 UNL     1      11.187  68.330  21.072  1.00  0.00    -0.086 C
HETATM   41  C25 UNL     1      11.377  68.493  19.895  1.00  0.00    -0.088 C
BRANCH  41  42
HETATM   42  C26 UNL     1      11.648  68.674  18.446  1.00  0.00     0.256 C
BRANCH  42  43
HETATM   43  S1  UNL     1      13.215  67.934  18.048  1.00  0.00     0.237 S
HETATM   44  O3  UNL     1      14.260  68.796  18.745  1.00  0.00    -0.205 OA
HETATM   45  O4  UNL     1      13.459  68.038  16.590  1.00  0.00    -0.205 OA
BRANCH  43  46
HETATM   46  N3  UNL     1      13.383  66.361  18.665  1.00  0.00    -0.317 N
ATOM     47  H3  UNL     1      12.675  65.901  19.237  1.00  0.00     0.172 HD
BRANCH  46  48
HETATM   48  C27 UNL     1      14.638  65.743  18.295  1.00  0.00     0.152 C
BRANCH  48  49
HETATM   49  C28 UNL     1      15.606  65.651  19.445  1.00  0.00     0.149 C
BRANCH  49  50
HETATM   50  N4  UNL     1      16.949  66.011  19.058  1.00  0.00    -0.350 N
HETATM   51  C29 UNL     1      17.424  67.244  18.778  1.00  0.00     0.108 A
HETATM   52  C30 UNL     1      18.755  67.148  18.446  1.00  0.00     0.106 A
HETATM   53  N5  UNL     1      19.108  65.854  18.520  1.00  0.00    -0.361 N
HETATM   54  C31 UNL     1      18.007  65.177  18.891  1.00  0.00     0.182 A
ATOM     55  H5  UNL     1      20.030  65.462  18.332  1.00  0.00     0.166 HD
ENDBRANCH  49  50
ENDBRANCH  48  49
ENDBRANCH  46  48
ENDBRANCH  43  46
ENDBRANCH  42  43
ENDBRANCH  41  42
ENDBRANCH  39  40
ENDBRANCH  16  39
TORSDOF 14
ENDMDL