MODEL 4
REMARK VINA RESULT: -9.351356617      1.494      2.850
REMARK  12 active torsions:
REMARK  status: ('A' for Active; 'I' for Inactive)
REMARK    1  A    between atoms: C2_2  and  C3_3
REMARK       I    between atoms: C3_3  and  N1_5
REMARK    2  A    between atoms: N1_5  and  C4_7
REMARK    3  A    between atoms: C7_10  and  C8_11
REMARK       I    between atoms: C8_11  and  N2_13
REMARK    4  A    between atoms: C9_15  and  C10_16
REMARK    5  A    between atoms: C9_15  and  C19_27
REMARK    6  A    between atoms: C10_16  and  C11_17
REMARK       I    between atoms: C19_27  and  N4_29
REMARK    7  A    between atoms: N4_29  and  C20_31
REMARK    8  A    between atoms: C20_31  and  C30_41
REMARK    9  A    between atoms: C21_32  and  C22_33
REMARK   10  A    between atoms: C27_38  and  C28_39
REMARK   11  A    between atoms: C30_41  and  O4_42
REMARK   12  A    between atoms: N5_44  and  C31_46
ROOT
HETATM    1  C8  UNL     1      15.761  64.688  27.616  1.00  0.00     0.255 C
HETATM    2  O2  UNL     1      16.144  65.849  27.500  1.00  0.00    -0.271 OA
HETATM    3  N2  UNL     1      15.848  63.857  26.417  1.00  0.00    -0.324 N
ATOM      4  H2  UNL     1      15.528  62.899  26.555  1.00  0.00     0.169 HD
HETATM    5  C9  UNL     1      16.270  64.117  25.169  1.00  0.00     0.085 C
ENDROOT
BRANCH   5   6
HETATM    6  C10 UNL     1      17.483  63.613  24.440  1.00  0.00     0.104 C
BRANCH   6   7
HETATM    7  C11 UNL     1      18.225  62.453  24.950  1.00  0.00    -0.025 A
HETATM    8  C12 UNL     1      18.975  62.493  26.145  1.00  0.00     0.096 A
HETATM    9  N3  UNL     1      19.517  61.311  26.406  1.00  0.00    -0.365 N
HETATM   10  C13 UNL     1      19.147  60.458  25.401  1.00  0.00     0.042 A
ATOM     11  H3  UNL     1      20.103  61.079  27.209  1.00  0.00     0.165 HD
HETATM   12  C14 UNL     1      19.478  59.157  25.161  1.00  0.00     0.030 A
HETATM   13  C18 UNL     1      18.363  61.156  24.521  1.00  0.00    -0.002 A
HETATM   14  C15 UNL     1      19.038  58.517  24.037  1.00  0.00     0.002 A
HETATM   15  C16 UNL     1      18.258  59.200  23.150  1.00  0.00     0.001 A
HETATM   16  C17 UNL     1      17.908  60.526  23.375  1.00  0.00     0.014 A
ENDBRANCH   6   7
ENDBRANCH   5   6
BRANCH   5  17
HETATM   17  C19 UNL     1      15.426  64.700  24.077  1.00  0.00     0.269 C
HETATM   18  O3  UNL     1      14.461  63.973  23.652  1.00  0.00    -0.266 OA
HETATM   19  N4  UNL     1      15.572  65.977  23.500  1.00  0.00    -0.318 N
ATOM     20  H4  UNL     1      16.379  66.568  23.698  1.00  0.00     0.169 HD
BRANCH  19  21
HETATM   21  C20 UNL     1      14.489  66.411  22.591  1.00  0.00     0.087 C
HETATM   22  C21 UNL     1      13.673  67.502  22.983  1.00  0.00     0.046 C
BRANCH  22  23
HETATM   23  C22 UNL     1      12.671  67.944  21.966  1.00  0.00    -0.028 A
HETATM   24  C23 UNL     1      12.899  69.179  21.382  1.00  0.00     0.012 A
HETATM   25  C24 UNL     1      12.055  69.692  20.396  1.00  0.00     0.001 A
HETATM   26  C25 UNL     1      10.965  68.965  19.990  1.00  0.00     0.001 A
HETATM   27  C26 UNL     1      10.743  67.742  20.580  1.00  0.00     0.008 A
HETATM   28  C27 UNL     1      11.600  67.225  21.573  1.00  0.00    -0.048 A
BRANCH  28  29
HETATM   29  C28 UNL     1      11.267  65.895  22.082  1.00  0.00     0.035 C
HETATM   30  C29 UNL     1       9.927  65.920  22.800  1.00  0.00     0.010 C
ENDBRANCH  28  29
ENDBRANCH  22  23
BRANCH  21  31
HETATM   31  C30 UNL     1      15.077  66.337  21.231  1.00  0.00     0.169 C
HETATM   32  N5  UNL     1      15.569  67.219  20.334  1.00  0.00    -0.321 N
ATOM     33  H5  UNL     1      16.444  67.683  20.580  1.00  0.00     0.169 HD
BRANCH  31  34
HETATM   34  O4  UNL     1      15.131  65.077  20.821  1.00  0.00    -0.344 OA
ATOM     35  H4  UNL     1      15.420  65.037  19.916  1.00  0.00     0.219 HD
ENDBRANCH  31  34
BRANCH  32  36
HETATM   36  C31 UNL     1      15.047  67.534  19.199  1.00  0.00     0.106 A
HETATM   37  C32 UNL     1      15.564  68.582  18.431  1.00  0.00     0.048 A
HETATM   38  C33 UNL     1      14.959  68.944  17.243  1.00  0.00     0.005 A
HETATM   39  C34 UNL     1      13.835  68.280  16.792  1.00  0.00     0.017 A
HETATM   40  C35 UNL     1      13.370  67.266  17.579  1.00  0.00     0.089 A
HETATM   41  N6  UNL     1      13.961  66.913  18.733  1.00  0.00    -0.352 N
ATOM     42  H6  UNL     1      13.565  66.143  19.272  1.00  0.00     0.166 HD
ENDBRANCH  32  36
ENDBRANCH  21  31
ENDBRANCH  19  21
ENDBRANCH   5  17
BRANCH   1  43
HETATM   43  C7  UNL     1      15.213  64.104  28.880  1.00  0.00     0.305 C
HETATM   44  C6  UNL     1      13.837  63.593  28.678  1.00  0.00     0.132 C
HETATM   45  C5  UNL     1      13.537  62.167  29.099  1.00  0.00     0.063 C
HETATM   46  N8  UNL     1      12.995  64.437  29.563  1.00  0.00    -0.319 N
HETATM   47  C4  UNL     1      12.467  62.247  30.160  1.00  0.00     0.178 C
HETATM   48  C39 UNL     1      11.906  63.591  29.914  1.00  0.00     0.244 C
HETATM   49  O5  UNL     1      10.719  63.975  29.975  1.00  0.00    -0.271 OA
HETATM   50  C38 UNL     1      13.730  65.674  29.618  1.00  0.00     0.365 C
HETATM   51  N7  UNL     1      15.067  65.104  29.908  1.00  0.00    -0.044 N
HETATM   52  C36 UNL     1      16.101  66.070  30.016  1.00  0.00     0.275 C
HETATM   53  C37 UNL     1      14.949  64.478  31.220  1.00  0.00     0.275 C
BRANCH  47  54
HETATM   54  N1  UNL     1      11.464  61.293  30.312  1.00  0.00    -0.348 N
HETATM   55  C3  UNL     1      10.749  60.631  29.325  1.00  0.00     0.217 C
HETATM   56  O1  UNL     1      10.911  60.852  28.069  1.00  0.00    -0.274 OA
ATOM     57  H1  UNL     1      11.224  61.050  31.273  1.00  0.00     0.163 HD
BRANCH  55  58
HETATM   58  C2  UNL     1       9.716  59.584  29.684  1.00  0.00     0.098 C
HETATM   59  C1  UNL     1       8.869  60.115  30.822  1.00  0.00     0.014 C
ENDBRANCH  55  58
ENDBRANCH  47  54
ENDBRANCH   1  43
TORSDOF 12
ENDMDL