MODEL 4
REMARK VINA RESULT: -9.492863479      4.327     13.816
REMARK  14 active torsions:
REMARK  status: ('A' for Active; 'I' for Inactive)
REMARK    1  A    between atoms: C2_2  and  C3_3
REMARK    2  A    between atoms: N2_10  and  C8_11
REMARK    3  A    between atoms: C8_11  and  C9_12
REMARK    4  A    between atoms: C12_15  and  C13_16
REMARK    5  A    between atoms: C14_17  and  C15_18
REMARK    6  A    between atoms: C18_21  and  S1_22
REMARK    7  A    between atoms: S1_22  and  N3_25
REMARK    8  A    between atoms: N3_25  and  C19_27
REMARK    9  A    between atoms: C21_29  and  C22_30
REMARK       I    between atoms: C22_30  and  N4_32
REMARK   10  A    between atoms: N4_32  and  C23_34
REMARK   11  A    between atoms: C23_34  and  C24_35
REMARK   12  A    between atoms: N5_43  and  C32_44
REMARK   13  A    between atoms: C32_44  and  C33_45
REMARK   14  A    between atoms: N6_46  and  N7_48
ROOT
HETATM    1  S1  UNL     1      11.253  61.370  30.554  1.00  0.00     0.264 S
HETATM    2  O1  UNL     1      10.154  61.955  31.421  1.00  0.00    -0.200 OA
HETATM    3  O2  UNL     1      10.679  60.127  29.940  1.00  0.00    -0.200 OA
ENDROOT
BRANCH   1   4
HETATM    4  C18 UNL     1      11.556  62.499  29.256  1.00  0.00     0.080 A
HETATM    5  C17 UNL     1      11.337  63.822  29.286  1.00  0.00     0.027 A
HETATM    6  C16 UNL     1      11.618  64.617  28.158  1.00  0.00     0.022 A
HETATM    7  C15 UNL     1      12.118  64.103  27.004  1.00  0.00     0.018 A
HETATM    8  C37 UNL     1      12.350  62.720  26.968  1.00  0.00     0.022 A
HETATM    9  C36 UNL     1      12.074  61.954  28.063  1.00  0.00     0.027 A
BRANCH   7  10
HETATM   10  C14 UNL     1      12.410  64.848  25.829  1.00  0.00    -0.061 C
HETATM   11  C13 UNL     1      12.625  65.422  24.806  1.00  0.00    -0.061 C
BRANCH  11  12
HETATM   12  C12 UNL     1      12.841  66.054  23.532  1.00  0.00     0.018 A
HETATM   13  C11 UNL     1      12.128  65.801  22.389  1.00  0.00     0.021 A
HETATM   14  C10 UNL     1      12.433  66.406  21.186  1.00  0.00     0.010 A
HETATM   15  C9  UNL     1      13.472  67.290  21.099  1.00  0.00    -0.040 A
HETATM   16  C39 UNL     1      14.210  67.574  22.225  1.00  0.00     0.010 A
HETATM   17  C38 UNL     1      13.898  66.968  23.409  1.00  0.00     0.021 A
BRANCH  15  18
HETATM   18  C8  UNL     1      13.923  67.944  19.828  1.00  0.00     0.166 C
BRANCH  18  19
HETATM   19  N2  UNL     1      15.154  67.294  19.380  1.00  0.00    -0.361 N
HETATM   20  C7  UNL     1      15.193  65.984  19.166  1.00  0.00     0.093 A
HETATM   21  C6  UNL     1      16.361  65.315  18.808  1.00  0.00     0.047 A
HETATM   22  C5  UNL     1      17.504  66.086  18.685  1.00  0.00     0.045 A
HETATM   23  N1  UNL     1      18.762  65.750  18.382  1.00  0.00    -0.365 N
HETATM   24  C41 UNL     1      17.451  67.448  18.912  1.00  0.00     0.014 A
HETATM   25  C4  UNL     1      19.529  66.848  18.404  1.00  0.00     0.096 A
ATOM     26  H1  UNL     1      19.087  64.807  18.168  1.00  0.00     0.165 HD
HETATM   27  C3  UNL     1      18.725  67.936  18.737  1.00  0.00    -0.029 A
HETATM   28  C40 UNL     1      16.252  68.067  19.266  1.00  0.00     0.105 A
BRANCH  27  29
HETATM   29  C2  UNL     1      19.196  69.332  18.868  1.00  0.00     0.036 C
HETATM   30  C1  UNL     1      19.687  69.633  20.272  1.00  0.00     0.010 C
ENDBRANCH  27  29
ENDBRANCH  18  19
ENDBRANCH  15  18
ENDBRANCH  11  12
ENDBRANCH   7  10
ENDBRANCH   1   4
BRANCH   1  31
HETATM   31  N3  UNL     1      12.659  61.055  31.463  1.00  0.00    -0.266 N
ATOM     32  H3  UNL     1      12.735  60.117  31.857  1.00  0.00     0.180 HD
BRANCH  31  33
HETATM   33  C19 UNL     1      13.729  61.923  31.740  1.00  0.00     0.118 A
HETATM   34  C20 UNL     1      14.656  62.352  30.800  1.00  0.00     0.066 A
HETATM   35  C21 UNL     1      15.686  63.212  31.090  1.00  0.00     0.036 A
HETATM   36  C30 UNL     1      15.805  63.673  32.392  1.00  0.00     0.034 A
HETATM   37  C31 UNL     1      14.894  63.250  33.324  1.00  0.00     0.094 A
HETATM   38  N5  UNL     1      13.882  62.390  32.988  1.00  0.00    -0.338 N
BRANCH  35  39
HETATM   39  C22 UNL     1      16.657  63.691  30.088  1.00  0.00     0.252 C
HETATM   40  O3  UNL     1      17.817  64.058  30.346  1.00  0.00    -0.268 OA
HETATM   41  N4  UNL     1      16.191  63.721  28.727  1.00  0.00    -0.353 N
ATOM     42  H4  UNL     1      15.233  63.416  28.552  1.00  0.00     0.163 HD
BRANCH  41  43
HETATM   43  C23 UNL     1      16.963  64.143  27.603  1.00  0.00     0.161 C
BRANCH  43  44
HETATM   44  C24 UNL     1      16.390  63.802  26.288  1.00  0.00    -0.041 A
HETATM   45  C25 UNL     1      16.581  64.670  25.212  1.00  0.00     0.009 A
HETATM   46  C26 UNL     1      16.096  64.372  23.972  1.00  0.00     0.001 A
HETATM   47  C27 UNL     1      15.399  63.198  23.754  1.00  0.00     0.000 A
HETATM   48  C28 UNL     1      15.190  62.320  24.784  1.00  0.00     0.001 A
HETATM   49  C29 UNL     1      15.695  62.643  26.052  1.00  0.00     0.009 A
ENDBRANCH  43  44
ENDBRANCH  41  43
ENDBRANCH  35  39
BRANCH  38  50
HETATM   50  C32 UNL     1      13.051  61.942  34.057  1.00  0.00     0.175 C
BRANCH  50  51
HETATM   51  C33 UNL     1      11.833  62.720  34.332  1.00  0.00     0.095 C
HETATM   52  N6  UNL     1      10.705  62.137  34.415  1.00  0.00    -0.333 N
ATOM     53  H6  UNL     1      10.715  61.126  34.279  1.00  0.00     0.179 HD
BRANCH  52  54
HETATM   54  N7  UNL     1       9.488  62.690  34.663  1.00  0.00    -0.240 NA
HETATM   55  C34 UNL     1       8.416  61.707  34.514  1.00  0.00     0.135 C
HETATM   56  C35 UNL     1       9.352  63.405  35.905  1.00  0.00     0.135 C
ENDBRANCH  52  54
ENDBRANCH  50  51
ENDBRANCH  38  50
ENDBRANCH  31  33
ENDBRANCH   1  31
TORSDOF 14
ENDMDL