MODEL 5
REMARK VINA RESULT: -8.391275595      1.728      2.877
REMARK  17 active torsions:
REMARK  status: ('A' for Active; 'I' for Inactive)
REMARK    1  A    between atoms: C5_6  and  C6_7
REMARK    2  A    between atoms: C7_8  and  C8_9
REMARK    3  A    between atoms: C8_9  and  N2_10
REMARK       I    between atoms: N2_10  and  C9_12
REMARK       I    between atoms: C9_12  and  N3_14
REMARK    4  A    between atoms: N3_14  and  C10_16
REMARK    5  A    between atoms: C10_16  and  C11_17
REMARK    6  A    between atoms: C12_18  and  C13_19
REMARK    7  A    between atoms: C13_19  and  C14_20
REMARK    8  A    between atoms: C14_20  and  C15_21
REMARK    9  A    between atoms: C16_22  and  C17_23
REMARK   10  A    between atoms: C21_27  and  C22_28
REMARK   11  A    between atoms: C25_35  and  C26_36
REMARK   12  A    between atoms: N5_39  and  C29_40
REMARK   13  A    between atoms: C29_40  and  C30_41
REMARK   14  A    between atoms: C31_42  and  C32_43
REMARK   15  A    between atoms: C32_43  and  N6_44
REMARK   16  A    between atoms: C35_47  and  S1_48
REMARK   17  A    between atoms: S1_48  and  N7_49
ROOT
HETATM    1  C17 UNL     1      14.181  62.233  29.075  1.00  0.00    -0.023 A
HETATM    2  C18 UNL     1      15.262  62.415  28.194  1.00  0.00     0.026 A
HETATM    3  C19 UNL     1      15.087  62.697  26.871  1.00  0.00    -0.006 A
HETATM    4  C20 UNL     1      16.010  62.864  25.851  1.00  0.00     0.050 A
HETATM    5  C21 UNL     1      15.294  63.083  24.697  1.00  0.00     0.111 A
HETATM    6  N4  UNL     1      13.969  63.053  25.016  1.00  0.00    -0.350 N
ATOM      7  H4  UNL     1      13.203  63.188  24.358  1.00  0.00     0.166 HD
HETATM    8  C23 UNL     1      13.825  62.817  26.343  1.00  0.00     0.044 A
HETATM    9  C24 UNL     1      12.755  62.654  27.159  1.00  0.00     0.045 A
HETATM   10  C25 UNL     1      12.901  62.358  28.533  1.00  0.00     0.004 A
ENDROOT
BRANCH   1  11
HETATM   11  C16 UNL     1      14.339  61.877  30.456  1.00  0.00     0.008 C
HETATM   12  C15 UNL     1      14.390  62.535  31.547  1.00  0.00    -0.026 C
BRANCH  12  13
HETATM   13  C14 UNL     1      14.300  63.942  31.860  1.00  0.00     0.031 C
BRANCH  13  14
HETATM   14  C13 UNL     1      15.688  64.471  32.233  1.00  0.00     0.030 C
BRANCH  14  15
HETATM   15  C12 UNL     1      16.387  64.859  30.935  1.00  0.00    -0.029 C
HETATM   16  C11 UNL     1      15.792  65.699  30.134  1.00  0.00    -0.011 C
BRANCH  16  17
HETATM   17  C10 UNL     1      16.218  66.255  28.839  1.00  0.00     0.151 C
BRANCH  17  18
HETATM   18  N3  UNL     1      17.567  65.885  28.539  1.00  0.00    -0.340 N
HETATM   19  C9  UNL     1      18.084  65.641  27.269  1.00  0.00     0.317 C
HETATM   20  N2  UNL     1      19.430  65.223  27.098  1.00  0.00    -0.333 N
HETATM   21  O1  UNL     1      17.403  65.766  26.232  1.00  0.00    -0.247 OA
ATOM     22  H2  UNL     1      20.012  65.127  27.931  1.00  0.00     0.165 HD
ATOM     23  H3  UNL     1      18.208  65.791  29.327  1.00  0.00     0.164 HD
BRANCH  20  24
HETATM   24  C8  UNL     1      20.031  64.921  25.805  1.00  0.00     0.219 C
BRANCH  24  25
HETATM   25  C7  UNL     1      19.742  63.539  25.398  1.00  0.00    -0.081 C
HETATM   26  C6  UNL     1      19.510  62.405  25.042  1.00  0.00    -0.064 C
BRANCH  26  27
HETATM   27  C5  UNL     1      19.219  61.057  24.595  1.00  0.00     0.033 A
HETATM   28  C4  UNL     1      18.522  60.782  23.448  1.00  0.00     0.023 A
HETATM   29  C3  UNL     1      18.254  59.482  23.034  1.00  0.00     0.019 A
HETATM   30  C2  UNL     1      18.726  58.473  23.838  1.00  0.00     0.090 A
HETATM   31  N1  UNL     1      19.407  58.744  24.959  1.00  0.00    -0.369 N
HETATM   32  C1  UNL     1      19.851  57.594  25.728  1.00  0.00     0.154 C
HETATM   33  C38 UNL     1      19.669  59.997  25.364  1.00  0.00     0.110 A
ENDBRANCH  26  27
ENDBRANCH  24  25
ENDBRANCH  20  24
ENDBRANCH  17  18
ENDBRANCH  16  17
ENDBRANCH  14  15
ENDBRANCH  13  14
ENDBRANCH  12  13
ENDBRANCH   1  11
BRANCH  10  34
HETATM   34  C26 UNL     1      11.652  62.249  29.291  1.00  0.00     0.060 A
HETATM   35  C27 UNL     1      10.850  61.241  29.696  1.00  0.00     0.050 A
HETATM   36  C28 UNL     1       9.721  61.817  30.275  1.00  0.00     0.113 A
HETATM   37  N5  UNL     1       9.828  63.142  30.225  1.00  0.00    -0.292 N
HETATM   38  N8  UNL     1      10.956  63.399  29.651  1.00  0.00    -0.297 N
ATOM     39  H8  UNL     1      11.301  64.344  29.480  1.00  0.00     0.187 HD
BRANCH  37  40
HETATM   40  C29 UNL     1       8.880  64.173  30.700  1.00  0.00     0.241 C
BRANCH  40  41
HETATM   41  C30 UNL     1       8.648  65.177  29.656  1.00  0.00    -0.083 C
HETATM   42  C31 UNL     1       8.457  65.981  28.780  1.00  0.00    -0.085 C
BRANCH  42  43
HETATM   43  C32 UNL     1       8.209  66.913  27.695  1.00  0.00     0.221 C
BRANCH  43  44
HETATM   44  N6  UNL     1       9.082  66.674  26.543  1.00  0.00    -0.355 N
HETATM   45  C33 UNL     1      10.305  66.154  26.722  1.00  0.00     0.093 A
HETATM   46  C34 UNL     1      11.170  65.968  25.628  1.00  0.00     0.042 A
HETATM   47  C35 UNL     1      10.789  66.313  24.360  1.00  0.00     0.082 A
HETATM   48  C36 UNL     1       9.509  66.853  24.192  1.00  0.00     0.042 A
HETATM   49  C37 UNL     1       8.685  67.018  25.312  1.00  0.00     0.093 A
BRANCH  47  50
HETATM   50  S1  UNL     1      11.854  66.129  22.968  1.00  0.00     0.256 S
HETATM   51  O4  UNL     1      12.772  64.952  23.190  1.00  0.00    -0.201 OA
HETATM   52  O5  UNL     1      12.737  67.345  22.829  1.00  0.00    -0.201 OA
BRANCH  50  53
HETATM   53  N7  UNL     1      10.923  65.885  21.552  1.00  0.00    -0.324 N
ATOM     54  H72 UNL     1      10.055  65.351  21.521  1.00  0.00     0.169 HD
ATOM     55  H71 UNL     1      11.368  66.351  20.761  1.00  0.00     0.169 HD
ENDBRANCH  50  53
ENDBRANCH  47  50
ENDBRANCH  43  44
ENDBRANCH  42  43
ENDBRANCH  40  41
ENDBRANCH  37  40
ENDBRANCH  10  34
BRANCH   5  56
HETATM   56  C22 UNL     1      15.891  63.232  23.393  1.00  0.00     0.226 C
HETATM   57  O2  UNL     1      15.660  62.512  22.428  1.00  0.00    -0.643 OA
HETATM   58  O3  UNL     1      16.805  64.303  23.257  1.00  0.00    -0.643 OA
ENDBRANCH   5  56
TORSDOF 17
ENDMDL