MODEL 5
REMARK VINA RESULT: -7.341535931     12.222     16.710
REMARK  10 active torsions:
REMARK  status: ('A' for Active; 'I' for Inactive)
REMARK    1  A    between atoms: C2_2  and  C3_3
REMARK    2  A    between atoms: C3_3  and  C4_4
REMARK    3  A    between atoms: C4_4  and  N1_5
REMARK    4  A    between atoms: N1_5  and  C5_6
REMARK    5  A    between atoms: N1_5  and  C14_16
REMARK    6  A    between atoms: C5_6  and  C6_7
REMARK    7  A    between atoms: C6_7  and  C7_8
REMARK    8  A    between atoms: C7_8  and  N2_9
REMARK    9  A    between atoms: C14_16  and  N3_18
REMARK   10  A    between atoms: N3_18  and  C15_20
ROOT
HETATM    1  N1  UNL     1       8.487 -10.959  35.748  1.00  0.00    -0.358 N
ENDROOT
BRANCH   1   2
HETATM    2  C4  UNL     1       9.315 -10.572  36.960  1.00  0.00     0.125 C
BRANCH   2   3
HETATM    3  C3  UNL     1      10.379  -9.602  36.589  1.00  0.00     0.019 C
BRANCH   3   4
HETATM    4  C2  UNL     1      11.026  -9.127  37.891  1.00  0.00    -0.003 C
HETATM    5  C1  UNL     1      12.245  -8.316  37.533  1.00  0.00     0.005 C
ENDBRANCH   3   4
ENDBRANCH   2   3
ENDBRANCH   1   2
BRANCH   1   6
HETATM    6  C5  UNL     1       8.418  -9.887  34.829  1.00  0.00     0.127 C
BRANCH   6   7
HETATM    7  C6  UNL     1       7.202  -9.067  34.772  1.00  0.00     0.050 C
BRANCH   7   8
HETATM    8  C7  UNL     1       6.537  -9.225  33.378  1.00  0.00     0.274 C
BRANCH   8   9
HETATM    9  N2  UNL     1       5.659  -8.095  33.143  1.00  0.00     0.088 N
HETATM   10  C8  UNL     1       6.275  -7.238  32.161  1.00  0.00     0.272 C
HETATM   11  C9  UNL     1       5.252  -6.459  31.363  1.00  0.00     0.031 C
HETATM   12  C10 UNL     1       4.330  -7.381  30.591  1.00  0.00     0.007 C
HETATM   13  C11 UNL     1       4.532  -8.793  31.152  1.00  0.00     0.010 C
HETATM   14  C12 UNL     1       3.529  -9.756  30.590  1.00  0.00     0.011 C
HETATM   15  C13 UNL     1       4.398  -8.643  32.674  1.00  0.00     0.276 C
ENDBRANCH   8   9
ENDBRANCH   7   8
ENDBRANCH   6   7
ENDBRANCH   1   6
BRANCH   1  16
HETATM   16  C14 UNL     1       7.944 -12.230  35.695  1.00  0.00     0.170 C
HETATM   17  S1  UNL     1       8.800 -13.404  36.592  1.00  0.00    -0.041 SA
BRANCH  16  18
HETATM   18  N3  UNL     1       6.815 -12.760  35.066  1.00  0.00    -0.361 N
ATOM     19  H3  UNL     1       6.009 -13.033  35.630  1.00  0.00     0.162 HD
BRANCH  18  20
HETATM   20  C15 UNL     1       6.767 -12.932  33.616  1.00  0.00     0.113 C
HETATM   21  C16 UNL     1       8.084 -13.547  33.187  1.00  0.00     0.296 C
HETATM   22  N4  UNL     1       8.162 -13.929  31.828  1.00  0.00     0.086 N
HETATM   23  C17 UNL     1       9.346 -14.751  31.654  1.00  0.00     0.310 C
HETATM   24  C18 UNL     1       7.034 -14.668  31.330  1.00  0.00     0.280 C
HETATM   25  C19 UNL     1       5.713 -14.100  31.767  1.00  0.00    -0.019 C
HETATM   26  C20 UNL     1       4.640 -15.117  31.414  1.00  0.00     0.016 C
HETATM   27  C21 UNL     1       5.369 -12.813  31.103  1.00  0.00     0.016 C
HETATM   28  C22 UNL     1       5.730 -13.997  33.275  1.00  0.00     0.037 C
ENDBRANCH  18  20
ENDBRANCH  16  18
ENDBRANCH   1  16
TORSDOF 10
ENDMDL