MODEL 4
REMARK VINA RESULT: -8.997222699      2.025      3.523
REMARK  8 active torsions:
REMARK  status: ('A' for Active; 'I' for Inactive)
REMARK    1  A    between atoms: C2_2  and  C3_3
REMARK    2  A    between atoms: C3_3  and  C4_4
REMARK    3  A    between atoms: C4_4  and  N1_5
REMARK    4  A    between atoms: N1_5  and  C5_6
REMARK    5  A    between atoms: N1_5  and  C9_10
REMARK    6  A    between atoms: C5_6  and  C6_7
REMARK    7  A    between atoms: N3_20  and  C15_21
REMARK    8  A    between atoms: C15_21  and  C16_22
ROOT
HETATM    1  C9  UNL     1       9.893  -2.499  47.602  1.00  0.00     0.106 A
HETATM    2  C10 UNL     1      11.262  -2.513  47.462  1.00  0.00     0.058 A
HETATM    3  C11 UNL     1      12.134  -1.898  48.330  1.00  0.00    -0.015 A
HETATM    4  C12 UNL     1      11.603  -1.223  49.411  1.00  0.00     0.108 A
HETATM    5  C13 UNL     1      10.232  -1.204  49.556  1.00  0.00     0.263 A
HETATM    6  O1  UNL     1       9.706  -0.589  50.546  1.00  0.00    -0.267 OA
HETATM    7  N2  UNL     1       9.416  -1.819  48.686  1.00  0.00    -0.309 N
ATOM      8  H2  UNL     1       8.409  -1.776  48.839  1.00  0.00     0.170 HD
HETATM    9  C14 UNL     1      12.728  -0.665  50.143  1.00  0.00     0.260 A
HETATM   10  O2  UNL     1      12.608   0.007  51.177  1.00  0.00    -0.267 OA
HETATM   11  N3  UNL     1      13.943  -1.009  49.494  1.00  0.00    -0.339 N
HETATM   12  C24 UNL     1      13.627  -1.820  48.346  1.00  0.00     0.166 A
ENDROOT
BRANCH   1  13
HETATM   13  N1  UNL     1       9.003  -3.138  46.699  1.00  0.00    -0.367 N
BRANCH  13  14
HETATM   14  C4  UNL     1       7.584  -2.811  46.904  1.00  0.00     0.124 C
BRANCH  14  15
HETATM   15  C3  UNL     1       6.975  -4.020  47.578  1.00  0.00     0.019 C
BRANCH  15  16
HETATM   16  C2  UNL     1       6.285  -3.636  48.880  1.00  0.00    -0.003 C
HETATM   17  C1  UNL     1       4.844  -4.039  48.895  1.00  0.00     0.005 C
ENDBRANCH  15  16
ENDBRANCH  14  15
ENDBRANCH  13  14
BRANCH  13  18
HETATM   18  C5  UNL     1       9.392  -4.013  45.646  1.00  0.00     0.128 C
BRANCH  18  19
HETATM   19  C6  UNL     1       9.951  -5.336  46.033  1.00  0.00    -0.005 C
HETATM   20  C7  UNL     1      10.870  -5.761  44.864  1.00  0.00     0.011 C
HETATM   21  C8  UNL     1       8.912  -6.431  46.144  1.00  0.00     0.011 C
ENDBRANCH  18  19
ENDBRANCH  13  18
ENDBRANCH   1  13
BRANCH  11  22
HETATM   22  C15 UNL     1      15.312  -0.644  49.840  1.00  0.00     0.165 C
BRANCH  22  23
HETATM   23  C16 UNL     1      15.724  -1.398  51.076  1.00  0.00    -0.039 A
HETATM   24  C17 UNL     1      15.716  -2.777  51.126  1.00  0.00     0.015 A
HETATM   25  C18 UNL     1      16.082  -3.498  52.256  1.00  0.00    -0.061 A
HETATM   26  C19 UNL     1      16.062  -4.994  52.279  1.00  0.00     0.048 C
HETATM   27  C20 UNL     1      16.472  -2.791  53.381  1.00  0.00     0.013 A
HETATM   28  C21 UNL     1      16.495  -1.398  53.372  1.00  0.00    -0.061 A
HETATM   29  C22 UNL     1      16.910  -0.634  54.577  1.00  0.00     0.048 C
HETATM   30  C23 UNL     1      16.119  -0.739  52.215  1.00  0.00     0.015 A
ENDBRANCH  22  23
ENDBRANCH  11  22
TORSDOF 8
ENDMDL