MODEL 2
REMARK VINA RESULT: -7.723665553      1.764      4.576
REMARK  9 active torsions:
REMARK  status: ('A' for Active; 'I' for Inactive)
REMARK    1  A    between atoms: C2_2  and  N1_3
REMARK    2  A    between atoms: N1_3  and  C3_4
REMARK    3  A    between atoms: N1_3  and  C5_6
REMARK    4  A    between atoms: C5_6  and  C6_7
REMARK    5  A    between atoms: C6_7  and  N2_8
REMARK    6  A    between atoms: N2_8  and  C7_10
REMARK    7  A    between atoms: C7_10  and  C8_11
REMARK    8  A    between atoms: C7_10  and  C15_20
REMARK       I    between atoms: C8_11  and  N3_13
REMARK    9  A    between atoms: N3_13  and  C10_15
ROOT
HETATM    1  C7  UNL     1       9.022  -2.996  47.629  1.00  0.00     0.082 C
ENDROOT
BRANCH   1   2
HETATM    2  N2  UNL     1       9.708  -1.709  47.715  1.00  0.00    -0.386 N
ATOM      3  H2  UNL     1       9.266  -0.797  47.600  1.00  0.00     0.159 HD
BRANCH   2   4
HETATM    4  C6  UNL     1      11.123  -1.930  47.989  1.00  0.00     0.150 C
BRANCH   4   5
HETATM    5  C5  UNL     1      11.473  -1.811  49.449  1.00  0.00     0.292 C
BRANCH   5   6
HETATM    6  N1  UNL     1      12.148  -0.681  49.921  1.00  0.00     0.089 N
BRANCH   6   7
HETATM    7  C2  UNL     1      11.571   0.121  50.922  1.00  0.00     0.268 C
HETATM    8  C1  UNL     1      10.074  -0.023  50.939  1.00  0.00     0.037 C
ENDBRANCH   6   7
BRANCH   6   9
HETATM    9  C3  UNL     1      13.446  -1.134  50.432  1.00  0.00     0.268 C
HETATM   10  C4  UNL     1      14.586  -0.192  50.137  1.00  0.00     0.037 C
ENDBRANCH   6   9
ENDBRANCH   5   6
ENDBRANCH   4   5
ENDBRANCH   2   4
ENDBRANCH   1   2
BRANCH   1  11
HETATM   11  C8  UNL     1       9.223  -3.638  46.360  1.00  0.00     0.266 C
HETATM   12  O1  UNL     1       9.106  -2.940  45.293  1.00  0.00    -0.266 OA
HETATM   13  N3  UNL     1       9.527  -5.018  46.106  1.00  0.00    -0.347 N
HETATM   14  C9  UNL     1       9.725  -5.890  47.222  1.00  0.00     0.153 C
BRANCH  13  15
HETATM   15  C10 UNL     1       9.542  -5.614  44.794  1.00  0.00     0.087 C
HETATM   16  C11 UNL     1       8.722  -6.874  44.645  1.00  0.00     0.025 C
HETATM   17  C12 UNL     1       9.471  -7.762  43.647  1.00  0.00     0.002 C
HETATM   18  C13 UNL     1      10.887  -7.232  43.613  1.00  0.00     0.002 C
HETATM   19  C14 UNL     1      10.892  -5.886  44.267  1.00  0.00     0.025 C
ENDBRANCH  13  15
ENDBRANCH   1  11
BRANCH   1  20
HETATM   20  C15 UNL     1       7.797  -3.034  48.432  1.00  0.00     0.008 C
HETATM   21  C16 UNL     1       7.286  -1.580  48.455  1.00  0.00     0.020 C
HETATM   22  C17 UNL     1       6.228  -1.304  49.474  1.00  0.00    -0.013 C
HETATM   23  C18 UNL     1       5.036  -2.179  49.054  1.00  0.00     0.009 C
HETATM   24  C22 UNL     1       6.721  -1.596  50.844  1.00  0.00     0.009 C
HETATM   25  C19 UNL     1       5.507  -3.592  49.087  1.00  0.00    -0.013 C
HETATM   26  C20 UNL     1       5.903  -3.890  50.504  1.00  0.00     0.009 C
HETATM   27  C24 UNL     1       6.652  -3.898  48.140  1.00  0.00     0.020 C
HETATM   28  C21 UNL     1       7.115  -3.058  50.834  1.00  0.00    -0.013 C
HETATM   29  C23 UNL     1       8.200  -3.388  49.901  1.00  0.00     0.020 C
ENDBRANCH   1  20
TORSDOF 9
ENDMDL