MODEL 2
REMARK VINA RESULT: -6.876982045      0.269      1.491
REMARK  10 active torsions:
REMARK  status: ('A' for Active; 'I' for Inactive)
REMARK    1  A    between atoms: C2_2  and  N1_3
REMARK    2  A    between atoms: N1_3  and  C3_4
REMARK    3  A    between atoms: N1_3  and  C5_6
REMARK    4  A    between atoms: N1_3  and  C7_8
REMARK    5  A    between atoms: C7_8  and  C8_9
REMARK    6  A    between atoms: C8_9  and  N2_10
REMARK    7  A    between atoms: C8_9  and  C9_14
REMARK    8  A    between atoms: C9_14  and  O1_15
REMARK    9  A    between atoms: O1_15  and  C10_16
REMARK   10  A    between atoms: C10_16  and  C11_18
ROOT
HETATM    1  C10 UNL     1       5.824  -3.112  49.368  1.00  0.00     0.268 C
HETATM    2  O2  UNL     1       4.682  -3.487  49.017  1.00  0.00    -0.264 OA
ENDROOT
BRANCH   1   3
HETATM    3  O1  UNL     1       6.929  -3.589  48.695  1.00  0.00    -0.319 OA
BRANCH   3   4
HETATM    4  C9  UNL     1       7.149  -3.511  47.300  1.00  0.00     0.213 C
BRANCH   4   5
HETATM    5  C8  UNL     1       8.530  -3.027  46.933  1.00  0.00     0.233 C
BRANCH   5   6
HETATM    6  C7  UNL     1       9.096  -1.953  47.769  1.00  0.00     0.272 C
BRANCH   6   7
HETATM    7  N1  UNL     1      10.268  -2.132  48.522  1.00  0.00    -0.066 N
BRANCH   7   8
HETATM    8  C2  UNL     1      11.517  -1.758  47.924  1.00  0.00     0.233 C
HETATM    9  C1  UNL     1      12.204  -2.815  47.137  1.00  0.00     0.035 C
ENDBRANCH   7   8
BRANCH   7  10
HETATM   10  C3  UNL     1      10.435  -3.548  48.811  1.00  0.00     0.233 C
HETATM   11  C4  UNL     1      10.128  -3.975  50.188  1.00  0.00     0.035 C
ENDBRANCH   7  10
BRANCH   7  12
HETATM   12  C5  UNL     1      10.187  -1.545  49.861  1.00  0.00     0.233 C
HETATM   13  C6  UNL     1      11.190  -0.548  50.228  1.00  0.00     0.035 C
ENDBRANCH   7  12
ENDBRANCH   6   7
ENDBRANCH   5   6
BRANCH   5  14
HETATM   14  N2  UNL     1       8.276  -2.363  45.606  1.00  0.00    -0.071 N
ATOM     15  H23 UNL     1       7.371  -1.897  45.538  1.00  0.00     0.274 HD
ATOM     16  H22 UNL     1       8.842  -1.532  45.439  1.00  0.00     0.274 HD
ATOM     17  H21 UNL     1       8.415  -3.110  44.925  1.00  0.00     0.274 HD
ENDBRANCH   5  14
ENDBRANCH   4   5
ENDBRANCH   3   4
ENDBRANCH   1   3
BRANCH   1  18
HETATM   18  C11 UNL     1       5.930  -2.154  50.513  1.00  0.00     0.053 C
HETATM   19  C12 UNL     1       4.602  -1.941  51.153  1.00  0.00     0.025 C
HETATM   20  C13 UNL     1       4.615  -1.489  52.563  1.00  0.00    -0.013 C
HETATM   21  C14 UNL     1       4.670   0.008  52.742  1.00  0.00     0.005 C
HETATM   22  C21 UNL     1       5.701  -2.084  53.416  1.00  0.00     0.014 C
HETATM   23  C15 UNL     1       5.331   0.700  51.572  1.00  0.00     0.010 C
HETATM   24  C16 UNL     1       6.649   0.111  51.193  1.00  0.00    -0.039 C
HETATM   25  C17 UNL     1       7.537   1.264  50.705  1.00  0.00     0.015 C
HETATM   26  C18 UNL     1       7.340  -0.481  52.381  1.00  0.00     0.018 C
HETATM   27  C23 UNL     1       6.563  -0.862  50.038  1.00  0.00     0.008 C
HETATM   28  C19 UNL     1       7.006  -1.896  52.674  1.00  0.00    -0.042 C
HETATM   29  C20 UNL     1       8.106  -2.454  53.583  1.00  0.00     0.015 C
HETATM   30  C22 UNL     1       6.949  -2.785  51.460  1.00  0.00     0.029 C
HETATM   31  C24 UNL     1       5.835  -0.275  48.883  1.00  0.00     0.012 C
ENDBRANCH   1  18
TORSDOF 10
ENDMDL