MODEL 2
REMARK VINA RESULT: -9.349488793      4.920     13.649
REMARK  11 active torsions:
REMARK  status: ('A' for Active; 'I' for Inactive)
REMARK    1  A    between atoms: C2_2  and  N1_3
REMARK    2  A    between atoms: N1_3  and  C3_4
REMARK    3  A    between atoms: N1_3  and  C5_6
REMARK    4  A    between atoms: C5_6  and  C6_7
REMARK    5  A    between atoms: C7_8  and  C8_9
REMARK    6  A    between atoms: C8_9  and  C9_10
REMARK    7  A    between atoms: C9_10  and  C10_11
REMARK    8  A    between atoms: C10_11  and  C11_12
REMARK    9  A    between atoms: C11_12  and  C12_13
REMARK   10  A    between atoms: C12_13  and  N2_14
REMARK   11  A    between atoms: C24_27  and  O2_29
ROOT
HETATM    1  N2  UNL     1       8.878 -11.219  35.478  1.00  0.00    -0.323 N
HETATM    2  C13 UNL     1       8.523 -12.603  35.200  1.00  0.00     0.232 C
HETATM    3  O1  UNL     1       9.256 -13.552  35.579  1.00  0.00    -0.272 OA
HETATM    4  C14 UNL     1       7.287 -12.523  34.489  1.00  0.00     0.113 C
HETATM    5  C15 UNL     1       6.769 -13.586  33.668  1.00  0.00    -0.074 C
HETATM    6  C16 UNL     1       7.353 -14.935  33.584  1.00  0.00     0.044 C
HETATM    7  C17 UNL     1       5.680 -13.404  32.898  1.00  0.00    -0.023 C
HETATM    8  C18 UNL     1       4.795 -12.256  32.668  1.00  0.00     0.028 C
HETATM    9  C19 UNL     1       5.045 -11.100  33.609  1.00  0.00     0.016 C
HETATM   10  C20 UNL     1       6.363 -10.448  33.472  1.00  0.00    -0.004 C
HETATM   11  C21 UNL     1       6.430  -9.608  32.197  1.00  0.00     0.019 C
HETATM   12  C22 UNL     1       7.556 -11.365  33.524  1.00  0.00     0.040 C
HETATM   13  C23 UNL     1       8.265 -10.421  34.433  1.00  0.00     0.132 C
HETATM   14  C24 UNL     1       6.953  -9.773  34.685  1.00  0.00     0.083 C
HETATM   15  C25 UNL     1       7.075  -8.266  34.382  1.00  0.00     0.049 C
ENDROOT
BRANCH   1  16
HETATM   16  C12 UNL     1       9.686 -10.667  36.510  1.00  0.00     0.067 C
BRANCH  16  17
HETATM   17  C11 UNL     1      10.330  -9.375  36.468  1.00  0.00     0.045 C
BRANCH  17  18
HETATM   18  C10 UNL     1      11.687  -9.178  37.013  1.00  0.00     0.006 C
BRANCH  18  19
HETATM   19  C9  UNL     1      11.821  -8.441  38.294  1.00  0.00     0.012 C
BRANCH  19  20
HETATM   20  C8  UNL     1      10.846  -9.098  39.293  1.00  0.00     0.094 C
BRANCH  20  21
HETATM   21  C7  UNL     1      11.159  -8.627  40.637  1.00  0.00    -0.105 C
HETATM   22  C6  UNL     1      11.398  -8.228  41.766  1.00  0.00    -0.076 C
BRANCH  22  23
HETATM   23  C5  UNL     1      11.712  -7.787  43.104  1.00  0.00     0.365 C
BRANCH  23  24
HETATM   24  N1  UNL     1      10.781  -6.766  43.530  1.00  0.00     0.098 N
BRANCH  24  25
HETATM   25  C2  UNL     1       9.734  -7.546  44.280  1.00  0.00     0.269 C
HETATM   26  C1  UNL     1       8.542  -7.725  43.364  1.00  0.00     0.037 C
ENDBRANCH  24  25
BRANCH  24  27
HETATM   27  C3  UNL     1      11.410  -5.982  44.599  1.00  0.00     0.269 C
HETATM   28  C4  UNL     1      10.461  -5.220  45.449  1.00  0.00     0.037 C
ENDBRANCH  24  27
ENDBRANCH  23  24
ENDBRANCH  22  23
ENDBRANCH  20  21
ENDBRANCH  19  20
ENDBRANCH  18  19
ENDBRANCH  17  18
ENDBRANCH  16  17
ENDBRANCH   1  16
BRANCH  14  29
HETATM   29  O2  UNL     1       6.326  -9.923  35.880  1.00  0.00    -0.387 OA
ATOM     30  H2  UNL     1       6.375  -9.214  36.510  1.00  0.00     0.210 HD
ENDBRANCH  14  29
TORSDOF 11
ENDMDL