MODEL 3
REMARK VINA RESULT: -7.793219624      1.508      2.680
REMARK  10 active torsions:
REMARK  status: ('A' for Active; 'I' for Inactive)
REMARK    1  A    between atoms: C2_2  and  C3_3
REMARK    2  A    between atoms: C3_3  and  C4_4
REMARK    3  A    between atoms: C4_4  and  N1_5
REMARK    4  A    between atoms: N1_5  and  C5_6
REMARK    5  A    between atoms: N1_5  and  C11_13
REMARK    6  A    between atoms: C5_6  and  C6_7
REMARK    7  A    between atoms: C6_7  and  N2_8
REMARK    8  A    between atoms: C11_13  and  O1_14
REMARK    9  A    between atoms: C11_13  and  C12_16
REMARK   10  A    between atoms: C23_27  and  N3_28
ROOT
HETATM    1  N1  UNL     1       9.884  -2.577  48.218  1.00  0.00    -0.362 N
ENDROOT
BRANCH   1   2
HETATM    2  C4  UNL     1      10.972  -1.674  48.410  1.00  0.00     0.136 C
BRANCH   2   3
HETATM    3  C3  UNL     1      11.225  -1.301  49.861  1.00  0.00     0.006 A
HETATM    4  C22 UNL     1      11.720  -2.364  50.772  1.00  0.00     0.047 A
HETATM    5  C23 UNL     1      12.717  -1.428  50.211  1.00  0.00     0.196 A
BRANCH   3   6
HETATM    6  C2  UNL     1      10.441  -0.155  50.384  1.00  0.00     0.009 C
HETATM    7  C1  UNL     1       9.851  -0.331  51.754  1.00  0.00     0.006 C
ENDBRANCH   3   6
BRANCH   5   8
HETATM    8  N3  UNL     1      13.378  -0.377  50.889  1.00  0.00    -0.074 N
HETATM    9  C24 UNL     1      14.626  -0.065  50.236  1.00  0.00     0.267 C
ATOM     10  H32 UNL     1      12.783   0.446  50.985  1.00  0.00     0.277 HD
ATOM     11  H31 UNL     1      13.509  -0.586  51.878  1.00  0.00     0.277 HD
ENDBRANCH   5   8
ENDBRANCH   2   3
ENDBRANCH   1   2
BRANCH   1  12
HETATM   12  C5  UNL     1      10.333  -4.003  47.963  1.00  0.00     0.154 C
BRANCH  12  13
HETATM   13  C6  UNL     1      10.590  -4.164  46.520  1.00  0.00     0.292 C
BRANCH  13  14
HETATM   14  N2  UNL     1       9.515  -4.550  45.700  1.00  0.00     0.090 N
HETATM   15  C7  UNL     1       9.819  -5.355  44.566  1.00  0.00     0.272 C
HETATM   16  C8  UNL     1      10.149  -6.691  45.164  1.00  0.00     0.032 C
HETATM   17  C9  UNL     1       9.000  -6.823  46.160  1.00  0.00     0.032 C
HETATM   18  C10 UNL     1       8.617  -5.402  46.465  1.00  0.00     0.272 C
ENDBRANCH  13  14
ENDBRANCH  12  13
ENDBRANCH   1  12
BRANCH   1  19
HETATM   19  C11 UNL     1       8.539  -2.296  48.224  1.00  0.00     0.122 C
BRANCH  19  20
HETATM   20  O1  UNL     1       8.148  -1.626  47.137  1.00  0.00    -0.349 OA
ATOM     21  H1  UNL     1       7.387  -1.080  47.297  1.00  0.00     0.219 HD
ENDBRANCH  19  20
BRANCH  19  22
HETATM   22  C12 UNL     1       7.394  -2.521  49.104  1.00  0.00     0.026 C
HETATM   23  C13 UNL     1       6.741  -1.184  49.369  1.00  0.00     0.022 C
HETATM   24  C14 UNL     1       5.705  -1.285  50.448  1.00  0.00    -0.013 C
HETATM   25  C15 UNL     1       4.677  -2.308  50.083  1.00  0.00     0.009 C
HETATM   26  C19 UNL     1       6.417  -1.699  51.717  1.00  0.00     0.009 C
HETATM   27  C16 UNL     1       5.356  -3.645  49.855  1.00  0.00    -0.013 C
HETATM   28  C17 UNL     1       5.986  -4.053  51.165  1.00  0.00     0.009 C
HETATM   29  C21 UNL     1       6.389  -3.531  48.730  1.00  0.00     0.022 C
HETATM   30  C18 UNL     1       7.065  -3.028  51.514  1.00  0.00    -0.013 C
HETATM   31  C20 UNL     1       8.051  -3.036  50.417  1.00  0.00     0.022 C
ENDBRANCH  19  22
ENDBRANCH   1  19
TORSDOF 10
ENDMDL