MODEL 2
REMARK VINA RESULT: -7.803516859      1.971      4.412
REMARK  8 active torsions:
REMARK  status: ('A' for Active; 'I' for Inactive)
REMARK    1  A    between atoms: C3_3  and  N1_4
REMARK    2  A    between atoms: N1_4  and  C4_5
REMARK    3  A    between atoms: N1_4  and  C5_7
REMARK    4  A    between atoms: N1_4  and  C7_9
REMARK    5  A    between atoms: C7_9  and  C8_10
REMARK    6  A    between atoms: C16_20  and  N3_21
REMARK    7  A    between atoms: N3_21  and  C17_22
REMARK    8  A    between atoms: N3_21  and  C19_24
ROOT
HETATM    1  C1  UNL     1       8.592  -6.290  46.432  1.00  0.00     0.098 C
HETATM    2  C2  UNL     1       8.922  -5.132  46.210  1.00  0.00    -0.160 C
HETATM    3  C3  UNL     1       9.316  -3.757  45.915  1.00  0.00     0.326 C
ENDROOT
BRANCH   3   4
HETATM    4  N1  UNL     1       9.214  -3.009  47.183  1.00  0.00    -0.004 N
BRANCH   4   5
HETATM    5  C4  UNL     1      10.083  -1.906  47.031  1.00  0.00     0.460 C
HETATM    6  O1  UNL     1      10.399  -1.416  45.946  1.00  0.00    -0.276 OA
ENDBRANCH   4   5
BRANCH   4   7
HETATM    7  C5  UNL     1       9.781  -3.886  48.185  1.00  0.00     0.243 C
HETATM    8  C6  UNL     1      10.817  -3.235  49.053  1.00  0.00     0.035 C
ENDBRANCH   4   7
BRANCH   4   9
HETATM    9  C7  UNL     1       7.848  -2.684  47.366  1.00  0.00     0.258 C
BRANCH   9  10
HETATM   10  C8  UNL     1       7.191  -3.208  48.619  1.00  0.00     0.063 C
HETATM   11  C9  UNL     1       6.025  -4.050  48.241  1.00  0.00     0.012 C
HETATM   12  C10 UNL     1       5.122  -4.157  49.472  1.00  0.00     0.001 C
HETATM   13  C11 UNL     1       3.994  -3.185  49.196  1.00  0.00     0.005 C
HETATM   14  C12 UNL     1       4.382  -1.769  49.364  1.00  0.00     0.041 C
HETATM   15  C13 UNL     1       5.727  -1.530  49.878  1.00  0.00    -0.022 A
HETATM   16  C14 UNL     1       6.889  -2.132  49.565  1.00  0.00     0.022 A
HETATM   17  C24 UNL     1       5.969  -0.566  50.838  1.00  0.00     0.004 A
HETATM   18  N2  UNL     1       7.864  -1.563  50.312  1.00  0.00    -0.355 N
HETATM   19  C15 UNL     1       7.345  -0.589  51.115  1.00  0.00     0.088 A
ATOM     20  H2  UNL     1       8.850  -1.825  50.279  1.00  0.00     0.166 HD
HETATM   21  C16 UNL     1       7.899   0.262  52.042  1.00  0.00     0.131 A
HETATM   22  N4  UNL     1       7.047   1.125  52.678  1.00  0.00    -0.345 N
HETATM   23  C21 UNL     1       5.735   1.184  52.448  1.00  0.00     0.007 A
ATOM     24  H4  UNL     1       7.441   1.763  53.369  1.00  0.00     0.167 HD
HETATM   25  C22 UNL     1       4.853   2.158  53.182  1.00  0.00     0.068 C
HETATM   26  C23 UNL     1       5.178   0.333  51.519  1.00  0.00     0.039 A
BRANCH  21  27
HETATM   27  N3  UNL     1       9.271   0.285  52.336  1.00  0.00    -0.366 N
BRANCH  27  28
HETATM   28  C17 UNL     1      10.336   0.887  51.583  1.00  0.00     0.120 C
HETATM   29  C18 UNL     1      11.203  -0.057  50.813  1.00  0.00     0.026 C
ENDBRANCH  27  28
BRANCH  27  30
HETATM   30  C19 UNL     1       9.693  -0.353  53.597  1.00  0.00     0.120 C
HETATM   31  C20 UNL     1       9.533  -1.845  53.548  1.00  0.00     0.026 C
ENDBRANCH  27  30
ENDBRANCH  21  27
ENDBRANCH   9  10
ENDBRANCH   4   9
ENDBRANCH   3   4
TORSDOF 8
ENDMDL