MODEL 3
REMARK VINA RESULT: -7.163502095      1.528      2.200
REMARK  12 active torsions:
REMARK  status: ('A' for Active; 'I' for Inactive)
REMARK    1  A    between atoms: C2_2  and  C4_4
REMARK    2  A    between atoms: C4_4  and  C5_5
REMARK    3  A    between atoms: C5_5  and  O1_6
REMARK    4  A    between atoms: C5_5  and  C17_22
REMARK    5  A    between atoms: O1_6  and  C6_7
REMARK       I    between atoms: C6_7  and  N1_9
REMARK    6  A    between atoms: N1_9  and  C7_11
REMARK    7  A    between atoms: C7_11  and  C8_12
REMARK    8  A    between atoms: C7_11  and  C11_15
REMARK    9  A    between atoms: C11_15  and  C14_18
REMARK   10  A    between atoms: C14_18  and  S1_19
REMARK   11  A    between atoms: C17_22  and  O3_23
REMARK   12  A    between atoms: C17_22  and  N2_25
ROOT
HETATM    1  C6  UNL     1       8.140  -2.654  48.704  1.00  0.00     0.361 C
HETATM    2  O2  UNL     1       8.146  -1.460  48.277  1.00  0.00    -0.238 OA
HETATM    3  N1  UNL     1       7.287  -3.151  49.675  1.00  0.00    -0.331 N
ATOM      4  H1  UNL     1       7.394  -4.135  49.922  1.00  0.00     0.165 HD
ENDROOT
BRANCH   1   5
HETATM    5  O1  UNL     1       9.084  -3.480  48.117  1.00  0.00    -0.290 OA
BRANCH   5   6
HETATM    6  C5  UNL     1       9.901  -2.999  46.987  1.00  0.00     0.208 C
BRANCH   6   7
HETATM    7  C4  UNL     1      11.329  -3.100  47.488  1.00  0.00     0.045 C
BRANCH   7   8
HETATM    8  C2  UNL     1      11.996  -1.871  47.953  1.00  0.00    -0.020 C
HETATM    9  C1  UNL     1      11.687  -1.539  49.408  1.00  0.00     0.009 C
HETATM   10  C3  UNL     1      13.528  -2.001  47.906  1.00  0.00     0.009 C
ENDBRANCH   7   8
ENDBRANCH   6   7
BRANCH   6  11
HETATM   11  C17 UNL     1       9.610  -3.872  45.842  1.00  0.00     0.144 C
BRANCH  11  12
HETATM   12  O3  UNL     1       8.921  -3.266  44.914  1.00  0.00    -0.347 OA
ATOM     13  H3  UNL     1       9.471  -2.922  44.220  1.00  0.00     0.219 HD
ENDBRANCH  11  12
BRANCH  11  14
HETATM   14  N2  UNL     1       9.919  -5.188  45.555  1.00  0.00    -0.363 N
HETATM   15  C18 UNL     1      11.218  -5.604  44.936  1.00  0.00     0.124 C
HETATM   16  C19 UNL     1      10.770  -6.660  43.928  1.00  0.00     0.021 C
HETATM   17  C20 UNL     1       9.377  -7.075  44.353  1.00  0.00     0.021 C
HETATM   18  C21 UNL     1       9.289  -6.470  45.752  1.00  0.00     0.124 C
ENDBRANCH  11  14
ENDBRANCH   6  11
ENDBRANCH   5   6
ENDBRANCH   1   5
BRANCH   3  19
HETATM   19  C7  UNL     1       6.240  -2.395  50.384  1.00  0.00     0.102 C
BRANCH  19  20
HETATM   20  C8  UNL     1       4.891  -2.929  50.051  1.00  0.00     0.001 C
HETATM   21  C9  UNL     1       3.969  -1.906  49.467  1.00  0.00     0.011 C
HETATM   22  C10 UNL     1       4.932  -4.077  49.063  1.00  0.00     0.011 C
ENDBRANCH  19  20
BRANCH  19  23
HETATM   23  C11 UNL     1       6.677  -2.414  51.794  1.00  0.00    -0.004 C
HETATM   24  C12 UNL     1       7.831  -3.423  51.991  1.00  0.00     0.021 C
HETATM   25  C13 UNL     1       7.468  -1.078  52.003  1.00  0.00     0.021 C
BRANCH  23  26
HETATM   26  C14 UNL     1       5.759  -2.539  52.909  1.00  0.00     0.018 C
BRANCH  26  27
HETATM   27  S1  UNL     1       5.296  -1.084  53.796  1.00  0.00    -0.208 SA
HETATM   28  C15 UNL     1       3.881  -0.360  52.935  1.00  0.00     0.082 C
HETATM   29  C16 UNL     1       4.755  -1.373  55.448  1.00  0.00     0.082 C
ENDBRANCH  26  27
ENDBRANCH  23  26
ENDBRANCH  19  23
ENDBRANCH   3  19
TORSDOF 12
ENDMDL