MODEL 2
REMARK VINA RESULT: -9.214819223      1.739      2.717
REMARK  9 active torsions:
REMARK  status: ('A' for Active; 'I' for Inactive)
REMARK    1  A    between atoms: C2_2  and  C3_3
REMARK    2  A    between atoms: C3_3  and  C4_4
REMARK    3  A    between atoms: C4_4  and  C5_5
REMARK    4  A    between atoms: C5_5  and  C6_6
REMARK    5  A    between atoms: C6_6  and  C7_7
REMARK    6  A    between atoms: C7_7  and  C8_8
REMARK    7  A    between atoms: C8_8  and  N1_9
REMARK       I    between atoms: N2_19  and  C17_21
REMARK    8  A    between atoms: C17_21  and  C18_23
REMARK    9  A    between atoms: C18_23  and  N3_24
ROOT
HETATM    1  C1  UNL     1      10.040  -9.963  42.446  1.00  0.00     0.063 C
HETATM    2  C2  UNL     1      10.620  -8.712  41.864  1.00  0.00    -0.014 C
HETATM    3  N2  UNL     1      10.308  -7.572  42.365  1.00  0.00    -0.333 N
ATOM      4  H2  UNL     1      10.709  -6.726  41.960  1.00  0.00     0.168 HD
HETATM    5  C17 UNL     1       9.434  -7.456  43.452  1.00  0.00     0.258 C
HETATM    6  O2  UNL     1       8.233  -7.800  43.346  1.00  0.00    -0.270 OA
ENDROOT
BRANCH   2   7
HETATM    7  C3  UNL     1      11.545  -8.758  40.720  1.00  0.00     0.052 C
BRANCH   7   8
HETATM    8  C4  UNL     1      10.830  -8.963  39.384  1.00  0.00     0.006 C
BRANCH   8   9
HETATM    9  C5  UNL     1      11.774  -8.476  38.329  1.00  0.00     0.000 C
BRANCH   9  10
HETATM   10  C6  UNL     1      11.476  -8.964  36.953  1.00  0.00     0.002 C
BRANCH  10  11
HETATM   11  C7  UNL     1      10.180  -9.709  36.843  1.00  0.00     0.020 C
BRANCH  11  12
HETATM   12  C8  UNL     1       9.876 -10.103  35.408  1.00  0.00     0.123 C
BRANCH  12  13
HETATM   13  N1  UNL     1       8.758 -10.999  35.337  1.00  0.00    -0.382 N
HETATM   14  C9  UNL     1       8.639 -12.077  35.995  1.00  0.00    -0.004 C
HETATM   15  C10 UNL     1       9.291 -12.958  36.986  1.00  0.00     0.060 C
HETATM   16  C13 UNL     1       7.350 -12.768  35.675  1.00  0.00     0.102 C
HETATM   17  C11 UNL     1       8.957 -14.346  36.451  1.00  0.00     0.085 C
HETATM   18  C12 UNL     1       7.831 -14.156  35.506  1.00  0.00     0.137 C
HETATM   19  O1  UNL     1       7.388 -14.982  34.742  1.00  0.00    -0.297 OA
HETATM   20  C14 UNL     1       6.904 -12.111  34.392  1.00  0.00     0.042 C
HETATM   21  C15 UNL     1       7.623 -10.781  34.491  1.00  0.00     0.081 C
HETATM   22  C16 UNL     1       6.694  -9.827  35.210  1.00  0.00     0.032 C
ENDBRANCH  12  13
ENDBRANCH  11  12
ENDBRANCH  10  11
ENDBRANCH   9  10
ENDBRANCH   8   9
ENDBRANCH   7   8
ENDBRANCH   2   7
BRANCH   5  23
HETATM   23  C18 UNL     1       9.838  -6.926  44.805  1.00  0.00     0.203 C
HETATM   24  C19 UNL     1      10.137  -5.460  44.600  1.00  0.00     0.049 C
HETATM   25  C20 UNL     1      10.287  -4.879  46.012  1.00  0.00     0.003 C
HETATM   26  C21 UNL     1       8.871  -4.781  46.530  1.00  0.00     0.000 C
HETATM   27  C22 UNL     1       8.103  -6.041  46.417  1.00  0.00     0.003 C
HETATM   28  C23 UNL     1       8.812  -7.205  45.830  1.00  0.00     0.049 C
BRANCH  23  29
HETATM   29  N3  UNL     1      11.114  -7.558  45.104  1.00  0.00    -0.061 N
ATOM     30  H33 UNL     1      11.041  -8.344  45.749  1.00  0.00     0.275 HD
ATOM     31  H32 UNL     1      11.505  -8.082  44.321  1.00  0.00     0.275 HD
ATOM     32  H31 UNL     1      11.718  -6.807  45.437  1.00  0.00     0.275 HD
ENDBRANCH  23  29
ENDBRANCH   5  23
TORSDOF 9
ENDMDL