MODEL 1
REMARK VINA RESULT: -7.277410208      0.000      0.000
REMARK  11 active torsions:
REMARK  status: ('A' for Active; 'I' for Inactive)
REMARK    1  A    between atoms: C2_2  and  N1_3
REMARK    2  A    between atoms: N1_3  and  C3_4
REMARK    3  A    between atoms: N1_3  and  C5_6
REMARK    4  A    between atoms: C5_6  and  O1_7
REMARK    5  A    between atoms: C5_6  and  C6_9
REMARK    6  A    between atoms: C6_9  and  N2_10
REMARK    7  A    between atoms: N2_10  and  C7_12
REMARK    8  A    between atoms: C7_12  and  O2_13
REMARK    9  A    between atoms: C7_12  and  C8_15
REMARK   10  A    between atoms: C9_16  and  C10_17
REMARK   11  A    between atoms: C10_17  and  O3_18
ROOT
HETATM    1  C7  UNL     1       8.237  -0.896  50.386  1.00  0.00     0.143 C
ENDROOT
BRANCH   1   2
HETATM    2  N2  UNL     1       7.808  -1.018  51.678  1.00  0.00    -0.354 N
ATOM      3  H2  UNL     1       7.841  -0.184  52.264  1.00  0.00     0.162 HD
BRANCH   2   4
HETATM    4  C6  UNL     1       7.298  -2.270  52.295  1.00  0.00     0.097 C
HETATM    5  C21 UNL     1       7.267  -2.171  53.758  1.00  0.00     0.040 C
HETATM    6  C22 UNL     1       8.803  -2.152  54.123  1.00  0.00     0.003 C
HETATM    7  C23 UNL     1       9.357  -3.184  53.167  1.00  0.00     0.003 C
HETATM    8  C24 UNL     1       8.396  -3.313  52.006  1.00  0.00     0.040 C
BRANCH   4   9
HETATM    9  C5  UNL     1       6.070  -2.679  51.637  1.00  0.00     0.142 C
BRANCH   9  10
HETATM   10  N1  UNL     1       4.949  -1.971  51.217  1.00  0.00    -0.364 N
BRANCH  10  11
HETATM   11  C2  UNL     1       4.622  -2.050  49.761  1.00  0.00     0.120 C
HETATM   12  C1  UNL     1       3.255  -2.612  49.548  1.00  0.00     0.026 C
ENDBRANCH  10  11
BRANCH  10  13
HETATM   13  C3  UNL     1       4.072  -1.142  51.963  1.00  0.00     0.120 C
HETATM   14  C4  UNL     1       4.468   0.335  51.977  1.00  0.00     0.026 C
ENDBRANCH  10  13
ENDBRANCH   9  10
BRANCH   9  15
HETATM   15  O1  UNL     1       5.973  -3.987  51.380  1.00  0.00    -0.348 OA
ATOM     16  H1  UNL     1       5.868  -4.168  50.453  1.00  0.00     0.219 HD
ENDBRANCH   9  15
ENDBRANCH   4   9
ENDBRANCH   2   4
ENDBRANCH   1   2
BRANCH   1  17
HETATM   17  O2  UNL     1       7.502   0.096  49.807  1.00  0.00    -0.346 OA
ATOM     18  H2  UNL     1       8.107   0.656  49.334  1.00  0.00     0.219 HD
ENDBRANCH   1  17
BRANCH   1  19
HETATM   19  C8  UNL     1       9.142  -1.395  49.413  1.00  0.00     0.001 C
HETATM   20  C9  UNL     1      10.444  -1.372  49.390  1.00  0.00    -0.027 C
HETATM   21  C12 UNL     1      11.531  -1.852  48.472  1.00  0.00    -0.012 C
HETATM   22  C13 UNL     1      11.328  -2.116  47.075  1.00  0.00     0.010 C
HETATM   23  C14 UNL     1      11.408  -3.546  46.594  1.00  0.00     0.013 C
HETATM   24  C19 UNL     1       9.942  -1.747  46.717  1.00  0.00     0.018 C
HETATM   25  C15 UNL     1      10.195  -4.346  46.775  1.00  0.00    -0.012 C
HETATM   26  C16 UNL     1       9.630  -3.944  48.106  1.00  0.00     0.014 C
HETATM   27  C20 UNL     1       8.854  -3.743  46.346  1.00  0.00     0.014 C
HETATM   28  C17 UNL     1       9.110  -2.754  47.412  1.00  0.00    -0.035 C
HETATM   29  C18 UNL     1       8.292  -2.047  48.279  1.00  0.00     0.053 C
BRANCH  20  30
HETATM   30  C10 UNL     1      11.071  -0.728  50.571  1.00  0.00     0.206 C
BRANCH  30  31
HETATM   31  O3  UNL     1      12.375  -0.293  50.179  1.00  0.00    -0.391 OA
HETATM   32  C11 UNL     1      12.954   0.358  51.255  1.00  0.00     0.201 C
ENDBRANCH  30  31
ENDBRANCH  20  30
ENDBRANCH   1  19
TORSDOF 11
ENDMDL