MODEL 3
REMARK VINA RESULT: -6.393377927      1.013      1.390
REMARK  4 active torsions:
REMARK  status: ('A' for Active; 'I' for Inactive)
REMARK    1  A    between atoms: C2_2  and  N1_3
REMARK    2  A    between atoms: C8_9  and  C9_10
REMARK    3  A    between atoms: C9_10  and  N2_11
REMARK    4  A    between atoms: N2_11  and  C10_13
ROOT
HETATM    1  C9  UNL     1      20.040   4.570  60.485  1.00  0.00     0.118 C
ENDROOT
BRANCH   1   2
HETATM    2  C8  UNL     1      20.953   4.901  59.406  1.00  0.00     0.056 A
HETATM    3  N1  UNL     1      22.270   4.845  59.194  1.00  0.00    -0.350 N
HETATM    4  C3  UNL     1      22.532   4.978  57.856  1.00  0.00     0.008 A
HETATM    5  C4  UNL     1      23.876   4.885  57.163  1.00  0.00     0.068 C
HETATM    6  C5  UNL     1      21.337   5.129  57.215  1.00  0.00     0.033 A
HETATM    7  C6  UNL     1      20.343   5.088  58.127  1.00  0.00    -0.032 A
HETATM    8  C7  UNL     1      18.845   5.141  57.869  1.00  0.00     0.050 C
BRANCH   3   9
HETATM    9  C2  UNL     1      23.315   4.425  60.097  1.00  0.00     0.124 C
HETATM   10  C1  UNL     1      23.435   2.957  60.323  1.00  0.00     0.027 C
ENDBRANCH   3   9
ENDBRANCH   1   2
BRANCH   1  11
HETATM   11  N2  UNL     1      20.421   4.342  61.821  1.00  0.00    -0.363 N
ATOM     12  H2  UNL     1      21.204   4.830  62.257  1.00  0.00     0.165 HD
BRANCH  11  13
HETATM   13  C10 UNL     1      19.596   3.334  62.556  1.00  0.00     0.047 A
HETATM   14  C11 UNL     1      20.069   2.736  63.686  1.00  0.00     0.032 A
HETATM   15  C12 UNL     1      19.276   1.809  64.394  1.00  0.00     0.019 A
HETATM   16  C13 UNL     1      18.015   1.528  63.921  1.00  0.00     0.088 A
HETATM   17  N3  UNL     1      17.550   2.109  62.820  1.00  0.00    -0.373 N
HETATM   18  C14 UNL     1      18.343   2.989  62.164  1.00  0.00     0.117 A
ATOM     19  H3  UNL     1      16.613   1.897  62.475  1.00  0.00     0.164 HD
ENDBRANCH  11  13
ENDBRANCH   1  11
TORSDOF 4
ENDMDL