MODEL 3
REMARK VINA RESULT: -7.238553512      1.955      6.630
REMARK  4 active torsions:
REMARK  status: ('A' for Active; 'I' for Inactive)
REMARK    1  A    between atoms: C5_5  and  C6_6
REMARK    2  A    between atoms: C6_6  and  N2_9
REMARK    3  A    between atoms: N2_9  and  C8_12
REMARK    4  A    between atoms: C8_12  and  C9_13
ROOT
HETATM    1  C6  UNL     1      20.189   4.624  60.743  1.00  0.00     0.325 C
HETATM    2  C7  UNL     1      21.026   4.730  61.941  1.00  0.00     0.097 C
HETATM    3  N1  UNL     1      21.674   4.806  62.903  1.00  0.00    -0.195 NA
ENDROOT
BRANCH   1   4
HETATM    4  C5  UNL     1      21.064   4.768  59.550  1.00  0.00    -0.014 A
HETATM    5  C4  UNL     1      22.450   4.617  59.664  1.00  0.00     0.011 A
HETATM    6  C3  UNL     1      23.270   4.748  58.563  1.00  0.00     0.007 A
HETATM    7  C2  UNL     1      22.775   5.030  57.318  1.00  0.00    -0.062 A
HETATM    8  C1  UNL     1      23.662   5.172  56.129  1.00  0.00     0.048 C
HETATM    9  C15 UNL     1      21.415   5.179  57.205  1.00  0.00     0.007 A
HETATM   10  C14 UNL     1      20.565   5.049  58.310  1.00  0.00     0.011 A
ENDBRANCH   1   4
BRANCH   1  11
HETATM   11  N2  UNL     1      19.569   3.319  60.679  1.00  0.00    -0.049 N
ATOM     12  H22 UNL     1      19.316   3.065  59.724  1.00  0.00     0.279 HD
ATOM     13  H21 UNL     1      20.238   2.571  60.862  1.00  0.00     0.279 HD
BRANCH  11  14
HETATM   14  C8  UNL     1      18.411   3.254  61.590  1.00  0.00     0.298 C
BRANCH  14  15
HETATM   15  C9  UNL     1      18.600   2.125  62.538  1.00  0.00     0.079 A
HETATM   16  C10 UNL     1      17.877   1.844  63.677  1.00  0.00     0.037 A
HETATM   17  C11 UNL     1      18.398   0.696  64.256  1.00  0.00     0.035 A
HETATM   18  C12 UNL     1      19.438   0.334  63.412  1.00  0.00     0.049 A
HETATM   19  C13 UNL     1      20.308  -0.858  63.625  1.00  0.00     0.076 C
HETATM   20  O1  UNL     1      19.527   1.190  62.418  1.00  0.00    -0.318 OA
ENDBRANCH  14  15
ENDBRANCH  11  14
ENDBRANCH   1  11
TORSDOF 4
ENDMDL