MODEL 4
REMARK VINA RESULT: -6.799721279      1.234      1.483
REMARK  5 active torsions:
REMARK  status: ('A' for Active; 'I' for Inactive)
REMARK    1  A    between atoms: O1_1  and  C1_3
REMARK    2  A    between atoms: C1_3  and  C2_4
REMARK    3  A    between atoms: C6_10  and  C7_11
REMARK    4  A    between atoms: C7_11  and  S1_12
REMARK    5  A    between atoms: S1_12  and  C8_13
ROOT
HETATM    1  C2  UNL     1      18.261   1.896  62.240  1.00  0.00     0.040 A
HETATM    2  N1  UNL     1      17.458   1.775  63.288  1.00  0.00    -0.367 N
ATOM      3  H1  UNL     1      16.474   2.027  63.192  1.00  0.00     0.165 HD
HETATM    4  C3  UNL     1      17.918   1.314  64.513  1.00  0.00     0.088 A
HETATM    5  C4  UNL     1      19.274   0.964  64.672  1.00  0.00     0.018 A
HETATM    6  C5  UNL     1      20.073   1.096  63.563  1.00  0.00     0.011 A
HETATM    7  C6  UNL     1      19.616   1.537  62.364  1.00  0.00    -0.024 A
ENDROOT
BRANCH   7   8
HETATM    8  C7  UNL     1      20.350   1.390  61.073  1.00  0.00     0.120 C
BRANCH   8   9
HETATM    9  S1  UNL     1      21.926   2.154  60.940  1.00  0.00    -0.125 SA
BRANCH   9  10
HETATM   10  C8  UNL     1      21.886   3.088  59.340  1.00  0.00     0.000 A
HETATM   11  C9  UNL     1      21.290   2.472  58.304  1.00  0.00     0.018 A
HETATM   12  C10 UNL     1      21.155   3.152  57.081  1.00  0.00     0.001 A
HETATM   13  C11 UNL     1      21.621   4.457  57.010  1.00  0.00     0.000 A
HETATM   14  C12 UNL     1      22.228   5.066  58.106  1.00  0.00     0.001 A
HETATM   15  C13 UNL     1      22.365   4.351  59.277  1.00  0.00     0.018 A
ENDBRANCH   9  10
ENDBRANCH   8   9
ENDBRANCH   7   8
BRANCH   1  16
HETATM   16  C1  UNL     1      17.896   2.516  60.935  1.00  0.00     0.221 C
BRANCH  16  17
HETATM   17  O1  UNL     1      16.596   2.352  60.596  1.00  0.00    -0.395 OA
ATOM     18  H1  UNL     1      16.236   3.074  60.094  1.00  0.00     0.209 HD
ENDBRANCH  16  17
ENDBRANCH   1  16
TORSDOF 5
ENDMDL