MODEL 3
REMARK VINA RESULT: -6.146424217      1.023      1.174
REMARK  4 active torsions:
REMARK  status: ('A' for Active; 'I' for Inactive)
REMARK    1  A    between atoms: N1_2  and  C3_4
REMARK    2  A    between atoms: C3_4  and  C4_5
REMARK    3  A    between atoms: C8_11  and  N3_12
REMARK    4  A    between atoms: N3_12  and  C9_14
ROOT
HETATM    1  C4  UNL     1      21.289   2.678  63.008  1.00  0.00     0.012 A
HETATM    2  C5  UNL     1      22.234   2.075  63.796  1.00  0.00     0.098 A
HETATM    3  N2  UNL     1      23.418   2.687  64.043  1.00  0.00    -0.375 N
ATOM      4  H2  UNL     1      24.111   2.224  64.631  1.00  0.00     0.164 HD
HETATM    5  C6  UNL     1      23.688   3.890  63.525  1.00  0.00     0.090 A
HETATM    6  C7  UNL     1      22.778   4.560  62.718  1.00  0.00     0.047 A
HETATM    7  C8  UNL     1      21.572   3.940  62.466  1.00  0.00     0.043 A
ENDROOT
BRANCH   7   8
HETATM    8  N3  UNL     1      20.603   4.547  61.623  1.00  0.00    -0.356 N
ATOM      9  H3  UNL     1      19.746   4.871  62.071  1.00  0.00     0.166 HD
BRANCH   8  10
HETATM   10  C9  UNL     1      20.704   4.747  60.231  1.00  0.00     0.032 A
HETATM   11  C10 UNL     1      21.881   4.764  59.551  1.00  0.00     0.029 A
HETATM   12  C11 UNL     1      21.954   4.943  58.174  1.00  0.00     0.002 A
HETATM   13  C12 UNL     1      20.771   5.109  57.490  1.00  0.00     0.000 A
HETATM   14  C13 UNL     1      19.566   5.096  58.156  1.00  0.00     0.002 A
HETATM   15  C14 UNL     1      19.525   4.917  59.519  1.00  0.00     0.029 A
ENDBRANCH   8  10
ENDBRANCH   7   8
BRANCH   1  16
HETATM   16  C3  UNL     1      19.974   2.073  62.706  1.00  0.00     0.313 C
BRANCH  16  17
HETATM   17  N1  UNL     1      19.411   1.273  63.748  1.00  0.00     0.084 N
HETATM   18  C1  UNL     1      18.036   1.803  63.919  1.00  0.00     0.309 C
HETATM   19  C2  UNL     1      19.237  -0.101  63.249  1.00  0.00     0.309 C
ENDBRANCH  16  17
ENDBRANCH   1  16
TORSDOF 4
ENDMDL