MODEL 1
REMARK VINA RESULT: -7.587361800      0.000      0.000
REMARK  5 active torsions:
REMARK  status: ('A' for Active; 'I' for Inactive)
REMARK    1  A    between atoms: C5_5  and  C6_6
REMARK    2  A    between atoms: C6_6  and  C7_7
REMARK    3  A    between atoms: C7_7  and  C8_8
REMARK    4  A    between atoms: C8_8  and  C9_9
REMARK    5  A    between atoms: N2_16  and  O1_18
ROOT
HETATM    1  C6  UNL     1      18.519   3.204  60.508  1.00  0.00     0.042 C
HETATM    2  N2  UNL     1      17.491   2.538  60.107  1.00  0.00    -0.273 N
ATOM      3  H2  UNL     1      17.434   2.257  59.128  1.00  0.00     0.194 HD
ENDROOT
BRANCH   1   4
HETATM    4  C5  UNL     1      19.556   3.531  59.553  1.00  0.00    -0.012 A
HETATM    5  C4  UNL     1      19.660   4.841  59.063  1.00  0.00     0.014 A
HETATM    6  C3  UNL     1      20.596   5.229  58.140  1.00  0.00     0.007 A
HETATM    7  C2  UNL     1      21.502   4.321  57.639  1.00  0.00    -0.062 A
HETATM    8  C1  UNL     1      22.535   4.724  56.629  1.00  0.00     0.048 C
HETATM    9  C15 UNL     1      21.427   3.026  58.099  1.00  0.00     0.007 A
HETATM   10  C14 UNL     1      20.470   2.638  59.039  1.00  0.00     0.014 A
ENDBRANCH   1   4
BRANCH   1  11
HETATM   11  C7  UNL     1      18.562   3.640  61.908  1.00  0.00     0.064 C
BRANCH  11  12
HETATM   12  C8  UNL     1      19.802   3.289  62.657  1.00  0.00     0.046 C
BRANCH  12  13
HETATM   13  C9  UNL     1      19.737   1.853  63.096  1.00  0.00    -0.042 A
HETATM   14  C10 UNL     1      18.715   1.380  63.896  1.00  0.00     0.010 A
HETATM   15  C11 UNL     1      18.775   0.034  64.228  1.00  0.00     0.018 A
HETATM   16  C12 UNL     1      19.797  -0.778  63.782  1.00  0.00     0.087 A
HETATM   17  N1  UNL     1      20.775  -0.296  63.010  1.00  0.00    -0.375 N
HETATM   18  C13 UNL     1      20.743   1.016  62.669  1.00  0.00     0.094 A
ATOM     19  H1  UNL     1      21.529  -0.901  62.683  1.00  0.00     0.164 HD
ENDBRANCH  12  13
ENDBRANCH  11  12
ENDBRANCH   1  11
BRANCH   2  20
HETATM   20  O1  UNL     1      16.471   2.195  60.960  1.00  0.00    -0.290 OA
ATOM     21  H1  UNL     1      15.944   1.416  60.826  1.00  0.00     0.244 HD
ENDBRANCH   2  20
TORSDOF 5
ENDMDL