MODEL 1
REMARK VINA RESULT: -7.155582564      0.000      0.000
REMARK  4 active torsions:
REMARK  status: ('A' for Active; 'I' for Inactive)
REMARK    1  A    between atoms: C2_2  and  C4_4
REMARK    2  A    between atoms: C7_7  and  C8_8
REMARK    3  A    between atoms: N1_9  and  N2_11
REMARK    4  A    between atoms: C9_13  and  C10_14
ROOT
HETATM    1  C8  UNL     1      17.884   2.525  60.517  1.00  0.00     0.118 C
HETATM    2  N1  UNL     1      17.490   2.635  61.692  1.00  0.00    -0.311 N
ATOM      3  H1  UNL     1      16.615   2.135  61.848  1.00  0.00     0.186 HD
ENDROOT
BRANCH   2   4
HETATM    4  N2  UNL     1      17.911   3.229  62.777  1.00  0.00    -0.310 N
HETATM    5  C9  UNL     1      18.607   2.793  63.719  1.00  0.00     0.138 C
ATOM      6  H2  UNL     1      17.626   4.205  62.869  1.00  0.00     0.186 HD
BRANCH   5   7
HETATM    7  C10 UNL     1      19.113   1.438  63.780  1.00  0.00     0.065 A
HETATM    8  C11 UNL     1      18.643   0.302  64.396  1.00  0.00     0.119 A
HETATM    9  N3  UNL     1      19.467  -0.748  64.171  1.00  0.00    -0.360 N
HETATM   10  C12 UNL     1      20.461  -0.297  63.417  1.00  0.00     0.180 A
ATOM     11  H3  UNL     1      19.348  -1.701  64.515  1.00  0.00     0.166 HD
HETATM   12  N4  UNL     1      20.272   1.005  63.170  1.00  0.00    -0.350 N
ATOM     13  H4  UNL     1      20.894   1.590  62.613  1.00  0.00     0.166 HD
ENDBRANCH   5   7
ENDBRANCH   2   4
BRANCH   1  14
HETATM   14  C7  UNL     1      19.084   3.102  59.952  1.00  0.00    -0.019 A
HETATM   15  C6  UNL     1      20.274   2.422  59.871  1.00  0.00     0.013 A
HETATM   16  C5  UNL     1      21.418   3.016  59.315  1.00  0.00     0.008 A
HETATM   17  C4  UNL     1      21.389   4.290  58.835  1.00  0.00    -0.055 A
HETATM   18  C14 UNL     1      20.167   4.975  58.922  1.00  0.00     0.008 A
HETATM   19  C13 UNL     1      19.046   4.408  59.462  1.00  0.00     0.013 A
BRANCH  17  20
HETATM   20  C2  UNL     1      22.504   5.007  58.239  1.00  0.00     0.010 C
HETATM   21  C1  UNL     1      23.790   4.410  58.839  1.00  0.00     0.015 C
HETATM   22  C3  UNL     1      22.634   4.862  56.753  1.00  0.00     0.015 C
ENDBRANCH  17  20
ENDBRANCH   1  14
TORSDOF 4
ENDMDL