MODEL 1
REMARK VINA RESULT: -7.446122995      0.000      0.000
REMARK  4 active torsions:
REMARK  status: ('A' for Active; 'I' for Inactive)
REMARK    1  A    between atoms: C7_7  and  C8_8
REMARK    2  A    between atoms: C8_8  and  N1_9
REMARK    3  A    between atoms: N1_9  and  C9_12
REMARK    4  A    between atoms: C9_12  and  C10_13
ROOT
HETATM    1  N1  UNL     1      18.288   4.093  61.516  1.00  0.00    -0.066 N
ATOM      2  H11 UNL     1      17.784   4.737  60.906  1.00  0.00     0.277 HD
ATOM      3  H12 UNL     1      17.874   4.361  62.408  1.00  0.00     0.277 HD
ENDROOT
BRANCH   1   4
HETATM    4  C8  UNL     1      19.711   4.354  61.496  1.00  0.00     0.271 C
BRANCH   4   5
HETATM    5  C7  UNL     1      20.097   4.647  60.091  1.00  0.00    -0.032 A
HETATM    6  C6  UNL     1      21.425   4.634  59.670  1.00  0.00     0.015 A
HETATM    7  C4  UNL     1      21.720   4.914  58.357  1.00  0.00    -0.061 A
HETATM    8  C3  UNL     1      20.723   5.212  57.427  1.00  0.00     0.013 A
HETATM    9  C5  UNL     1      23.152   4.897  57.916  1.00  0.00     0.048 C
HETATM   10  C2  UNL     1      19.408   5.224  57.844  1.00  0.00    -0.061 A
HETATM   11  C1  UNL     1      18.339   5.541  56.861  1.00  0.00     0.048 C
HETATM   12  C14 UNL     1      19.127   4.944  59.156  1.00  0.00     0.015 A
ENDBRANCH   4   5
ENDBRANCH   1   4
BRANCH   1  13
HETATM   13  C9  UNL     1      17.989   2.713  61.187  1.00  0.00     0.291 C
BRANCH  13  14
HETATM   14  C10 UNL     1      18.273   1.877  62.373  1.00  0.00     0.060 A
HETATM   15  C11 UNL     1      19.243   0.916  62.532  1.00  0.00     0.063 A
HETATM   16  C12 UNL     1      19.108   0.407  63.830  1.00  0.00     0.074 A
HETATM   17  C13 UNL     1      19.957  -0.658  64.430  1.00  0.00     0.079 C
HETATM   18  O1  UNL     1      18.113   1.057  64.359  1.00  0.00    -0.243 OA
HETATM   19  N2  UNL     1      17.603   1.922  63.537  1.00  0.00    -0.264 N
ATOM     20  H2  UNL     1      16.817   2.539  63.742  1.00  0.00     0.194 HD
ENDBRANCH  13  14
ENDBRANCH   1  13
TORSDOF 4
ENDMDL