MODEL 1
REMARK VINA RESULT: -6.669317040      0.000      0.000
REMARK  4 active torsions:
REMARK  status: ('A' for Active; 'I' for Inactive)
REMARK    1  A    between atoms: C2_2  and  C3_3
REMARK    2  A    between atoms: C3_3  and  C4_4
REMARK    3  A    between atoms: C5_5  and  N1_6
REMARK    4  A    between atoms: C12_13  and  O1_14
ROOT
HETATM    1  N1  UNL     1      22.113  -0.218  65.594  1.00  0.00    -0.279 N
HETATM    2  C6  UNL     1      22.883  -0.353  64.503  1.00  0.00     0.118 A
HETATM    3  C7  UNL     1      22.199   0.072  63.384  1.00  0.00     0.051 A
HETATM    4  C8  UNL     1      20.967   0.475  63.847  1.00  0.00     0.060 A
HETATM    5  C9  UNL     1      19.899   1.003  63.028  1.00  0.00    -0.008 A
HETATM    6  C10 UNL     1      18.704   1.375  63.619  1.00  0.00     0.016 A
HETATM    7  C11 UNL     1      17.652   1.884  62.885  1.00  0.00     0.037 A
HETATM    8  C12 UNL     1      17.872   2.000  61.508  1.00  0.00     0.065 A
HETATM    9  C13 UNL     1      19.049   1.634  60.923  1.00  0.00     0.037 A
HETATM   10  C14 UNL     1      20.083   1.129  61.675  1.00  0.00     0.016 A
HETATM   11  N2  UNL     1      20.965   0.281  65.190  1.00  0.00    -0.294 N
ATOM     12  H2  UNL     1      20.178   0.494  65.804  1.00  0.00     0.187 HD
ENDROOT
BRANCH   1  13
HETATM   13  C5  UNL     1      22.443  -0.539  66.945  1.00  0.00     0.111 C
HETATM   14  C4  UNL     1      23.579  -1.096  67.263  1.00  0.00    -0.007 C
BRANCH  14  15
HETATM   15  C3  UNL     1      23.938  -1.434  68.652  1.00  0.00     0.028 C
BRANCH  15  16
HETATM   16  C2  UNL     1      24.794  -2.681  68.663  1.00  0.00    -0.001 C
HETATM   17  C1  UNL     1      25.294  -3.030  67.280  1.00  0.00     0.005 C
ENDBRANCH  15  16
ENDBRANCH  14  15
ENDBRANCH   1  13
BRANCH   8  18
HETATM   18  O1  UNL     1      16.825   2.509  60.766  1.00  0.00    -0.361 OA
ATOM     19  H1  UNL     1      16.892   2.408  59.824  1.00  0.00     0.217 HD
ENDBRANCH   8  18
TORSDOF 4
ENDMDL