MODEL 3
REMARK VINA RESULT: -7.580649470      1.072      1.219
REMARK  4 active torsions:
REMARK  status: ('A' for Active; 'I' for Inactive)
REMARK    1  A    between atoms: C5_7  and  N2_8
REMARK    2  A    between atoms: N2_8  and  C6_10
REMARK    3  A    between atoms: C6_10  and  C7_11
REMARK    4  A    between atoms: C10_14  and  C11_15
ROOT
HETATM    1  C11 UNL     1      20.318  -1.100  64.237  1.00  0.00     0.162 C
HETATM    2  C12 UNL     1      21.429  -0.540  65.012  1.00  0.00     0.063 C
HETATM    3  N3  UNL     1      22.319  -0.104  65.616  1.00  0.00    -0.197 NA
ENDROOT
BRANCH   1   4
HETATM    4  C10 UNL     1      19.669   0.025  63.515  1.00  0.00    -0.045 A
HETATM    5  C9  UNL     1      18.715   0.828  64.053  1.00  0.00     0.009 A
HETATM    6  C8  UNL     1      18.136   1.871  63.338  1.00  0.00     0.009 A
HETATM    7  C7  UNL     1      18.510   2.133  62.041  1.00  0.00    -0.041 A
HETATM    8  C14 UNL     1      19.492   1.293  61.510  1.00  0.00     0.009 A
HETATM    9  C13 UNL     1      20.066   0.262  62.217  1.00  0.00     0.009 A
BRANCH   7  10
HETATM   10  C6  UNL     1      17.950   3.223  61.209  1.00  0.00     0.159 C
BRANCH  10  11
HETATM   11  N2  UNL     1      18.785   4.386  61.129  1.00  0.00    -0.372 N
ATOM     12  H2  UNL     1      18.866   5.015  61.927  1.00  0.00     0.161 HD
BRANCH  11  13
HETATM   13  C5  UNL     1      19.508   4.658  59.915  1.00  0.00     0.101 A
HETATM   14  N1  UNL     1      18.869   4.953  58.770  1.00  0.00    -0.353 N
HETATM   15  C4  UNL     1      19.515   5.213  57.620  1.00  0.00     0.090 A
ATOM     16  H1  UNL     1      17.850   4.981  58.774  1.00  0.00     0.166 HD
HETATM   17  C3  UNL     1      20.894   5.180  57.596  1.00  0.00     0.024 A
HETATM   18  C2  UNL     1      21.602   4.887  58.729  1.00  0.00    -0.057 A
HETATM   19  C1  UNL     1      23.079   4.835  58.775  1.00  0.00     0.048 C
HETATM   20  C15 UNL     1      20.886   4.627  59.886  1.00  0.00     0.054 A
ENDBRANCH  11  13
ENDBRANCH  10  11
ENDBRANCH   7  10
ENDBRANCH   1   4
TORSDOF 4
ENDMDL