MODEL 1
REMARK VINA RESULT: -6.549367104      0.000      0.000
REMARK  5 active torsions:
REMARK  status: ('A' for Active; 'I' for Inactive)
REMARK    1  A    between atoms: C2_2  and  O1_3
REMARK    2  A    between atoms: C2_2  and  C3_5
REMARK    3  A    between atoms: C7_9  and  C8_10
REMARK    4  A    between atoms: C8_10  and  C9_11
REMARK    5  A    between atoms: C9_11  and  C10_12
ROOT
HETATM    1  C3  UNL     1      18.387   1.780  62.274  1.00  0.00     0.038 A
HETATM    2  C4  UNL     1      17.619   1.819  63.419  1.00  0.00     0.027 A
HETATM    3  C5  UNL     1      17.970   1.006  64.470  1.00  0.00     0.004 A
HETATM    4  C6  UNL     1      19.059   0.201  64.327  1.00  0.00     0.025 A
HETATM    5  C7  UNL     1      19.837   0.148  63.190  1.00  0.00     0.009 A
HETATM    6  N1  UNL     1      19.456   0.969  62.172  1.00  0.00    -0.361 N
ATOM      7  H1  UNL     1      19.997   0.970  61.308  1.00  0.00     0.165 HD
ENDROOT
BRANCH   5   8
HETATM    8  C8  UNL     1      21.020  -0.735  63.050  1.00  0.00     0.062 C
BRANCH   8   9
HETATM    9  C9  UNL     1      22.315  -0.090  63.433  1.00  0.00     0.052 C
BRANCH   9  10
HETATM   10  C10 UNL     1      22.817  -0.584  64.768  1.00  0.00    -0.017 A
HETATM   11  C11 UNL     1      22.239  -0.400  65.997  1.00  0.00     0.015 A
HETATM   12  C12 UNL     1      22.862  -0.929  67.054  1.00  0.00     0.008 A
HETATM   13  C13 UNL     1      24.025  -1.612  66.829  1.00  0.00     0.050 A
HETATM   14  S1  UNL     1      24.214  -1.492  65.138  1.00  0.00    -0.106 SA
ENDBRANCH   9  10
ENDBRANCH   8   9
ENDBRANCH   5   8
BRANCH   1  15
HETATM   15  C2  UNL     1      17.988   2.668  61.153  1.00  0.00     0.163 C
HETATM   16  C1  UNL     1      18.965   2.558  60.006  1.00  0.00     0.046 C
BRANCH  15  17
HETATM   17  O1  UNL     1      16.714   2.257  60.696  1.00  0.00    -0.390 OA
ATOM     18  H1  UNL     1      16.090   2.375  61.402  1.00  0.00     0.210 HD
ENDBRANCH  15  17
ENDBRANCH   1  15
TORSDOF 5
ENDMDL