MODEL 3
REMARK VINA RESULT: -5.933472026      1.019      4.680
REMARK  6 active torsions:
REMARK  status: ('A' for Active; 'I' for Inactive)
REMARK    1  A    between atoms: N1_1  and  C1_5
REMARK    2  A    between atoms: C1_5  and  C2_6
REMARK    3  A    between atoms: C2_6  and  N2_7
REMARK    4  A    between atoms: N2_7  and  C3_9
REMARK    5  A    between atoms: C4_12  and  N4_13
REMARK    6  A    between atoms: N4_13  and  N5_15
ROOT
HETATM    1  C3  UNL     1      16.678   6.328 -10.307  1.00  0.00     0.707 A
HETATM    2  N3  UNL     1      16.416   7.488  -9.684  1.00  0.00    -0.018 N
ATOM      3  H3  UNL     1      15.738   8.191  -9.979  1.00  0.00     0.203 HD
HETATM    4  C4  UNL     1      17.203   7.556  -8.608  1.00  0.00     0.726 A
HETATM    5  N6  UNL     1      17.935   6.426  -8.595  1.00  0.00    -0.116 N
ATOM      6  H6  UNL     1      18.631   6.192  -7.887  1.00  0.00     0.206 HD
HETATM    7  N7  UNL     1      17.627   5.662  -9.628  1.00  0.00    -0.117 N
ATOM      8  H7  UNL     1      18.028   4.753  -9.863  1.00  0.00     0.206 HD
ENDROOT
BRANCH   1   9
HETATM    9  N2  UNL     1      16.053   5.856 -11.508  1.00  0.00    -0.223 N
ATOM     10  H2  UNL     1      15.035   5.837 -11.575  1.00  0.00     0.177 HD
BRANCH   9  11
HETATM   11  C2  UNL     1      16.852   5.405 -12.626  1.00  0.00     0.165 C
BRANCH  11  12
HETATM   12  C1  UNL     1      17.681   6.558 -13.127  1.00  0.00     0.249 C
BRANCH  12  13
HETATM   13  N1  UNL     1      16.983   7.109 -14.288  1.00  0.00    -0.078 N
ATOM     14  H13 UNL     1      17.518   7.032 -15.153  1.00  0.00     0.274 HD
ATOM     15  H12 UNL     1      16.184   6.546 -14.581  1.00  0.00     0.274 HD
ATOM     16  H11 UNL     1      16.733   8.071 -14.055  1.00  0.00     0.274 HD
ENDBRANCH  12  13
ENDBRANCH  11  12
ENDBRANCH   9  11
ENDBRANCH   1   9
BRANCH   4  17
HETATM   17  N4  UNL     1      17.228   8.526  -7.771  1.00  0.00    -0.137 N
ATOM     18  H4  UNL     1      18.121   8.790  -7.355  1.00  0.00     0.205 HD
BRANCH  17  19
HETATM   19  N5  UNL     1      16.084   9.239  -7.404  1.00  0.00    -0.331 N
ATOM     20  H52 UNL     1      15.430   9.493  -8.143  1.00  0.00     0.177 HD
ATOM     21  H51 UNL     1      15.885   9.508  -6.440  1.00  0.00     0.177 HD
ENDBRANCH  17  19
ENDBRANCH   4  17
TORSDOF 6
ENDMDL