MODEL 4
REMARK VINA RESULT: -5.458980461      1.251      1.846
REMARK  5 active torsions:
REMARK  status: ('A' for Active; 'I' for Inactive)
REMARK    1  A    between atoms: N1_1  and  C1_4
REMARK    2  A    between atoms: C2_9  and  O1_10
REMARK    3  A    between atoms: O1_10  and  C3_11
REMARK    4  A    between atoms: C3_11  and  C4_12
REMARK    5  A    between atoms: C4_12  and  N4_13
ROOT
HETATM    1  C1  UNL     1      16.187   5.838 -11.455  1.00  0.00     0.693 A
HETATM    2  N2  UNL     1      17.142   6.463 -12.160  1.00  0.00    -0.129 N
ATOM      3  H2  UNL     1      17.165   6.572 -13.174  1.00  0.00     0.205 HD
HETATM    4  N3  UNL     1      18.046   6.910 -11.311  1.00  0.00    -0.250 N
ATOM      5  H3  UNL     1      18.888   7.426 -11.569  1.00  0.00     0.191 HD
HETATM    6  C2  UNL     1      17.692   6.583 -10.047  1.00  0.00     0.253 A
HETATM    7  N5  UNL     1      16.530   5.913 -10.135  1.00  0.00    -0.153 N
ATOM      8  H5  UNL     1      15.998   5.528  -9.355  1.00  0.00     0.188 HD
ENDROOT
BRANCH   6   9
HETATM    9  O1  UNL     1      18.378   6.872  -8.877  1.00  0.00    -0.319 OA
BRANCH   9  10
HETATM   10  C3  UNL     1      17.688   7.571  -7.846  1.00  0.00     0.206 C
BRANCH  10  11
HETATM   11  C4  UNL     1      16.895   8.723  -8.393  1.00  0.00     0.256 C
BRANCH  11  12
HETATM   12  N4  UNL     1      16.021   9.202  -7.339  1.00  0.00    -0.077 N
ATOM     13  H43 UNL     1      15.510  10.045  -7.601  1.00  0.00     0.274 HD
ATOM     14  H42 UNL     1      15.215   8.596  -7.187  1.00  0.00     0.274 HD
ATOM     15  H41 UNL     1      16.585   9.326  -6.498  1.00  0.00     0.274 HD
ENDBRANCH  11  12
ENDBRANCH  10  11
ENDBRANCH   9  10
ENDBRANCH   6   9
BRANCH   1  16
HETATM   16  N1  UNL     1      15.131   5.266 -11.927  1.00  0.00    -0.233 N
ATOM     17  H12 UNL     1      15.066   4.295 -12.230  1.00  0.00     0.174 HD
ATOM     18  H11 UNL     1      14.215   5.696 -12.064  1.00  0.00     0.174 HD
ENDBRANCH   1  16
TORSDOF 5
ENDMDL