MODEL 2
REMARK VINA RESULT: -4.842256062      0.957      3.154
REMARK  5 active torsions:
REMARK  status: ('A' for Active; 'I' for Inactive)
REMARK    1  A    between atoms: N1_1  and  C1_4
REMARK    2  A    between atoms: N4_10  and  N5_11
REMARK    3  A    between atoms: N5_11  and  N6_13
REMARK    4  A    between atoms: C3_16  and  N7_17
REMARK    5  A    between atoms: N7_17  and  O1_19
ROOT
HETATM    1  C1  UNL     1      17.224   5.965 -10.791  1.00  0.00     0.150 A
HETATM    2  N2  UNL     1      18.494   5.523 -10.801  1.00  0.00    -0.335 N
ATOM      3  H2  UNL     1      18.933   5.191  -9.943  1.00  0.00     0.168 HD
HETATM    4  C2  UNL     1      19.180   5.525 -11.966  1.00  0.00     0.201 A
HETATM    5  N3  UNL     1      18.585   5.969 -13.101  1.00  0.00    -0.272 N
ATOM      6  H3  UNL     1      19.122   5.962 -13.970  1.00  0.00     0.190 HD
HETATM    7  N4  UNL     1      17.341   6.411 -13.131  1.00  0.00    -0.159 N
HETATM    8  C3  UNL     1      16.658   6.406 -11.961  1.00  0.00     0.210 A
ENDROOT
BRANCH   7   9
HETATM    9  N5  UNL     1      16.754   6.862 -14.311  1.00  0.00    -0.226 N
ATOM     10  H5  UNL     1      15.783   6.625 -14.514  1.00  0.00     0.210 HD
BRANCH   9  11
HETATM   11  N6  UNL     1      17.481   7.634 -15.216  1.00  0.00    -0.329 N
ATOM     12  H62 UNL     1      18.479   7.453 -15.323  1.00  0.00     0.178 HD
ATOM     13  H61 UNL     1      17.023   8.365 -15.760  1.00  0.00     0.178 HD
ENDBRANCH   9  11
ENDBRANCH   7   9
BRANCH   8  14
HETATM   14  N7  UNL     1      15.324   6.877 -11.977  1.00  0.00    -0.247 N
ATOM     15  H7  UNL     1      15.098   7.849 -11.768  1.00  0.00     0.196 HD
BRANCH  14  16
HETATM   16  O1  UNL     1      14.423   6.035 -12.263  1.00  0.00    -0.288 OA
ATOM     17  H1  UNL     1      13.523   6.303 -12.122  1.00  0.00     0.244 HD
ENDBRANCH  14  16
ENDBRANCH   8  14
BRANCH   1  18
HETATM   18  N1  UNL     1      16.549   5.973  -9.697  1.00  0.00    -0.382 N
ATOM     19  H12 UNL     1      15.632   5.530  -9.651  1.00  0.00     0.157 HD
ATOM     20  H11 UNL     1      16.927   6.423  -8.863  1.00  0.00     0.157 HD
ENDBRANCH   1  18
TORSDOF 5
ENDMDL