MODEL 5
REMARK VINA RESULT: -5.210887850      1.495      4.663
REMARK  6 active torsions:
REMARK  status: ('A' for Active; 'I' for Inactive)
REMARK    1  A    between atoms: N1_1  and  C1_5
REMARK    2  A    between atoms: C1_5  and  C2_6
REMARK    3  A    between atoms: C2_6  and  N2_7
REMARK    4  A    between atoms: C2_6  and  C3_11
REMARK    5  A    between atoms: C3_11  and  C4_12
REMARK    6  A    between atoms: C5_17  and  N5_18
ROOT
HETATM    1  C4  UNL     1      16.983   6.681 -10.588  1.00  0.00     0.305 C
HETATM    2  N3  UNL     1      16.432   7.557  -9.593  1.00  0.00    -0.307 N
ATOM      3  H3  UNL     1      15.687   8.234  -9.757  1.00  0.00     0.182 HD
HETATM    4  N4  UNL     1      17.004   7.367  -8.487  1.00  0.00    -0.286 N
ATOM      5  H4  UNL     1      16.791   7.867  -7.625  1.00  0.00     0.184 HD
HETATM    6  C5  UNL     1      18.001   6.341  -8.620  1.00  0.00     0.499 C
HETATM    7  N6  UNL     1      17.454   5.575  -9.752  1.00  0.00    -0.006 N
ATOM      8  H61 UNL     1      18.094   4.918 -10.198  1.00  0.00     0.284 HD
ATOM      9  H62 UNL     1      16.761   4.865  -9.518  1.00  0.00     0.284 HD
ENDROOT
BRANCH   1  10
HETATM   10  C3  UNL     1      15.946   6.218 -11.587  1.00  0.00     0.090 C
BRANCH  10  11
HETATM   11  C2  UNL     1      16.692   5.528 -12.709  1.00  0.00     0.212 C
BRANCH  11  12
HETATM   12  C1  UNL     1      17.450   6.516 -13.568  1.00  0.00     0.262 C
BRANCH  12  13
HETATM   13  N1  UNL     1      16.623   7.013 -14.625  1.00  0.00    -0.077 N
ATOM     14  H13 UNL     1      16.160   6.257 -15.128  1.00  0.00     0.274 HD
ATOM     15  H12 UNL     1      15.795   7.489 -14.265  1.00  0.00     0.274 HD
ATOM     16  H11 UNL     1      17.157   7.613 -15.254  1.00  0.00     0.274 HD
ENDBRANCH  12  13
ENDBRANCH  11  12
BRANCH  11  17
HETATM   17  N2  UNL     1      15.737   4.779 -13.474  1.00  0.00    -0.073 N
ATOM     18  H23 UNL     1      15.458   3.927 -12.987  1.00  0.00     0.274 HD
ATOM     19  H22 UNL     1      14.833   5.251 -13.503  1.00  0.00     0.274 HD
ATOM     20  H21 UNL     1      16.079   4.575 -14.412  1.00  0.00     0.274 HD
ENDBRANCH  11  17
ENDBRANCH  10  11
ENDBRANCH   1  10
BRANCH   6  21
HETATM   21  N5  UNL     1      18.159   5.542  -7.447  1.00  0.00    -0.031 N
ATOM     22  H53 UNL     1      18.849   4.808  -7.602  1.00  0.00     0.279 HD
ATOM     23  H52 UNL     1      18.633   6.069  -6.713  1.00  0.00     0.279 HD
ATOM     24  H51 UNL     1      17.285   5.148  -7.101  1.00  0.00     0.279 HD
ENDBRANCH   6  21
TORSDOF 6
ENDMDL