MODEL 5
REMARK VINA RESULT: -4.916924384      1.710      1.872
REMARK  5 active torsions:
REMARK  status: ('A' for Active; 'I' for Inactive)
REMARK    1  A    between atoms: N1_1  and  O1_4
REMARK    2  A    between atoms: O1_4  and  C1_5
REMARK    3  A    between atoms: C1_5  and  C2_6
REMARK    4  A    between atoms: C2_6  and  C3_7
REMARK    5  A    between atoms: C4_10  and  N4_11
ROOT
HETATM    1  C3  UNL     1      17.869   5.504 -10.816  1.00  0.00     0.236 C
HETATM    2  N2  UNL     1      16.531   6.062 -10.785  1.00  0.00    -0.112 NA
HETATM    3  N3  UNL     1      16.652   7.039  -9.805  1.00  0.00    -0.086 NA
HETATM    4  C4  UNL     1      17.470   6.409  -8.814  1.00  0.00     0.433 C
HETATM    5  O2  UNL     1      18.236   5.463  -9.492  1.00  0.00    -0.323 OA
ENDROOT
BRANCH   1   6
HETATM    6  C2  UNL     1      18.785   6.453 -11.575  1.00  0.00     0.079 C
BRANCH   6   7
HETATM    7  C1  UNL     1      18.852   6.088 -13.035  1.00  0.00     0.204 C
BRANCH   7   8
HETATM    8  O1  UNL     1      18.252   7.067 -13.785  1.00  0.00    -0.287 OA
BRANCH   8   9
HETATM    9  N1  UNL     1      16.926   6.924 -13.893  1.00  0.00    -0.311 N
ATOM     10  H12 UNL     1      16.440   6.086 -13.573  1.00  0.00     0.184 HD
ATOM     11  H11 UNL     1      16.461   7.725 -14.319  1.00  0.00     0.184 HD
ENDBRANCH   8   9
ENDBRANCH   7   8
ENDBRANCH   6   7
ENDBRANCH   1   6
BRANCH   4  12
HETATM   12  N4  UNL     1      18.286   7.421  -8.188  1.00  0.00    -0.037 N
ATOM     13  H43 UNL     1      18.025   7.588  -7.216  1.00  0.00     0.279 HD
ATOM     14  H42 UNL     1      19.243   7.107  -8.025  1.00  0.00     0.279 HD
ATOM     15  H41 UNL     1      18.242   8.266  -8.757  1.00  0.00     0.279 HD
ENDBRANCH   4  12
TORSDOF 5
ENDMDL