MODEL 3
REMARK VINA RESULT: -5.135590217      3.097      4.388
REMARK  4 active torsions:
REMARK  status: ('A' for Active; 'I' for Inactive)
REMARK    1  A    between atoms: O1_2  and  C2_3
REMARK    2  A    between atoms: C2_3  and  C3_4
REMARK    3  A    between atoms: C3_4  and  O2_5
REMARK    4  A    between atoms: O2_5  and  C4_6
ROOT
HETATM    1  C4  UNL     1      16.902   6.152  -9.645  1.00  0.00     0.345 C
HETATM    2  N1  UNL     1      17.318   7.476  -9.252  1.00  0.00    -0.078 NA
HETATM    3  N2  UNL     1      17.989   7.223  -8.049  1.00  0.00    -0.017 NA
HETATM    4  N3  UNL     1      18.409   5.910  -8.068  1.00  0.00    -0.017 NA
HETATM    5  N4  UNL     1      18.138   5.406  -9.362  1.00  0.00    -0.078 NA
ENDROOT
BRANCH   1   6
HETATM    6  O2  UNL     1      16.500   6.040 -10.940  1.00  0.00    -0.351 OA
BRANCH   6   7
HETATM    7  C3  UNL     1      17.506   5.669 -11.812  1.00  0.00     0.197 C
BRANCH   7   8
HETATM    8  C2  UNL     1      17.422   6.420 -13.128  1.00  0.00     0.193 C
BRANCH   8   9
HETATM    9  O1  UNL     1      18.727   6.758 -13.480  1.00  0.00    -0.394 OA
HETATM   10  C1  UNL     1      19.660   6.002 -12.769  1.00  0.00     0.201 C
ENDBRANCH   8   9
ENDBRANCH   7   8
ENDBRANCH   6   7
ENDBRANCH   1   6
TORSDOF 4
ENDMDL