MODEL 2
REMARK VINA RESULT: -5.929141933      0.805      1.352
REMARK  4 active torsions:
REMARK  status: ('A' for Active; 'I' for Inactive)
REMARK    1  A    between atoms: N1_1  and  C1_5
REMARK    2  A    between atoms: C1_5  and  C2_6
REMARK    3  A    between atoms: C2_6  and  C3_7
REMARK    4  A    between atoms: C3_7  and  N2_8
ROOT
HETATM    1  N2  UNL     1      17.883   6.263 -10.541  1.00  0.00    -0.360 N
ATOM      2  H2  UNL     1      18.843   6.520 -10.769  1.00  0.00     0.162 HD
HETATM    3  C4  UNL     1      17.022   5.991 -11.469  1.00  0.00     0.205 C
HETATM    4  N3  UNL     1      17.236   6.000 -12.888  1.00  0.00    -0.256 N
ATOM      5  H3  UNL     1      18.131   6.142 -13.358  1.00  0.00     0.187 HD
HETATM    6  N4  UNL     1      16.007   5.782 -13.514  1.00  0.00    -0.006 NA
HETATM    7  N5  UNL     1      15.165   5.196 -12.568  1.00  0.00    -0.006 NA
HETATM    8  N6  UNL     1      15.656   5.617 -11.326  1.00  0.00    -0.256 N
ATOM      9  H6  UNL     1      15.120   5.650 -10.458  1.00  0.00     0.187 HD
ENDROOT
BRANCH   1  10
HETATM   10  C3  UNL     1      17.433   6.187  -9.166  1.00  0.00     0.124 C
BRANCH  10  11
HETATM   11  C2  UNL     1      18.183   7.137  -8.274  1.00  0.00     0.047 C
BRANCH  11  12
HETATM   12  C1  UNL     1      17.348   8.283  -7.785  1.00  0.00     0.231 C
BRANCH  12  13
HETATM   13  N1  UNL     1      16.424   8.622  -8.866  1.00  0.00    -0.079 N
ATOM     14  H13 UNL     1      16.880   8.701  -9.775  1.00  0.00     0.274 HD
ATOM     15  H12 UNL     1      15.789   7.861  -9.107  1.00  0.00     0.274 HD
ATOM     16  H11 UNL     1      15.941   9.475  -8.582  1.00  0.00     0.274 HD
ENDBRANCH  12  13
ENDBRANCH  11  12
ENDBRANCH  10  11
ENDBRANCH   1  10
TORSDOF 4
ENDMDL