MODEL 2
REMARK VINA RESULT: -5.440945512      1.655      4.654
REMARK  6 active torsions:
REMARK  status: ('A' for Active; 'I' for Inactive)
REMARK    1  A    between atoms: N1_1  and  C1_4
REMARK    2  A    between atoms: C2_7  and  N3_8
REMARK    3  A    between atoms: N4_11  and  C3_12
REMARK    4  A    between atoms: C3_12  and  C4_13
REMARK    5  A    between atoms: C4_13  and  C5_14
REMARK    6  A    between atoms: C5_14  and  N5_15
ROOT
HETATM    1  C1  UNL     1      16.864   8.596  -8.305  1.00  0.00     0.705 A
HETATM    2  N2  UNL     1      17.658   7.768  -7.605  1.00  0.00    -0.020 N
ATOM      3  H2  UNL     1      18.099   7.961  -6.706  1.00  0.00     0.203 HD
HETATM    4  C2  UNL     1      17.759   6.630  -8.324  1.00  0.00     0.707 A
HETATM    5  N4  UNL     1      17.038   6.733  -9.465  1.00  0.00    -0.109 N
HETATM    6  N6  UNL     1      16.505   7.943  -9.424  1.00  0.00    -0.115 N
ATOM      7  H6  UNL     1      15.899   8.330 -10.148  1.00  0.00     0.206 HD
ENDROOT
BRANCH   5   8
HETATM    8  C3  UNL     1      16.897   5.719 -10.494  1.00  0.00     0.170 C
BRANCH   8   9
HETATM    9  C4  UNL     1      17.838   5.965 -11.655  1.00  0.00     0.050 C
BRANCH   9  10
HETATM   10  C5  UNL     1      16.964   6.064 -12.902  1.00  0.00     0.231 C
BRANCH  10  11
HETATM   11  N5  UNL     1      17.468   7.027 -13.835  1.00  0.00    -0.079 N
ATOM     12  H53 UNL     1      17.753   7.886 -13.364  1.00  0.00     0.274 HD
ATOM     13  H52 UNL     1      18.372   6.741 -14.210  1.00  0.00     0.274 HD
ATOM     14  H51 UNL     1      16.802   7.219 -14.583  1.00  0.00     0.274 HD
ENDBRANCH  10  11
ENDBRANCH   9  10
ENDBRANCH   8   9
ENDBRANCH   5   8
BRANCH   4  15
HETATM   15  N3  UNL     1      18.432   5.551  -8.024  1.00  0.00    -0.233 N
ATOM     16  H32 UNL     1      18.761   5.364  -7.077  1.00  0.00     0.174 HD
ATOM     17  H31 UNL     1      18.707   4.793  -8.649  1.00  0.00     0.174 HD
ENDBRANCH   4  15
BRANCH   1  18
HETATM   18  N1  UNL     1      16.533   9.797  -7.931  1.00  0.00    -0.233 N
ATOM     19  H12 UNL     1      15.923  10.074  -7.162  1.00  0.00     0.174 HD
ATOM     20  H11 UNL     1      16.855  10.655  -8.379  1.00  0.00     0.174 HD
ENDBRANCH   1  18
TORSDOF 6
ENDMDL