MODEL 2
REMARK VINA RESULT: -6.100002547      2.114      4.676
REMARK  6 active torsions:
REMARK  status: ('A' for Active; 'I' for Inactive)
REMARK    1  A    between atoms: N1_1  and  C1_4
REMARK    2  A    between atoms: C2_10  and  N4_11
REMARK    3  A    between atoms: N4_11  and  N5_13
REMARK    4  A    between atoms: N5_13  and  C3_15
REMARK    5  A    between atoms: C3_15  and  N6_16
REMARK    6  A    between atoms: N6_16  and  N7_17
ROOT
HETATM    1  C1  UNL     1      17.067   6.136 -12.348  1.00  0.00     0.169 A
HETATM    2  N2  UNL     1      16.405   5.699 -13.446  1.00  0.00    -0.222 N
ATOM      3  H2  UNL     1      16.724   5.775 -14.411  1.00  0.00     0.198 HD
HETATM    4  O1  UNL     1      15.299   5.172 -13.051  1.00  0.00    -0.153 OA
HETATM    5  N3  UNL     1      15.187   5.233 -11.755  1.00  0.00    -0.221 N
ATOM      6  H3  UNL     1      14.401   4.884 -11.207  1.00  0.00     0.198 HD
HETATM    7  C2  UNL     1      16.289   5.838 -11.260  1.00  0.00     0.188 A
ENDROOT
BRANCH   7   8
HETATM    8  N4  UNL     1      16.460   6.039 -10.007  1.00  0.00    -0.284 N
ATOM      9  H4  UNL     1      16.353   5.245  -9.376  1.00  0.00     0.188 HD
BRANCH   8  10
HETATM   10  N5  UNL     1      16.783   7.276  -9.455  1.00  0.00    -0.318 N
ATOM     11  H5  UNL     1      16.310   8.126  -9.762  1.00  0.00     0.181 HD
BRANCH  10  12
HETATM   12  C3  UNL     1      17.820   7.323  -8.423  1.00  0.00     0.273 C
BRANCH  12  13
HETATM   13  N6  UNL     1      17.507   8.461  -7.585  1.00  0.00    -0.127 NA
BRANCH  13  14
HETATM   14  N7  UNL     1      16.234   8.950  -7.769  1.00  0.00    -0.347 N
ATOM     15  H72 UNL     1      15.404   8.432  -7.478  1.00  0.00     0.172 HD
ATOM     16  H71 UNL     1      16.206   9.865  -8.218  1.00  0.00     0.172 HD
ENDBRANCH  13  14
ENDBRANCH  12  13
ENDBRANCH  10  12
ENDBRANCH   8  10
ENDBRANCH   7   8
BRANCH   1  17
HETATM   17  N1  UNL     1      18.197   6.715 -12.296  1.00  0.00    -0.381 N
ATOM     18  H12 UNL     1      18.389   7.650 -12.655  1.00  0.00     0.157 HD
ATOM     19  H11 UNL     1      19.066   6.358 -11.902  1.00  0.00     0.157 HD
ENDBRANCH   1  17
TORSDOF 6
ENDMDL