MODEL 4
REMARK VINA RESULT: -6.758371032      2.889      8.118
REMARK  12 active torsions:
REMARK  status: ('A' for Active; 'I' for Inactive)
REMARK    1  A    between atoms: C2_5  and  N3_6
REMARK    2  A    between atoms: N3_6  and  C3_8
REMARK    3  A    between atoms: C3_8  and  O1_9
REMARK    4  A    between atoms: C3_8  and  C4_11
REMARK    5  A    between atoms: C4_11  and  S1_12
REMARK    6  A    between atoms: S1_12  and  C5_13
REMARK    7  A    between atoms: C7_21  and  O2_22
REMARK    8  A    between atoms: N7_27  and  N8_28
REMARK    9  A    between atoms: C10_31  and  N9_32
REMARK   10  A    between atoms: C11_35  and  O6_36
REMARK   11  A    between atoms: C12_38  and  N10_39
REMARK   12  A    between atoms: N10_39  and  N11_41
ROOT
HETATM    1  C3  UNL     1       1.125  12.182  53.443  1.00  0.00     0.228 C
ENDROOT
BRANCH   1   2
HETATM    2  N3  UNL     1       1.572  11.376  52.355  1.00  0.00    -0.346 N
ATOM      3  H3  UNL     1       1.014  11.364  51.501  1.00  0.00     0.163 HD
BRANCH   2   4
HETATM    4  C2  UNL     1       2.758  10.585  52.395  1.00  0.00     0.154 A
HETATM    5  N2  UNL     1       3.971  11.124  52.261  1.00  0.00    -0.280 N
HETATM    6  N1  UNL     1       5.119  10.421  52.296  1.00  0.00    -0.276 N
ATOM      7  H2  UNL     1       4.033  12.134  52.124  1.00  0.00     0.189 HD
HETATM    8  C1  UNL     1       6.354  11.167  52.132  1.00  0.00     0.179 C
HETATM    9  C12 UNL     1       5.139   9.098  52.472  1.00  0.00     0.172 A
HETATM   10  C11 UNL     1       3.866   8.506  52.616  1.00  0.00     0.150 A
HETATM   11  C10 UNL     1       2.704   9.223  52.580  1.00  0.00     0.184 A
BRANCH   9  12
HETATM   12  N10 UNL     1       6.168   8.367  52.518  1.00  0.00    -0.288 N
ATOM     13  H10 UNL     1       6.645   8.206  51.631  1.00  0.00     0.188 HD
BRANCH  12  14
HETATM   14  N11 UNL     1       6.713   7.770  53.607  1.00  0.00    -0.344 N
ATOM     15 2H11 UNL     1       7.268   8.385  54.203  1.00  0.00     0.176 HD
ATOM     16 1H11 UNL     1       6.632   6.793  53.890  1.00  0.00     0.176 HD
ENDBRANCH  12  14
ENDBRANCH   9  12
BRANCH  10  17
HETATM   17  O6  UNL     1       3.860   7.126  52.800  1.00  0.00    -0.355 OA
ATOM     18  H6  UNL     1       4.599   6.590  52.540  1.00  0.00     0.218 HD
ENDBRANCH  10  17
BRANCH  11  19
HETATM   19  N9  UNL     1       1.448   8.568  52.730  1.00  0.00    -0.109 N
HETATM   20  O4  UNL     1       1.137   8.155  53.864  1.00  0.00    -0.532 OA
HETATM   21  O5  UNL     1       0.567   8.367  51.698  1.00  0.00    -0.532 OA
ENDBRANCH  11  19
ENDBRANCH   2   4
ENDBRANCH   1   2
BRANCH   1  22
HETATM   22  O1  UNL     1       2.152  12.959  54.008  1.00  0.00    -0.376 OA
ATOM     23  H1  UNL     1       1.832  13.600  54.632  1.00  0.00     0.212 HD
ENDBRANCH   1  22
BRANCH   1  24
HETATM   24  C4  UNL     1       0.003  13.091  53.075  1.00  0.00     0.136 C
BRANCH  24  25
HETATM   25  S1  UNL     1       0.093  13.642  51.353  1.00  0.00    -0.088 SA
BRANCH  25  26
HETATM   26  C5  UNL     1       0.919  15.222  51.235  1.00  0.00     0.170 A
HETATM   27  N4  UNL     1       0.263  16.387  51.336  1.00  0.00    -0.319 N
HETATM   28  C6  UNL     1       0.880  17.579  51.247  1.00  0.00     0.142 A
ATOM     29  H4  UNL     1      -0.746  16.368  51.486  1.00  0.00     0.169 HD
HETATM   30  N5  UNL     1       0.492  18.863  51.310  1.00  0.00    -0.282 N
HETATM   31  C8  UNL     1       2.231  17.583  51.047  1.00  0.00     0.131 A
HETATM   32  N6  UNL     1       1.509  19.692  51.161  1.00  0.00    -0.278 N
ATOM     33  H5  UNL     1      -0.473  19.163  51.456  1.00  0.00     0.188 HD
HETATM   34  C7  UNL     1       2.596  18.920  50.997  1.00  0.00     0.174 A
ATOM     35  H6  UNL     1       1.476  20.712  51.168  1.00  0.00     0.189 HD
HETATM   36  C9  UNL     1       2.892  16.381  50.945  1.00  0.00     0.286 A
HETATM   37  O3  UNL     1       4.148  16.460  50.759  1.00  0.00    -0.265 OA
HETATM   38  N7  UNL     1       2.250  15.201  51.037  1.00  0.00    -0.203 N
BRANCH  34  39
HETATM   39  O2  UNL     1       3.903  19.386  50.805  1.00  0.00    -0.344 OA
ATOM     40  H2  UNL     1       4.696  18.906  51.014  1.00  0.00     0.219 HD
ENDBRANCH  34  39
BRANCH  38  41
HETATM   41  N8  UNL     1       2.982  14.004  50.924  1.00  0.00    -0.334 N
ATOM     42  H82 UNL     1       3.313  13.537  51.768  1.00  0.00     0.177 HD
ATOM     43  H81 UNL     1       3.199  13.575  50.025  1.00  0.00     0.177 HD
ENDBRANCH  38  41
ENDBRANCH  25  26
ENDBRANCH  24  25
ENDBRANCH   1  24
TORSDOF 12
ENDMDL