MODEL 3
REMARK VINA RESULT: -6.738860024      2.347      3.591
REMARK  15 active torsions:
REMARK  status: ('A' for Active; 'I' for Inactive)
REMARK    1  A    between atoms: O1_2  and  C2_3
REMARK    2  A    between atoms: C2_3  and  C3_5
REMARK    3  A    between atoms: C3_5  and  O3_6
REMARK    4  A    between atoms: C3_5  and  C4_8
REMARK    5  A    between atoms: C3_5  and  C6_14
REMARK    6  A    between atoms: C5_9  and  N1_10
REMARK    7  A    between atoms: N1_10  and  O4_12
REMARK    8  A    between atoms: C6_14  and  N2_15
REMARK    9  A    between atoms: C7_16  and  O5_17
REMARK   10  A    between atoms: C8_19  and  N3_20
REMARK   11  A    between atoms: N3_20  and  O6_22
REMARK   12  A    between atoms: N4_24  and  C9_25
REMARK   13  A    between atoms: C10_28  and  N6_29
REMARK   14  A    between atoms: C11_34  and  N8_35
REMARK   15  A    between atoms: C12_38  and  N9_39
ROOT
HETATM    1  N2  UNL     1       1.143  14.423  51.612  1.00  0.00    -0.272 N
HETATM    2  C7  UNL     1       2.415  14.128  51.332  1.00  0.00     0.194 A
HETATM    3  C8  UNL     1       2.919  15.070  50.460  1.00  0.00     0.189 A
HETATM    4  N4  UNL     1       1.948  15.934  50.212  1.00  0.00    -0.226 N
HETATM    5  C13 UNL     1       0.865  15.536  50.917  1.00  0.00     0.338 A
HETATM    6  O9  UNL     1      -0.232  16.184  50.873  1.00  0.00    -0.246 OA
ENDROOT
BRANCH   4   7
HETATM    7  C9  UNL     1       2.026  17.086  49.354  1.00  0.00     0.170 A
HETATM    8  N5  UNL     1       1.762  17.024  48.038  1.00  0.00    -0.173 N
HETATM    9  C10 UNL     1       1.842  18.136  47.244  1.00  0.00     0.679 A
ATOM     10  H5  UNL     1       1.496  16.131  47.622  1.00  0.00     0.186 HD
HETATM   11  N7  UNL     1       2.191  19.330  47.762  1.00  0.00    -0.175 N
HETATM   12  C11 UNL     1       2.465  19.444  49.071  1.00  0.00     0.152 A
ATOM     13  H7  UNL     1       2.246  20.149  47.158  1.00  0.00     0.186 HD
HETATM   14  C12 UNL     1       2.383  18.310  49.881  1.00  0.00     0.191 A
BRANCH   9  15
HETATM   15  N6  UNL     1       1.589  18.058  45.997  1.00  0.00    -0.234 N
ATOM     16  H62 UNL     1       0.615  18.017  45.696  1.00  0.00     0.174 HD
ATOM     17  H61 UNL     1       2.348  18.038  45.317  1.00  0.00     0.174 HD
ENDBRANCH   9  15
BRANCH  12  18
HETATM   18  N8  UNL     1       2.802  20.574  49.596  1.00  0.00    -0.383 N
ATOM     19  H82 UNL     1       3.788  20.771  49.771  1.00  0.00     0.157 HD
ATOM     20  H81 UNL     1       2.106  21.279  49.841  1.00  0.00     0.157 HD
ENDBRANCH  12  18
BRANCH  14  21
HETATM   21  N9  UNL     1       2.669  18.418  51.268  1.00  0.00    -0.108 N
HETATM   22  O7  UNL     1       1.739  18.766  52.020  1.00  0.00    -0.531 OA
HETATM   23  O8  UNL     1       3.895  18.160  51.790  1.00  0.00    -0.531 OA
ENDBRANCH  14  21
ENDBRANCH   4   7
BRANCH   3  24
HETATM   24  N3  UNL     1       4.246  15.124  49.908  1.00  0.00    -0.249 N
ATOM     25  H3  UNL     1       4.471  14.617  49.053  1.00  0.00     0.196 HD
BRANCH  24  26
HETATM   26  O6  UNL     1       5.118  15.801  50.490  1.00  0.00    -0.288 OA
ATOM     27  H6  UNL     1       5.926  16.004  50.034  1.00  0.00     0.244 HD
ENDBRANCH  24  26
ENDBRANCH   3  24
BRANCH   2  28
HETATM   28  O5  UNL     1       3.202  13.067  51.791  1.00  0.00    -0.343 OA
ATOM     29  H5  UNL     1       2.936  12.244  52.183  1.00  0.00     0.219 HD
ENDBRANCH   2  28
BRANCH   1  30
HETATM   30  C6  UNL     1       0.266  13.709  52.478  1.00  0.00     0.198 C
BRANCH  30  31
HETATM   31  C3  UNL     1      -0.100  12.335  52.057  1.00  0.00     0.228 C
BRANCH  31  32
HETATM   32  C2  UNL     1       0.055  11.461  53.278  1.00  0.00     0.307 C
HETATM   33  O2  UNL     1      -0.851  11.386  54.146  1.00  0.00    -0.261 OA
BRANCH  32  34
HETATM   34  O1  UNL     1       1.194  10.701  53.503  1.00  0.00    -0.323 OA
HETATM   35  C1  UNL     1       1.185   9.283  53.478  1.00  0.00     0.213 C
ENDBRANCH  32  34
ENDBRANCH  31  32
BRANCH  31  36
HETATM   36  O3  UNL     1       0.745  11.814  51.076  1.00  0.00    -0.367 OA
ATOM     37  H3  UNL     1       1.595  11.690  51.481  1.00  0.00     0.212 HD
ENDBRANCH  31  36
BRANCH  31  38
HETATM   38  C4  UNL     1      -1.456  12.196  51.544  1.00  0.00    -0.031 C
HETATM   39  C5  UNL     1      -2.587  12.106  51.122  1.00  0.00     0.035 C
BRANCH  39  40
HETATM   40  N1  UNL     1      -3.898  12.025  50.640  1.00  0.00    -0.226 N
ATOM     41  H1  UNL     1      -4.473  11.224  50.902  1.00  0.00     0.204 HD
BRANCH  40  42
HETATM   42  O4  UNL     1      -4.428  12.986  49.834  1.00  0.00    -0.282 OA
ATOM     43  H4  UNL     1      -3.882  13.611  49.372  1.00  0.00     0.245 HD
ENDBRANCH  40  42
ENDBRANCH  39  40
ENDBRANCH  31  38
ENDBRANCH  30  31
ENDBRANCH   1  30
TORSDOF 15
ENDMDL