MODEL 4
REMARK VINA RESULT: -7.402742747      1.679      2.674
REMARK  11 active torsions:
REMARK  status: ('A' for Active; 'I' for Inactive)
REMARK    1  A    between atoms: O1_2  and  C2_3
REMARK    2  A    between atoms: C2_3  and  O2_4
REMARK    3  A    between atoms: C2_3  and  C3_6
REMARK    4  A    between atoms: C3_6  and  C4_7
REMARK    5  A    between atoms: C4_7  and  N1_8
REMARK    6  A    between atoms: C5_11  and  C6_12
REMARK       I    between atoms: C6_12  and  N3_14
REMARK    7  A    between atoms: N3_14  and  C7_16
REMARK    8  A    between atoms: C8_17  and  O4_18
REMARK    9  A    between atoms: N4_20  and  O5_21
REMARK   10  A    between atoms: N5_23  and  O6_24
REMARK   11  A    between atoms: C11_31  and  N7_32
ROOT
HETATM    1  N1  UNL     1       0.615  10.551  51.085  1.00  0.00    -0.256 N
HETATM    2  N2  UNL     1       1.134  11.736  50.772  1.00  0.00    -0.289 N
ATOM      3  H2  UNL     1       0.520  12.415  50.325  1.00  0.00     0.187 HD
HETATM    4  C5  UNL     1       2.410  12.108  51.001  1.00  0.00     0.145 A
HETATM    5  C10 UNL     1       3.233  11.194  51.601  1.00  0.00     0.104 A
HETATM    6  N6  UNL     1       4.512  11.420  51.899  1.00  0.00    -0.188 N
ATOM      7  H6  UNL     1       4.909  12.328  51.660  1.00  0.00     0.184 HD
HETATM    8  C11 UNL     1       5.322  10.501  52.507  1.00  0.00     0.679 A
HETATM    9  N8  UNL     1       4.828   9.305  52.831  1.00  0.00    -0.155 N
ATOM     10  H8  UNL     1       5.430   8.617  53.284  1.00  0.00     0.187 HD
HETATM   11  C12 UNL     1       3.528   8.988  52.562  1.00  0.00     0.277 A
HETATM   12  O8  UNL     1       3.073   7.856  52.873  1.00  0.00    -0.266 OA
HETATM   13  C13 UNL     1       2.749   9.938  51.952  1.00  0.00     0.132 A
HETATM   14  C14 UNL     1       1.418   9.669  51.667  1.00  0.00     0.280 A
HETATM   15  O9  UNL     1       0.943   8.528  51.980  1.00  0.00    -0.265 OA
ENDROOT
BRANCH   4  16
HETATM   16  C6  UNL     1       2.867  13.447  50.623  1.00  0.00     0.276 C
HETATM   17  O3  UNL     1       3.722  13.670  49.784  1.00  0.00    -0.266 OA
HETATM   18  N3  UNL     1       2.272  14.549  51.282  1.00  0.00    -0.313 N
ATOM     19  H3  UNL     1       1.563  14.311  51.974  1.00  0.00     0.169 HD
BRANCH  18  20
HETATM   20  C7  UNL     1       2.514  15.914  51.123  1.00  0.00     0.163 A
HETATM   21  C8  UNL     1       3.620  16.652  50.829  1.00  0.00     0.221 A
HETATM   22  N4  UNL     1       3.279  17.984  50.812  1.00  0.00    -0.107 N
HETATM   23  N5  UNL     1       2.007  18.082  51.084  1.00  0.00    -0.091 N
HETATM   24  C9  UNL     1       1.500  16.865  51.279  1.00  0.00     0.320 A
HETATM   25  O7  UNL     1       0.308  16.608  51.557  1.00  0.00    -0.262 OA
BRANCH  21  26
HETATM   26  O4  UNL     1       4.898  16.191  50.581  1.00  0.00    -0.341 OA
ATOM     27  H4  UNL     1       5.714  16.672  50.664  1.00  0.00     0.219 HD
ENDBRANCH  21  26
BRANCH  22  28
HETATM   28  O5  UNL     1       4.153  18.996  50.551  1.00  0.00    -0.264 OA
ATOM     29  H5  UNL     1       3.932  19.782  50.065  1.00  0.00     0.247 HD
ENDBRANCH  22  28
BRANCH  23  30
HETATM   30  O6  UNL     1       1.283  19.257  51.161  1.00  0.00    -0.263 OA
ATOM     31  H6  UNL     1       1.135  19.769  51.947  1.00  0.00     0.247 HD
ENDBRANCH  23  30
ENDBRANCH  18  20
ENDBRANCH   4  16
BRANCH   1  32
HETATM   32  C4  UNL     1      -0.757  10.311  50.748  1.00  0.00     0.157 C
BRANCH  32  33
HETATM   33  C3  UNL     1      -1.743  10.456  51.846  1.00  0.00     0.082 C
BRANCH  33  34
HETATM   34  C2  UNL     1      -2.010  11.844  52.337  1.00  0.00     0.257 C
BRANCH  34  35
HETATM   35  O1  UNL     1      -3.388  11.843  52.720  1.00  0.00    -0.366 OA
HETATM   36  C1  UNL     1      -3.483  11.003  53.846  1.00  0.00     0.204 C
ENDBRANCH  34  35
BRANCH  34  37
HETATM   37  O2  UNL     1      -1.954  12.738  51.241  1.00  0.00    -0.371 OA
ATOM     38  H2  UNL     1      -1.307  12.355  50.660  1.00  0.00     0.212 HD
ENDBRANCH  34  37
ENDBRANCH  33  34
ENDBRANCH  32  33
ENDBRANCH   1  32
BRANCH   8  39
HETATM   39  N7  UNL     1       6.569  10.796  52.768  1.00  0.00    -0.234 N
ATOM     40  H72 UNL     1       7.116  11.355  52.114  1.00  0.00     0.174 HD
ATOM     41  H71 UNL     1       7.004  10.466  53.630  1.00  0.00     0.174 HD
ENDBRANCH   8  39
TORSDOF 11
ENDMDL