MODEL 2
REMARK VINA RESULT: -7.428962246      4.454      7.416
REMARK  8 active torsions:
REMARK  status: ('A' for Active; 'I' for Inactive)
REMARK    1  A    between atoms: C4_8  and  N3_9
REMARK    2  A    between atoms: N3_9  and  C5_11
REMARK    3  A    between atoms: N8_24  and  C8_25
REMARK    4  A    between atoms: C8_25  and  N9_26
REMARK    5  A    between atoms: N9_26  and  C9_28
REMARK    6  A    between atoms: C10_31  and  N11_32
REMARK    7  A    between atoms: C11_37  and  C12_38
REMARK    8  A    between atoms: C12_38  and  N13_39
ROOT
HETATM    1  C1  UNL     1      -4.165  10.710  46.159  1.00  0.00     0.090 C
HETATM    2  C2  UNL     1      -4.262  10.329  47.608  1.00  0.00     0.093 A
HETATM    3  N1  UNL     1      -5.369  10.693  48.297  1.00  0.00    -0.328 N
ATOM      4  H1  UNL     1      -6.124  11.212  47.850  1.00  0.00     0.169 HD
HETATM    5  C3  UNL     1      -5.435  10.345  49.585  1.00  0.00     0.169 A
HETATM    6  N2  UNL     1      -6.351  10.518  50.582  1.00  0.00    -0.172 N
ATOM      7  H2  UNL     1      -7.246  11.001  50.501  1.00  0.00     0.186 HD
HETATM    8  C4  UNL     1      -5.858   9.937  51.691  1.00  0.00     0.687 A
HETATM    9  N7  UNL     1      -4.636   9.386  51.435  1.00  0.00    -0.171 N
ATOM     10  H7  UNL     1      -4.057   8.888  52.112  1.00  0.00     0.186 HD
HETATM   11  C7  UNL     1      -4.318   9.604  50.153  1.00  0.00     0.184 A
HETATM   12  N8  UNL     1      -3.219   9.258  49.419  1.00  0.00    -0.253 N
HETATM   13  N18 UNL     1      -3.252   9.646  48.167  1.00  0.00    -0.284 N
ATOM     14  H18 UNL     1      -2.453   9.412  47.577  1.00  0.00     0.188 HD
ENDROOT
BRANCH  12  15
HETATM   15  C8  UNL     1      -2.176   8.507  50.067  1.00  0.00     0.290 C
BRANCH  15  16
HETATM   16  N9  UNL     1      -1.025   9.323  50.306  1.00  0.00    -0.208 N
ATOM     17  H9  UNL     1      -0.523   9.677  49.492  1.00  0.00     0.179 HD
BRANCH  16  18
HETATM   18  C9  UNL     1      -0.530   9.677  51.576  1.00  0.00     0.695 A
HETATM   19  N10 UNL     1       0.612   9.140  52.036  1.00  0.00    -0.023 N
HETATM   20  C10 UNL     1       1.061   9.488  53.236  1.00  0.00     0.691 A
ATOM     21  H10 UNL     1       1.131   8.471  51.467  1.00  0.00     0.203 HD
HETATM   22  N12 UNL     1       0.379  10.364  53.980  1.00  0.00    -0.178 N
HETATM   23  C11 UNL     1      -0.767  10.928  53.565  1.00  0.00     0.134 A
ATOM     24  H12 UNL     1       0.743  10.614  54.899  1.00  0.00     0.185 HD
HETATM   25  N17 UNL     1      -1.213  10.574  52.356  1.00  0.00    -0.178 N
ATOM     26  H17 UNL     1      -2.079  10.981  52.006  1.00  0.00     0.185 HD
BRANCH  20  27
HETATM   27  N11 UNL     1       2.168   8.964  53.674  1.00  0.00    -0.234 N
ATOM     28 2H11 UNL     1       3.069   9.257  53.296  1.00  0.00     0.174 HD
ATOM     29 1H11 UNL     1       2.125   8.253  54.403  1.00  0.00     0.174 HD
ENDBRANCH  20  27
BRANCH  23  30
HETATM   30  C12 UNL     1      -1.454  11.881  54.440  1.00  0.00     0.241 C
BRANCH  30  31
HETATM   31  N13 UNL     1      -2.784  11.439  54.818  1.00  0.00    -0.199 N
HETATM   32  N14 UNL     1      -3.614  11.704  55.823  1.00  0.00     0.005 NA
HETATM   33  N15 UNL     1      -4.510  10.874  55.318  1.00  0.00     0.007 NA
HETATM   34  N16 UNL     1      -3.683  10.610  54.313  1.00  0.00     0.005 NA
ENDBRANCH  30  31
ENDBRANCH  23  30
ENDBRANCH  16  18
ENDBRANCH  15  16
ENDBRANCH  12  15
BRANCH   8  35
HETATM   35  N3  UNL     1      -6.437   9.852  52.985  1.00  0.00    -0.171 N
ATOM     36  H3  UNL     1      -6.395  10.663  53.602  1.00  0.00     0.186 HD
BRANCH  35  37
HETATM   37  C5  UNL     1      -7.022   8.758  53.408  1.00  0.00     0.188 A
HETATM   38  N4  UNL     1      -8.013   8.100  52.780  1.00  0.00    -0.221 N
HETATM   39  O1  UNL     1      -8.340   7.065  53.493  1.00  0.00    -0.153 OA
ATOM     40  H4  UNL     1      -8.436   8.368  51.892  1.00  0.00     0.198 HD
HETATM   41  N5  UNL     1      -7.623   6.993  54.566  1.00  0.00    -0.222 N
HETATM   42  C6  UNL     1      -6.771   8.044  54.559  1.00  0.00     0.168 A
ATOM     43  H5  UNL     1      -7.687   6.275  55.287  1.00  0.00     0.198 HD
HETATM   44  N6  UNL     1      -5.895   8.321  55.458  1.00  0.00    -0.381 N
ATOM     45  H62 UNL     1      -5.252   9.113  55.453  1.00  0.00     0.157 HD
ATOM     46  H61 UNL     1      -5.709   7.793  56.310  1.00  0.00     0.157 HD
ENDBRANCH  35  37
ENDBRANCH   8  35
TORSDOF 8
ENDMDL