MODEL 1
REMARK VINA RESULT: -7.145483067      0.000      0.000
REMARK  12 active torsions:
REMARK  status: ('A' for Active; 'I' for Inactive)
REMARK    1  A    between atoms: O1_2  and  N1_3
REMARK    2  A    between atoms: N1_3  and  C3_5
REMARK    3  A    between atoms: C3_5  and  O2_6
REMARK    4  A    between atoms: C4_8  and  N2_9
REMARK    5  A    between atoms: C7_19  and  C8_20
REMARK       I    between atoms: N7_23  and  C9_24
REMARK    6  A    between atoms: C9_24  and  C10_26
REMARK    7  A    between atoms: C10_26  and  N8_27
REMARK    8  A    between atoms: C10_26  and  O4_31
REMARK    9  A    between atoms: C11_33  and  N9_34
REMARK   10  A    between atoms: N9_34  and  O5_36
REMARK   11  A    between atoms: C12_38  and  O6_39
REMARK   12  A    between atoms: N10_41  and  O7_42
ROOT
HETATM    1  N2  UNL     1      -0.736  13.085  52.091  1.00  0.00    -0.133 N
HETATM    2  C5  UNL     1      -0.766  13.620  50.854  1.00  0.00     0.685 A
HETATM    3  N3  UNL     1       0.130  14.460  50.374  1.00  0.00    -0.234 N
ATOM      4  H31 UNL     1       0.108  14.865  49.438  1.00  0.00     0.174 HD
ATOM      5  H32 UNL     1       0.954  14.822  50.853  1.00  0.00     0.174 HD
HETATM    6  N4  UNL     1      -1.841  13.147  50.228  1.00  0.00    -0.172 N
ATOM      7  H4  UNL     1      -2.125  13.376  49.276  1.00  0.00     0.186 HD
HETATM    8  C6  UNL     1      -2.492  12.312  51.065  1.00  0.00     0.170 A
HETATM    9  N5  UNL     1      -3.550  11.495  51.225  1.00  0.00    -0.321 N
ATOM     10  H5  UNL     1      -4.256  11.320  50.510  1.00  0.00     0.169 HD
HETATM   11  C7  UNL     1      -3.557  10.931  52.470  1.00  0.00     0.168 A
HETATM   12  N10 UNL     1      -2.483  11.411  53.081  1.00  0.00    -0.184 N
HETATM   13  C13 UNL     1      -1.812  12.258  52.248  1.00  0.00     0.202 A
ENDROOT
BRANCH  11  14
HETATM   14  C8  UNL     1      -4.581   9.979  52.932  1.00  0.00     0.132 A
HETATM   15  N6  UNL     1      -5.334   9.193  52.159  1.00  0.00    -0.283 N
HETATM   16  N7  UNL     1      -6.180   8.439  52.840  1.00  0.00    -0.198 N
ATOM     17  H6  UNL     1      -5.264   9.176  51.142  1.00  0.00     0.188 HD
HETATM   18  C9  UNL     1      -7.093   7.501  52.219  1.00  0.00     0.300 C
HETATM   19  C11 UNL     1      -5.998   8.722  54.137  1.00  0.00     0.186 A
HETATM   20  O3  UNL     1      -7.856   6.858  52.946  1.00  0.00    -0.266 OA
HETATM   21  C12 UNL     1      -4.984   9.699  54.216  1.00  0.00     0.146 A
BRANCH  18  22
HETATM   22  C10 UNL     1      -7.091   7.331  50.745  1.00  0.00     0.411 C
BRANCH  22  23
HETATM   23  N8  UNL     1      -8.215   6.478  50.352  1.00  0.00    -0.044 N
ATOM     24  H83 UNL     1      -8.161   5.551  50.773  1.00  0.00     0.278 HD
ATOM     25  H82 UNL     1      -9.094   6.778  50.774  1.00  0.00     0.278 HD
ATOM     26  H81 UNL     1      -8.269   6.438  49.333  1.00  0.00     0.278 HD
ENDBRANCH  22  23
BRANCH  22  27
HETATM   27  O4  UNL     1      -7.258   8.618  50.187  1.00  0.00    -0.363 OA
ATOM     28  H4  UNL     1      -6.558   8.735  49.555  1.00  0.00     0.212 HD
ENDBRANCH  22  27
ENDBRANCH  18  22
BRANCH  19  29
HETATM   29  N9  UNL     1      -6.714   8.131  55.228  1.00  0.00    -0.249 N
ATOM     30  H9  UNL     1      -7.719   8.282  55.317  1.00  0.00     0.196 HD
BRANCH  29  31
HETATM   31  O5  UNL     1      -6.061   7.373  56.141  1.00  0.00    -0.288 OA
ATOM     32  H5  UNL     1      -5.983   6.435  56.015  1.00  0.00     0.244 HD
ENDBRANCH  29  31
ENDBRANCH  19  29
BRANCH  21  33
HETATM   33  O6  UNL     1      -4.536  10.229  55.388  1.00  0.00    -0.355 OA
ATOM     34  H6  UNL     1      -3.849   9.911  55.961  1.00  0.00     0.218 HD
ENDBRANCH  21  33
ENDBRANCH  11  14
BRANCH  12  35
HETATM   35  O7  UNL     1      -2.023  11.165  54.345  1.00  0.00    -0.279 OA
ATOM     36  H7  UNL     1      -2.013  11.737  55.104  1.00  0.00     0.245 HD
ENDBRANCH  12  35
BRANCH   1  37
HETATM   37  C4  UNL     1       0.243  13.279  53.097  1.00  0.00     0.174 C
HETATM   38  C3  UNL     1       1.280  12.317  53.330  1.00  0.00     0.178 C
BRANCH  38  39
HETATM   39  N1  UNL     1       1.550  11.039  52.849  1.00  0.00    -0.240 N
HETATM   40  C2  UNL     1       1.982  10.689  51.534  1.00  0.00     0.188 C
BRANCH  39  41
HETATM   41  O1  UNL     1       1.375   9.937  53.690  1.00  0.00    -0.281 OA
HETATM   42  C1  UNL     1       1.741   8.847  52.880  1.00  0.00     0.238 C
ENDBRANCH  39  41
ENDBRANCH  38  39
BRANCH  38  43
HETATM   43  O2  UNL     1       2.176  12.760  54.206  1.00  0.00    -0.344 OA
ATOM     44  H2  UNL     1       2.258  12.214  54.979  1.00  0.00     0.219 HD
ENDBRANCH  38  43
ENDBRANCH   1  37
TORSDOF 12
ENDMDL