MODEL 5
REMARK VINA RESULT: -6.998799827      1.955      2.176
REMARK  13 active torsions:
REMARK  status: ('A' for Active; 'I' for Inactive)
REMARK       I    between atoms: C1_4  and  N3_6
REMARK    1  A    between atoms: N3_6  and  O1_8
REMARK    2  A    between atoms: O1_8  and  C2_9
REMARK    3  A    between atoms: C2_9  and  C3_11
REMARK    4  A    between atoms: C5_14  and  C6_15
REMARK       I    between atoms: C6_15  and  N5_17
REMARK    5  A    between atoms: N5_17  and  N6_18
REMARK    6  A    between atoms: N7_20  and  C7_22
REMARK    7  A    between atoms: C7_22  and  C8_23
REMARK    8  A    between atoms: C8_23  and  N8_24
REMARK    9  A    between atoms: C8_23  and  C9_28
REMARK   10  A    between atoms: C9_28  and  O4_29
REMARK   11  A    between atoms: C9_28  and  O5_31
REMARK   12  A    between atoms: C11_36  and  N9_37
REMARK   13  A    between atoms: N9_37  and  O6_39
ROOT
HETATM    1  C3  UNL     1       1.198   9.773  52.420  1.00  0.00     0.084 A
HETATM    2  C4  UNL     1       0.109  10.031  53.171  1.00  0.00     0.108 A
HETATM    3  N4  UNL     1      -0.564  11.191  52.724  1.00  0.00    -0.346 N
HETATM    4  C5  UNL     1      -1.676  12.033  53.062  1.00  0.00     0.268 C
HETATM    5  S1  UNL     1      -2.754  11.858  51.566  1.00  0.00    -0.058 SA
HETATM    6  S2  UNL     1      -1.093  11.402  50.250  1.00  0.00    -0.063 SA
HETATM    7  C10 UNL     1       0.143  11.687  51.577  1.00  0.00     0.211 A
HETATM    8  C11 UNL     1       1.308  10.782  51.397  1.00  0.00     0.083 A
ENDROOT
BRANCH   4   9
HETATM    9  C6  UNL     1      -2.429  11.551  54.247  1.00  0.00     0.347 C
HETATM   10  O3  UNL     1      -1.914  11.956  55.349  1.00  0.00    -0.252 OA
HETATM   11  N5  UNL     1      -3.575  10.753  54.239  1.00  0.00    -0.268 NA
BRANCH  11  12
HETATM   12  N6  UNL     1      -4.627  10.021  54.238  1.00  0.00    -0.177 N
HETATM   13  N7  UNL     1      -5.575   9.953  53.378  1.00  0.00    -0.310 N
ATOM     14  H7  UNL     1      -5.530  10.548  52.551  1.00  0.00     0.182 HD
ATOM     15  H6  UNL     1      -4.725   9.401  55.042  1.00  0.00     0.223 HD
BRANCH  13  16
HETATM   16  C7  UNL     1      -6.693   9.073  53.532  1.00  0.00     0.179 C
BRANCH  16  17
HETATM   17  C8  UNL     1      -6.213   7.624  53.473  1.00  0.00     0.257 C
BRANCH  17  18
HETATM   18  N8  UNL     1      -6.995   6.885  52.534  1.00  0.00    -0.069 N
ATOM     19  H83 UNL     1      -7.954   7.228  52.481  1.00  0.00     0.275 HD
ATOM     20  H82 UNL     1      -6.716   7.076  51.571  1.00  0.00     0.275 HD
ATOM     21  H81 UNL     1      -6.958   5.889  52.751  1.00  0.00     0.275 HD
ENDBRANCH  17  18
BRANCH  17  22
HETATM   22  C9  UNL     1      -6.428   6.953  54.835  1.00  0.00     0.285 C
BRANCH  22  23
HETATM   23  O4  UNL     1      -5.930   7.782  55.810  1.00  0.00    -0.369 OA
ATOM     24  H4  UNL     1      -6.434   7.648  56.604  1.00  0.00     0.212 HD
ENDBRANCH  22  23
BRANCH  22  25
HETATM   25  O5  UNL     1      -5.919   5.672  54.867  1.00  0.00    -0.369 OA
ATOM     26  H5  UNL     1      -5.357   5.530  55.620  1.00  0.00     0.212 HD
ENDBRANCH  22  25
ENDBRANCH  17  22
ENDBRANCH  16  17
ENDBRANCH  13  16
ENDBRANCH  11  12
ENDBRANCH   4   9
BRANCH   1  27
HETATM   27  C2  UNL     1       2.110   8.643  52.625  1.00  0.00     0.318 C
HETATM   28  O2  UNL     1       1.704   7.648  53.302  1.00  0.00    -0.257 OA
BRANCH  27  29
HETATM   29  O1  UNL     1       3.392   8.553  52.148  1.00  0.00    -0.192 OA
BRANCH  29  30
HETATM   30  N3  UNL     1       4.448   9.128  52.798  1.00  0.00    -0.229 N
HETATM   31  C1  UNL     1       5.243  10.084  52.092  1.00  0.00     0.206 C
HETATM   32  N1  UNL     1       5.917  10.974  52.725  1.00  0.00    -0.372 N
HETATM   33  N2  UNL     1       5.260  10.020  50.675  1.00  0.00    -0.062 NA
ATOM     34  H12 UNL     1       6.484  11.657  52.221  1.00  0.00     0.158 HD
ATOM     35  H11 UNL     1       5.906  11.020  53.743  1.00  0.00     0.158 HD
ATOM     36  H3  UNL     1       4.663   8.881  53.763  1.00  0.00     0.197 HD
ENDBRANCH  29  30
ENDBRANCH  27  29
ENDBRANCH   1  27
BRANCH   8  37
HETATM   37  N9  UNL     1       2.150  10.995  50.482  1.00  0.00    -0.269 N
ATOM     38  H9  UNL     1       2.474  11.963  50.468  1.00  0.00     0.194 HD
BRANCH  37  39
HETATM   39  O6  UNL     1       2.711  10.258  49.536  1.00  0.00    -0.290 OA
ATOM     40  H6  UNL     1       2.509  10.064  48.628  1.00  0.00     0.244 HD
ENDBRANCH  37  39
ENDBRANCH   8  37
TORSDOF 13
ENDMDL