MODEL 4
REMARK VINA RESULT: -7.980463418      3.148      5.141
REMARK  14 active torsions:
REMARK  status: ('A' for Active; 'I' for Inactive)
REMARK    1  A    between atoms: N1_1  and  C1_4
REMARK    2  A    between atoms: N4_9  and  C2_10
REMARK    3  A    between atoms: C2_10  and  C3_11
REMARK       I    between atoms: C3_11  and  N5_13
REMARK    4  A    between atoms: N5_13  and  C4_15
REMARK    5  A    between atoms: C4_15  and  C5_16
REMARK    6  A    between atoms: C6_23  and  C7_24
REMARK    7  A    between atoms: C8_25  and  O2_26
REMARK    8  A    between atoms: C9_28  and  O3_29
REMARK    9  A    between atoms: C10_31  and  O4_32
REMARK   10  A    between atoms: C11_34  and  C12_35
REMARK   11  A    between atoms: C12_35  and  O5_36
REMARK   12  A    between atoms: C12_35  and  N9_38
REMARK   13  A    between atoms: N9_38  and  O6_40
REMARK   14  A    between atoms: C13_42  and  O7_43
ROOT
HETATM    1  C5  UNL     1      -1.338  11.622  53.944  1.00  0.00     0.116 A
HETATM    2  N6  UNL     1      -0.447  10.693  54.341  1.00  0.00    -0.273 N
ATOM      3  H6  UNL     1      -0.770   9.954  54.964  1.00  0.00     0.190 HD
HETATM    4  N7  UNL     1       0.806  10.684  53.975  1.00  0.00    -0.240 N
ATOM      5  H7  UNL     1       1.436   9.953  54.308  1.00  0.00     0.208 HD
HETATM    6  N8  UNL     1       1.246  11.630  53.169  1.00  0.00    -0.270 N
ATOM      7  H8  UNL     1       2.224  11.628  52.879  1.00  0.00     0.190 HD
HETATM    8  C6  UNL     1       0.425  12.599  52.723  1.00  0.00     0.138 A
HETATM    9  N10 UNL     1      -0.878  12.577  53.126  1.00  0.00    -0.328 N
ATOM     10  H10 UNL     1      -1.514  13.303  52.797  1.00  0.00     0.169 HD
ENDROOT
BRANCH   8  11
HETATM   11  C7  UNL     1       0.903  13.653  51.842  1.00  0.00     0.080 A
HETATM   12  C8  UNL     1       0.749  13.565  50.486  1.00  0.00     0.118 A
HETATM   13  C9  UNL     1       1.198  14.549  49.628  1.00  0.00     0.134 A
HETATM   14  C10 UNL     1       1.821  15.652  50.164  1.00  0.00     0.119 A
HETATM   15  C11 UNL     1       1.996  15.779  51.546  1.00  0.00     0.087 A
HETATM   16  C13 UNL     1       1.536  14.780  52.362  1.00  0.00     0.100 A
BRANCH  12  17
HETATM   17  O2  UNL     1       0.118  12.448  49.944  1.00  0.00    -0.357 OA
ATOM     18  H2  UNL     1      -0.741  12.545  49.549  1.00  0.00     0.217 HD
ENDBRANCH  12  17
BRANCH  13  19
HETATM   19  O3  UNL     1       1.022  14.419  48.260  1.00  0.00    -0.356 OA
ATOM     20  H3  UNL     1       0.362  14.932  47.810  1.00  0.00     0.218 HD
ENDBRANCH  13  19
BRANCH  14  21
HETATM   21  O4  UNL     1       2.301  16.688  49.380  1.00  0.00    -0.357 OA
ATOM     22  H4  UNL     1       2.130  17.600  49.581  1.00  0.00     0.218 HD
ENDBRANCH  14  21
BRANCH  15  23
HETATM   23  C12 UNL     1       2.657  16.937  52.077  1.00  0.00     0.176 C
BRANCH  23  24
HETATM   24  O5  UNL     1       3.808  17.253  51.548  1.00  0.00    -0.344 OA
ATOM     25  H5  UNL     1       4.146  18.119  51.742  1.00  0.00     0.219 HD
ENDBRANCH  23  24
BRANCH  23  26
HETATM   26  N9  UNL     1       2.254  17.806  53.096  1.00  0.00    -0.247 N
ATOM     27  H9  UNL     1       1.792  18.687  52.875  1.00  0.00     0.196 HD
BRANCH  26  28
HETATM   28  O6  UNL     1       2.495  17.449  54.405  1.00  0.00    -0.288 OA
ATOM     29  H6  UNL     1       2.005  17.882  55.094  1.00  0.00     0.244 HD
ENDBRANCH  26  28
ENDBRANCH  23  26
ENDBRANCH  15  23
BRANCH  16  30
HETATM   30  O7  UNL     1       1.662  14.809  53.727  1.00  0.00    -0.358 OA
ATOM     31  H7  UNL     1       1.236  15.539  54.161  1.00  0.00     0.217 HD
ENDBRANCH  16  30
ENDBRANCH   8  11
BRANCH   1  32
HETATM   32  C4  UNL     1      -2.726  11.520  54.451  1.00  0.00     0.200 C
BRANCH  32  33
HETATM   33  N5  UNL     1      -3.609  10.883  53.521  1.00  0.00    -0.352 N
HETATM   34  C3  UNL     1      -4.692  10.121  53.990  1.00  0.00     0.239 C
HETATM   35  O1  UNL     1      -4.890   9.988  55.212  1.00  0.00    -0.272 OA
ATOM     36  H5  UNL     1      -3.452  10.981  52.518  1.00  0.00     0.162 HD
BRANCH  34  37
HETATM   37  C2  UNL     1      -5.634   9.457  53.056  1.00  0.00     0.274 C
BRANCH  37  38
HETATM   38  N4  UNL     1      -6.245   8.293  53.668  1.00  0.00    -0.196 N
HETATM   39  N3  UNL     1      -7.137   8.251  54.637  1.00  0.00    -0.211 N
HETATM   40  N2  UNL     1      -7.467   7.011  54.943  1.00  0.00    -0.115 N
ATOM     41  H3  UNL     1      -7.526   9.076  55.093  1.00  0.00     0.210 HD
HETATM   42  C1  UNL     1      -6.735   6.227  54.114  1.00  0.00     0.707 A
ATOM     43  H2  UNL     1      -8.132   6.707  55.654  1.00  0.00     0.207 HD
HETATM   44  N11 UNL     1      -5.996   7.037  53.346  1.00  0.00    -0.113 N
ATOM     45  H11 UNL     1      -5.343   6.730  52.624  1.00  0.00     0.207 HD
BRANCH  42  46
HETATM   46  N1  UNL     1      -6.754   4.923  54.081  1.00  0.00    -0.232 N
ATOM     47  H12 UNL     1      -7.038   4.338  53.296  1.00  0.00     0.174 HD
ATOM     48  H11 UNL     1      -6.481   4.302  54.843  1.00  0.00     0.174 HD
ENDBRANCH  42  46
ENDBRANCH  37  38
ENDBRANCH  34  37
ENDBRANCH  32  33
ENDBRANCH   1  32
TORSDOF 14
ENDMDL