MODEL 3
REMARK VINA RESULT: -6.343706400      2.718      3.838
REMARK  14 active torsions:
REMARK  status: ('A' for Active; 'I' for Inactive)
REMARK    1  A    between atoms: O1_2  and  C2_3
REMARK    2  A    between atoms: C2_3  and  C3_4
REMARK    3  A    between atoms: C2_3  and  C4_7
REMARK    4  A    between atoms: C3_4  and  O2_5
REMARK    5  A    between atoms: C4_7  and  O3_8
REMARK    6  A    between atoms: O3_8  and  N1_9
REMARK    7  A    between atoms: C5_10  and  N2_11
REMARK    8  A    between atoms: N2_11  and  C6_13
REMARK    9  A    between atoms: C7_15  and  C8_16
REMARK   10  A    between atoms: C8_16  and  O4_17
REMARK   11  A    between atoms: C8_16  and  O5_19
REMARK   12  A    between atoms: N3_22  and  N4_23
REMARK   13  A    between atoms: C10_26  and  N5_27
REMARK   14  A    between atoms: N9_38  and  O6_39
ROOT
HETATM    1  C6  UNL     1       3.994  11.881  51.195  1.00  0.00     0.188 A
HETATM    2  S1  UNL     1       3.936  10.192  51.346  1.00  0.00    -0.047 SA
HETATM    3  C7  UNL     1       2.471  10.072  52.280  1.00  0.00     0.088 A
HETATM    4  C9  UNL     1       2.129  11.387  52.407  1.00  0.00     0.187 A
HETATM    5  N3  UNL     1       1.102  12.069  53.021  1.00  0.00    -0.072 N
HETATM    6  C10 UNL     1       1.272  13.397  52.828  1.00  0.00     0.713 A
HETATM    7  N6  UNL     1       2.382  13.513  52.113  1.00  0.00    -0.120 N
ATOM      8  H6  UNL     1       2.787  14.395  51.799  1.00  0.00     0.206 HD
HETATM    9  N7  UNL     1       2.901  12.286  51.859  1.00  0.00    -0.198 N
ENDROOT
BRANCH   1  10
HETATM   10  N2  UNL     1       4.903  12.618  50.571  1.00  0.00    -0.165 N
ATOM     11  H2  UNL     1       5.815  12.824  50.977  1.00  0.00     0.186 HD
BRANCH  10  12
HETATM   12  C5  UNL     1       4.502  13.106  49.274  1.00  0.00     0.721 C
HETATM   13  N1  UNL     1       3.987  14.393  48.966  1.00  0.00     0.023 N
HETATM   14  N9  UNL     1       4.209  14.598  47.606  1.00  0.00    -0.035 NA
HETATM   15  C11 UNL     1       4.061  13.261  47.063  1.00  0.00     0.142 C
HETATM   16  N8  UNL     1       4.544  12.450  48.164  1.00  0.00    -0.197 N
HETATM   17  C12 UNL     1       2.619  13.033  46.747  1.00  0.00     0.061 C
HETATM   18  C13 UNL     1       4.895  13.082  45.826  1.00  0.00     0.061 C
ATOM     19  H8  UNL     1       4.874  11.490  48.073  1.00  0.00     0.180 HD
BRANCH  13  20
HETATM   20  O3  UNL     1       3.404  15.259  49.781  1.00  0.00    -0.244 OA
BRANCH  20  21
HETATM   21  C4  UNL     1       4.282  16.119  50.420  1.00  0.00     0.238 C
BRANCH  21  22
HETATM   22  C2  UNL     1       3.709  17.481  50.656  1.00  0.00     0.170 C
BRANCH  22  23
HETATM   23  O1  UNL     1       3.716  17.887  51.959  1.00  0.00    -0.386 OA
HETATM   24  C1  UNL     1       2.639  17.449  52.708  1.00  0.00     0.202 C
ENDBRANCH  22  23
BRANCH  22  25
HETATM   25  C3  UNL     1       2.342  17.594  50.015  1.00  0.00     0.198 C
BRANCH  25  26
HETATM   26  O2  UNL     1       2.427  17.758  48.639  1.00  0.00    -0.398 OA
ATOM     27  H2  UNL     1       2.665  18.647  48.403  1.00  0.00     0.209 HD
ENDBRANCH  25  26
ENDBRANCH  22  25
ENDBRANCH  21  22
ENDBRANCH  20  21
ENDBRANCH  13  20
BRANCH  14  28
HETATM   28  O6  UNL     1       3.271  15.449  47.140  1.00  0.00    -0.289 OA
ATOM     29  H6  UNL     1       3.620  15.896  46.377  1.00  0.00     0.239 HD
ENDBRANCH  14  28
ENDBRANCH  10  12
ENDBRANCH   1  10
BRANCH   3  30
HETATM   30  C8  UNL     1       1.858   8.783  52.727  1.00  0.00     0.299 C
BRANCH  30  31
HETATM   31  O4  UNL     1       0.811   8.503  51.819  1.00  0.00    -0.367 OA
ATOM     32  H4  UNL     1       0.371   7.727  52.148  1.00  0.00     0.213 HD
ENDBRANCH  30  31
BRANCH  30  33
HETATM   33  O5  UNL     1       1.342   8.908  53.982  1.00  0.00    -0.367 OA
ATOM     34  H5  UNL     1       0.796   8.160  54.195  1.00  0.00     0.213 HD
ENDBRANCH  30  33
ENDBRANCH   3  30
BRANCH   5  35
HETATM   35  N4  UNL     1       0.027  11.580  53.754  1.00  0.00    -0.322 N
ATOM     36  H42 UNL     1      -0.921  11.595  53.376  1.00  0.00     0.178 HD
ATOM     37  H41 UNL     1       0.007  11.177  54.691  1.00  0.00     0.178 HD
ENDBRANCH   5  35
BRANCH   6  38
HETATM   38  N5  UNL     1       0.502  14.356  53.260  1.00  0.00    -0.231 N
ATOM     39  H52 UNL     1       0.239  15.211  52.768  1.00  0.00     0.174 HD
ATOM     40  H51 UNL     1       0.036  14.407  54.166  1.00  0.00     0.174 HD
ENDBRANCH   6  38
TORSDOF 14
ENDMDL