MODEL 4
REMARK VINA RESULT: -6.784637135      3.642      8.538
REMARK  10 active torsions:
REMARK  status: ('A' for Active; 'I' for Inactive)
REMARK    1  A    between atoms: O1_2  and  C2_3
REMARK    2  A    between atoms: C2_3  and  C3_5
REMARK    3  A    between atoms: C4_6  and  N1_7
REMARK       I    between atoms: N1_7  and  C5_9
REMARK    4  A    between atoms: N4_17  and  N5_18
REMARK    5  A    between atoms: N6_20  and  C8_22
REMARK    6  A    between atoms: N9_29  and  C10_30
REMARK    7  A    between atoms: C10_30  and  O4_31
REMARK    8  A    between atoms: C11_33  and  O5_34
REMARK    9  A    between atoms: C13_37  and  C14_38
REMARK   10  A    between atoms: C14_38  and  O6_39
ROOT
HETATM    1  C3  UNL     1       2.925  11.725  52.138  1.00  0.00     0.134 C
HETATM    2  C4  UNL     1       2.238  12.741  51.580  1.00  0.00     0.098 C
HETATM    3  C7  UNL     1       0.759  12.718  51.622  1.00  0.00     0.107 A
HETATM    4  N2  UNL     1      -0.206  13.582  51.239  1.00  0.00    -0.280 N
ATOM      5  H2  UNL     1      -0.030  14.468  50.765  1.00  0.00     0.188 HD
HETATM    6  N3  UNL     1      -1.400  13.135  51.555  1.00  0.00    -0.219 N
ATOM      7  H3  UNL     1      -2.277  13.619  51.364  1.00  0.00     0.210 HD
HETATM    8  N4  UNL     1      -1.295  11.965  52.156  1.00  0.00    -0.167 N
HETATM    9  C12 UNL     1       0.055  11.695  52.202  1.00  0.00     0.110 A
HETATM   10  C13 UNL     1       0.754  10.513  52.711  1.00  0.00     0.162 C
HETATM   11  N10 UNL     1       2.137  10.767  52.875  1.00  0.00    -0.371 N
ATOM     12  H10 UNL     1       2.625  10.219  53.583  1.00  0.00     0.160 HD
ENDROOT
BRANCH   8  13
HETATM   13  N5  UNL     1      -2.331  11.169  52.652  1.00  0.00    -0.218 N
HETATM   14  N6  UNL     1      -3.413  10.973  51.996  1.00  0.00    -0.265 N
ATOM     15  H6  UNL     1      -3.568  11.391  51.079  1.00  0.00     0.190 HD
ATOM     16  H5  UNL     1      -2.222  10.730  53.567  1.00  0.00     0.210 HD
BRANCH  14  17
HETATM   17  C8  UNL     1      -4.391  10.139  52.618  1.00  0.00     0.188 A
HETATM   18  N7  UNL     1      -5.212   9.246  52.017  1.00  0.00    -0.171 N
HETATM   19  C9  UNL     1      -5.978   8.671  52.960  1.00  0.00     0.683 A
ATOM     20  H7  UNL     1      -5.243   9.045  51.017  1.00  0.00     0.186 HD
HETATM   21  N8  UNL     1      -6.876   7.770  52.752  1.00  0.00    -0.234 N
HETATM   22  N9  UNL     1      -5.639   9.202  54.153  1.00  0.00    -0.137 N
ATOM     23  H82 UNL     1      -7.133   7.369  51.850  1.00  0.00     0.174 HD
ATOM     24  H81 UNL     1      -7.458   7.334  53.468  1.00  0.00     0.174 HD
HETATM   25  C11 UNL     1      -4.661  10.110  53.959  1.00  0.00     0.206 A
BRANCH  22  26
HETATM   26  C10 UNL     1      -6.191   8.893  55.446  1.00  0.00     0.316 C
BRANCH  26  27
HETATM   27  O4  UNL     1      -5.795   7.599  55.805  1.00  0.00    -0.381 OA
ATOM     28  H4  UNL     1      -4.861   7.516  55.662  1.00  0.00     0.211 HD
ENDBRANCH  26  27
ENDBRANCH  22  26
BRANCH  25  29
HETATM   29  O5  UNL     1      -4.033  10.885  54.948  1.00  0.00    -0.343 OA
ATOM     30  H5  UNL     1      -4.354  11.705  55.305  1.00  0.00     0.219 HD
ENDBRANCH  25  29
ENDBRANCH  14  17
ENDBRANCH   8  13
BRANCH  10  31
HETATM   31  C14 UNL     1       0.613   9.355  51.715  1.00  0.00     0.195 C
BRANCH  31  32
HETATM   32  O6  UNL     1       1.211   8.195  52.129  1.00  0.00    -0.398 OA
ATOM     33  H6  UNL     1       2.107   8.309  52.420  1.00  0.00     0.209 HD
ENDBRANCH  31  32
ENDBRANCH  10  31
BRANCH   2  34
HETATM   34  N1  UNL     1       2.946  13.740  50.923  1.00  0.00    -0.323 N
HETATM   35  C5  UNL     1       2.862  15.139  51.010  1.00  0.00     0.218 C
HETATM   36  C6  UNL     1       3.826  15.942  50.111  1.00  0.00     0.117 C
HETATM   37  O3  UNL     1       2.126  15.843  51.707  1.00  0.00    -0.274 OA
ATOM     38  H1  UNL     1       3.646  13.399  50.264  1.00  0.00     0.169 HD
ENDBRANCH   2  34
BRANCH   1  39
HETATM   39  C2  UNL     1       4.349  11.543  52.128  1.00  0.00     0.311 C
HETATM   40  O2  UNL     1       4.814  10.536  52.789  1.00  0.00    -0.258 OA
BRANCH  39  41
HETATM   41  O1  UNL     1       5.352  12.256  51.531  1.00  0.00    -0.321 OA
HETATM   42  C1  UNL     1       6.735  12.037  51.727  1.00  0.00     0.213 C
ENDBRANCH  39  41
ENDBRANCH   1  39
TORSDOF 10
ENDMDL