MODEL 2
REMARK VINA RESULT: -6.768588329      2.886      5.493
REMARK  12 active torsions:
REMARK  status: ('A' for Active; 'I' for Inactive)
REMARK    1  A    between atoms: O1_2  and  C2_3
REMARK    2  A    between atoms: C2_3  and  C3_5
REMARK    3  A    between atoms: C3_5  and  N1_6
REMARK    4  A    between atoms: C3_5  and  C13_37
REMARK    5  A    between atoms: N1_6  and  C4_8
REMARK    6  A    between atoms: C4_8  and  C5_9
REMARK    7  A    between atoms: C4_8  and  C11_27
REMARK    8  A    between atoms: C8_14  and  N4_15
REMARK    9  A    between atoms: C9_20  and  N6_21
REMARK   10  A    between atoms: N9_33  and  N10_34
REMARK   11  A    between atoms: C13_37  and  O4_38
REMARK   12  A    between atoms: C13_37  and  O5_40
ROOT
HETATM    1  C4  UNL     1       1.775  15.065  51.596  1.00  0.00     0.188 C
ENDROOT
BRANCH   1   2
HETATM    2  N1  UNL     1       1.129  16.224  51.052  1.00  0.00    -0.390 N
ATOM      3  H1  UNL     1       0.508  16.163  50.246  1.00  0.00     0.155 HD
BRANCH   2   4
HETATM    4  C3  UNL     1       1.398  17.451  51.691  1.00  0.00     0.233 C
BRANCH   4   5
HETATM    5  C2  UNL     1       1.445  18.643  50.855  1.00  0.00     0.285 C
HETATM    6  O2  UNL     1       1.676  18.647  49.622  1.00  0.00    -0.263 OA
BRANCH   5   7
HETATM    7  O1  UNL     1       1.220  19.886  51.436  1.00  0.00    -0.325 OA
HETATM    8  C1  UNL     1       1.017  21.055  50.627  1.00  0.00     0.213 C
ENDBRANCH   5   7
ENDBRANCH   4   5
BRANCH   4   9
HETATM    9  C13 UNL     1       2.676  17.342  52.502  1.00  0.00     0.285 C
BRANCH   9  10
HETATM   10  O4  UNL     1       2.445  17.871  53.770  1.00  0.00    -0.369 OA
ATOM     11  H4  UNL     1       3.269  17.899  54.242  1.00  0.00     0.212 HD
ENDBRANCH   9  10
BRANCH   9  12
HETATM   12  O5  UNL     1       3.740  18.014  51.922  1.00  0.00    -0.369 OA
ATOM     13  H5  UNL     1       4.532  17.974  52.447  1.00  0.00     0.212 HD
ENDBRANCH   9  12
ENDBRANCH   4   9
ENDBRANCH   2   4
ENDBRANCH   1   2
BRANCH   1  14
HETATM   14  C5  UNL     1       2.614  14.484  50.498  1.00  0.00     0.036 A
HETATM   15  C6  UNL     1       3.422  13.343  50.572  1.00  0.00     0.124 A
HETATM   16  N2  UNL     1       4.012  13.160  49.367  1.00  0.00    -0.284 N
HETATM   17  C7  UNL     1       4.930  12.092  49.015  1.00  0.00     0.178 C
HETATM   18  N3  UNL     1       3.630  14.113  48.535  1.00  0.00    -0.067 N
HETATM   19  C8  UNL     1       3.949  14.341  47.243  1.00  0.00     0.713 A
HETATM   20  C10 UNL     1       2.781  14.927  49.203  1.00  0.00     0.171 A
HETATM   21  N5  UNL     1       3.402  15.399  46.631  1.00  0.00    -0.021 N
HETATM   22  C9  UNL     1       2.551  16.237  47.259  1.00  0.00     0.692 A
ATOM     23  H5  UNL     1       3.637  15.578  45.655  1.00  0.00     0.203 HD
HETATM   24  N7  UNL     1       2.257  15.979  48.547  1.00  0.00    -0.173 N
ATOM     25  H7  UNL     1       1.617  16.600  49.041  1.00  0.00     0.186 HD
BRANCH  19  26
HETATM   26  N4  UNL     1       4.758  13.569  46.593  1.00  0.00    -0.232 N
ATOM     27  H42 UNL     1       5.177  12.765  47.060  1.00  0.00     0.174 HD
ATOM     28  H41 UNL     1       4.996  13.739  45.616  1.00  0.00     0.174 HD
ENDBRANCH  19  26
BRANCH  22  29
HETATM   29  N6  UNL     1       2.013  17.261  46.681  1.00  0.00    -0.234 N
ATOM     30  H62 UNL     1       1.609  17.153  45.751  1.00  0.00     0.174 HD
ATOM     31  H61 UNL     1       1.973  18.185  47.110  1.00  0.00     0.174 HD
ENDBRANCH  22  29
ENDBRANCH   1  14
BRANCH   1  32
HETATM   32  C11 UNL     1       0.721  14.077  51.946  1.00  0.00     0.153 A
HETATM   33  N8  UNL     1      -0.442  13.897  51.305  1.00  0.00    -0.242 N
HETATM   34  O3  UNL     1      -1.129  12.958  51.868  1.00  0.00    -0.204 OA
ATOM     35  H8  UNL     1      -0.743  14.427  50.486  1.00  0.00     0.196 HD
HETATM   36  C12 UNL     1      -0.453  12.492  52.887  1.00  0.00     0.261 A
HETATM   37  S1  UNL     1      -0.902  11.295  53.915  1.00  0.00    -0.029 SA
HETATM   38  N9  UNL     1       0.709  13.180  52.952  1.00  0.00    -0.212 N
BRANCH  38  39
HETATM   39  N10 UNL     1       1.725  13.025  53.867  1.00  0.00    -0.334 N
ATOM     40 2H10 UNL     1       2.724  12.947  53.679  1.00  0.00     0.177 HD
ATOM     41 1H10 UNL     1       1.588  12.967  54.876  1.00  0.00     0.177 HD
ENDBRANCH  38  39
ENDBRANCH   1  32
TORSDOF 12
ENDMDL