MODEL 1
REMARK VINA RESULT: -4.723480486      0.000      0.000
REMARK  3 active torsions:
REMARK  status: ('A' for Active; 'I' for Inactive)
REMARK    1  A    between atoms: N2_4  and  C3_5
REMARK    2  A    between atoms: C3_5  and  C4_6
REMARK    3  A    between atoms: C4_6  and  N3_7
ROOT
HETATM    1  C1  UNL     1       8.086 -17.393 -39.580  1.00  0.00     0.180 C
HETATM    2  N1  UNL     1       8.607 -17.461 -40.950  1.00  0.00    -0.275 N
HETATM    3  C2  UNL     1       9.204 -16.453 -41.582  1.00  0.00     0.222 A
HETATM    4  N2  UNL     1       9.544 -16.883 -42.809  1.00  0.00    -0.269 N
HETATM    5  N4  UNL     1       9.149 -18.132 -42.894  1.00  0.00    -0.225 N
ATOM      6  H4  UNL     1       9.267 -18.732 -43.711  1.00  0.00     0.210 HD
HETATM    7  N5  UNL     1       8.578 -18.494 -41.768  1.00  0.00    -0.225 N
ATOM      8  H5  UNL     1       8.182 -19.411 -41.563  1.00  0.00     0.210 HD
ENDROOT
BRANCH   4   9
HETATM    9  C3  UNL     1      10.214 -16.073 -43.793  1.00  0.00     0.178 C
BRANCH   9  10
HETATM   10  C4  UNL     1      11.093 -16.955 -44.652  1.00  0.00     0.251 C
BRANCH  10  11
HETATM   11  N3  UNL     1      12.433 -16.938 -44.092  1.00  0.00    -0.078 N
ATOM     12  H33 UNL     1      12.909 -16.048 -44.236  1.00  0.00     0.274 HD
ATOM     13  H32 UNL     1      12.435 -16.932 -43.072  1.00  0.00     0.274 HD
ATOM     14  H31 UNL     1      12.949 -17.727 -44.482  1.00  0.00     0.274 HD
ENDBRANCH  10  11
ENDBRANCH   9  10
ENDBRANCH   4   9
TORSDOF 3
ENDMDL