MODEL 2
REMARK VINA RESULT: -4.829428632      1.671      1.926
REMARK  3 active torsions:
REMARK  status: ('A' for Active; 'I' for Inactive)
REMARK    1  A    between atoms: N3_5  and  C2_6
REMARK    2  A    between atoms: C2_6  and  C3_7
REMARK    3  A    between atoms: C3_7  and  N4_8
ROOT
HETATM    1  C1  UNL     1       9.879 -16.036 -40.598  1.00  0.00     0.195 C
HETATM    2  N1  UNL     1       8.842 -16.974 -40.999  1.00  0.00    -0.197 N
HETATM    3  N2  UNL     1       7.541 -16.858 -40.778  1.00  0.00     0.064 NA
HETATM    4  O1  UNL     1       6.933 -17.902 -41.289  1.00  0.00    -0.125 OA
HETATM    5  N3  UNL     1       7.803 -18.698 -41.838  1.00  0.00    -0.157 N
HETATM    6  N5  UNL     1       8.982 -18.114 -41.653  1.00  0.00     0.019 NA
ENDROOT
BRANCH   5   7
HETATM    7  C2  UNL     1       7.567 -19.962 -42.517  1.00  0.00     0.204 C
BRANCH   7   8
HETATM    8  C3  UNL     1       7.157 -19.744 -43.962  1.00  0.00     0.253 C
BRANCH   8   9
HETATM    9  N4  UNL     1       8.212 -18.912 -44.547  1.00  0.00    -0.078 N
ATOM     10  H43 UNL     1       7.885 -18.299 -45.294  1.00  0.00     0.274 HD
ATOM     11  H42 UNL     1       8.547 -18.176 -43.925  1.00  0.00     0.274 HD
ATOM     12  H41 UNL     1       8.941 -19.562 -44.842  1.00  0.00     0.274 HD
ENDBRANCH   8   9
ENDBRANCH   7   8
ENDBRANCH   5   7
TORSDOF 3
ENDMDL