MODEL 1
REMARK VINA RESULT: -5.139051401      0.000      0.000
REMARK  2 active torsions:
REMARK  status: ('A' for Active; 'I' for Inactive)
REMARK    1  A    between atoms: O1_2  and  C2_3
REMARK    2  A    between atoms: C2_3  and  N1_4
ROOT
HETATM    1  N1  UNL     1      10.542 -17.418 -43.279  1.00  0.00    -0.240 N
HETATM    2  N2  UNL     1      11.766 -17.046 -42.982  1.00  0.00    -0.223 N
ATOM      3  H2  UNL     1      12.119 -16.897 -42.037  1.00  0.00     0.210 HD
HETATM    4  N3  UNL     1      12.467 -16.893 -44.071  1.00  0.00    -0.227 N
ATOM      5  H3  UNL     1      13.446 -16.609 -44.114  1.00  0.00     0.210 HD
HETATM    6  N4  UNL     1      11.704 -17.164 -45.103  1.00  0.00    -0.272 N
ATOM      7  H4  UNL     1      11.977 -17.131 -46.086  1.00  0.00     0.190 HD
HETATM    8  C3  UNL     1      10.498 -17.494 -44.619  1.00  0.00     0.114 A
HETATM    9  C4  UNL     1       9.351 -17.870 -45.488  1.00  0.00     0.092 C
ENDROOT
BRANCH   1  10
HETATM   10  C2  UNL     1       9.492 -17.680 -42.337  1.00  0.00     0.319 C
BRANCH  10  11
HETATM   11  O1  UNL     1       8.771 -16.518 -42.007  1.00  0.00    -0.375 OA
HETATM   12  C1  UNL     1       8.995 -16.297 -40.634  1.00  0.00     0.203 C
ENDBRANCH  10  11
ENDBRANCH   1  10
TORSDOF 2
ENDMDL