MODEL 4
REMARK VINA RESULT: -4.911691351      2.086      2.722
REMARK  3 active torsions:
REMARK  status: ('A' for Active; 'I' for Inactive)
REMARK    1  A    between atoms: N1_1  and  C1_5
REMARK    2  A    between atoms: C1_5  and  O1_6
REMARK    3  A    between atoms: O1_6  and  C2_7
ROOT
HETATM    1  C2  UNL     1       9.423 -18.519 -43.031  1.00  0.00     0.285 C
HETATM    2  C3  UNL     1       8.514 -19.479 -42.307  1.00  0.00     0.228 C
HETATM    3  O2  UNL     1       7.225 -19.270 -42.850  1.00  0.00    -0.384 OA
HETATM    4  C4  UNL     1       7.283 -19.693 -44.164  1.00  0.00     0.194 C
HETATM    5  C5  UNL     1       8.361 -18.961 -44.940  1.00  0.00     0.197 C
HETATM    6  O3  UNL     1       9.608 -19.065 -44.320  1.00  0.00    -0.357 OA
ENDROOT
BRANCH   1   7
HETATM    7  O1  UNL     1      10.637 -18.329 -42.447  1.00  0.00    -0.333 OA
BRANCH   7   8
HETATM    8  C1  UNL     1      11.248 -17.136 -42.713  1.00  0.00     0.400 C
BRANCH   8   9
HETATM    9  N1  UNL     1      12.106 -17.146 -43.871  1.00  0.00    -0.058 N
ATOM     10  H13 UNL     1      12.357 -18.103 -44.118  1.00  0.00     0.276 HD
ATOM     11  H12 UNL     1      11.580 -16.882 -44.705  1.00  0.00     0.276 HD
ATOM     12  H11 UNL     1      12.945 -16.571 -43.785  1.00  0.00     0.276 HD
ENDBRANCH   8   9
ENDBRANCH   7   8
ENDBRANCH   1   7
TORSDOF 3
ENDMDL