MODEL 2
REMARK VINA RESULT: -5.973752812      1.168      1.192
REMARK  3 active torsions:
REMARK  status: ('A' for Active; 'I' for Inactive)
REMARK    1  A    between atoms: C2_5  and  O1_6
REMARK    2  A    between atoms: O1_6  and  C3_7
REMARK    3  A    between atoms: C3_7  and  N2_8
ROOT
HETATM    1  C3  UNL     1       9.724 -16.186 -42.390  1.00  0.00     0.338 C
ENDROOT
BRANCH   1   2
HETATM    2  O1  UNL     1      10.999 -16.739 -42.355  1.00  0.00    -0.335 OA
BRANCH   2   3
HETATM    3  C2  UNL     1      11.229 -17.418 -43.520  1.00  0.00     0.348 A
HETATM    4  C1  UNL     1      11.334 -16.813 -44.823  1.00  0.00     0.296 A
HETATM    5  N1  UNL     1      12.562 -16.981 -44.118  1.00  0.00    -0.043 N
ATOM      6  H12 UNL     1      13.462 -17.423 -44.306  1.00  0.00     0.280 HD
ATOM      7  H11 UNL     1      13.332 -16.376 -43.831  1.00  0.00     0.280 HD
ENDBRANCH   2   3
ENDBRANCH   1   2
BRANCH   1   8
HETATM    8  N2  UNL     1       9.065 -16.391 -41.118  1.00  0.00    -0.183 N
HETATM    9  N3  UNL     1       9.640 -16.823 -40.013  1.00  0.00    -0.211 N
HETATM   10  N4  UNL     1       8.761 -16.902 -39.022  1.00  0.00     0.006 NA
ATOM     11  H3  UNL     1      10.627 -17.065 -39.931  1.00  0.00     0.206 HD
HETATM   12  N5  UNL     1       7.608 -16.499 -39.555  1.00  0.00     0.008 NA
HETATM   13  N6  UNL     1       7.793 -16.190 -40.828  1.00  0.00     0.010 NA
ENDBRANCH   1   8
TORSDOF 3
ENDMDL