MODEL 1
REMARK VINA RESULT: -5.269329394      0.000      0.000
REMARK  4 active torsions:
REMARK  status: ('A' for Active; 'I' for Inactive)
REMARK    1  A    between atoms: N1_1  and  N2_4
REMARK    2  A    between atoms: N2_4  and  N3_5
REMARK    3  A    between atoms: N3_5  and  C1_7
REMARK    4  A    between atoms: N5_12  and  C4_13
ROOT
HETATM    1  C1  UNL     1       9.788 -17.064 -43.195  1.00  0.00     0.695 C
HETATM    2  N4  UNL     1       9.088 -17.998 -43.794  1.00  0.00    -0.223 N
ATOM      3  H4  UNL     1       8.978 -18.080 -44.804  1.00  0.00     0.177 HD
HETATM    4  C2  UNL     1       8.500 -18.885 -42.837  1.00  0.00     0.159 C
HETATM    5  C3  UNL     1       8.565 -18.097 -41.544  1.00  0.00     0.170 C
HETATM    6  N5  UNL     1       9.723 -17.254 -41.783  1.00  0.00    -0.157 N
ENDROOT
BRANCH   1   7
HETATM    7  N3  UNL     1      10.516 -16.009 -43.803  1.00  0.00    -0.116 N
ATOM      8  H3  UNL     1      10.286 -15.040 -43.579  1.00  0.00     0.203 HD
BRANCH   7   9
HETATM    9  N2  UNL     1      11.541 -16.287 -44.701  1.00  0.00    -0.015 NA
BRANCH   9  10
HETATM   10  N1  UNL     1      12.594 -16.997 -44.105  1.00  0.00    -0.328 N
ATOM     11  H12 UNL     1      13.048 -16.697 -43.241  1.00  0.00     0.174 HD
ATOM     12  H11 UNL     1      12.843 -17.835 -44.631  1.00  0.00     0.174 HD
ENDBRANCH   9  10
ENDBRANCH   7   9
ENDBRANCH   1   7
BRANCH   6  13
HETATM   13  C4  UNL     1      10.632 -16.707 -40.851  1.00  0.00     0.370 C
HETATM   14  O1  UNL     1      11.860 -16.965 -40.891  1.00  0.00    -0.283 OA
ENDBRANCH   6  13
TORSDOF 4
ENDMDL