MODEL 3
REMARK VINA RESULT: -4.429236114      2.012      2.232
REMARK  3 active torsions:
REMARK  status: ('A' for Active; 'I' for Inactive)
REMARK    1  A    between atoms: O1_2  and  C2_3
REMARK    2  A    between atoms: C2_3  and  C3_4
REMARK    3  A    between atoms: C3_4  and  N1_5
ROOT
HETATM    1  N1  UNL     1      10.834 -17.561 -44.426  1.00  0.00    -0.217 N
HETATM    2  N2  UNL     1      11.248 -17.257 -45.635  1.00  0.00    -0.277 N
ATOM      3  H2  UNL     1      10.704 -17.379 -46.489  1.00  0.00     0.189 HD
HETATM    4  C4  UNL     1      12.495 -16.763 -45.580  1.00  0.00     0.216 A
HETATM    5  N3  UNL     1      12.827 -16.779 -44.277  1.00  0.00    -0.279 N
ATOM      6  H3  UNL     1      13.715 -16.467 -43.883  1.00  0.00     0.189 HD
HETATM    7  N4  UNL     1      11.817 -17.261 -43.601  1.00  0.00    -0.225 N
ATOM      8  H4  UNL     1      11.793 -17.386 -42.588  1.00  0.00     0.210 HD
ENDROOT
BRANCH   1   9
HETATM    9  C3  UNL     1       9.533 -18.128 -44.037  1.00  0.00     0.197 C
BRANCH   9  10
HETATM   10  C2  UNL     1       8.755 -18.560 -45.247  1.00  0.00     0.190 C
BRANCH  10  11
HETATM   11  O1  UNL     1       7.468 -18.937 -44.914  1.00  0.00    -0.394 OA
HETATM   12  C1  UNL     1       7.358 -19.730 -43.803  1.00  0.00     0.201 C
ENDBRANCH  10  11
ENDBRANCH   9  10
ENDBRANCH   1   9
TORSDOF 3
ENDMDL