MODEL 1
REMARK VINA RESULT: -5.283394253      0.000      0.000
REMARK  3 active torsions:
REMARK  status: ('A' for Active; 'I' for Inactive)
REMARK    1  A    between atoms: O1_2  and  C2_3
REMARK    2  A    between atoms: C2_3  and  C3_4
REMARK    3  A    between atoms: C3_4  and  N1_5
ROOT
HETATM    1  N1  UNL     1      10.594 -17.251 -43.265  1.00  0.00    -0.269 N
HETATM    2  C4  UNL     1      10.466 -17.391 -44.606  1.00  0.00     0.219 A
HETATM    3  N2  UNL     1      11.660 -17.189 -45.147  1.00  0.00    -0.279 N
ATOM      4  H2  UNL     1      11.870 -17.230 -46.145  1.00  0.00     0.189 HD
HETATM    5  N3  UNL     1      12.543 -16.923 -44.183  1.00  0.00    -0.227 N
ATOM      6  H3  UNL     1      13.538 -16.725 -44.297  1.00  0.00     0.210 HD
HETATM    7  N4  UNL     1      11.871 -16.968 -43.062  1.00  0.00    -0.225 N
ATOM      8  H4  UNL     1      12.281 -16.806 -42.142  1.00  0.00     0.210 HD
ENDROOT
BRANCH   1   9
HETATM    9  C3  UNL     1       9.510 -17.399 -42.352  1.00  0.00     0.177 C
BRANCH   9  10
HETATM   10  C2  UNL     1       9.133 -16.102 -41.673  1.00  0.00     0.189 C
BRANCH  10  11
HETATM   11  O1  UNL     1       7.941 -16.276 -40.990  1.00  0.00    -0.394 OA
HETATM   12  C1  UNL     1       8.056 -17.085 -39.886  1.00  0.00     0.201 C
ENDBRANCH  10  11
ENDBRANCH   9  10
ENDBRANCH   1   9
TORSDOF 3
ENDMDL