MODEL 3
REMARK VINA RESULT: -5.217828393      1.071      1.223
REMARK  3 active torsions:
REMARK  status: ('A' for Active; 'I' for Inactive)
REMARK    1  A    between atoms: O1_2  and  N1_3
REMARK    2  A    between atoms: C2_5  and  C3_6
REMARK    3  A    between atoms: N3_10  and  O2_11
ROOT
HETATM    1  C3  UNL     1      10.017 -17.203 -43.152  1.00  0.00     0.086 A
HETATM    2  C4  UNL     1      11.401 -17.364 -43.125  1.00  0.00     0.143 A
HETATM    3  N2  UNL     1      11.815 -17.224 -44.376  1.00  0.00    -0.268 N
ATOM      4  H2  UNL     1      12.780 -17.286 -44.698  1.00  0.00     0.190 HD
HETATM    5  N3  UNL     1      10.757 -16.991 -45.135  1.00  0.00    -0.095 N
HETATM    6  N4  UNL     1       9.663 -16.972 -44.429  1.00  0.00    -0.257 N
ATOM      7  H4  UNL     1       8.718 -16.813 -44.778  1.00  0.00     0.191 HD
ENDROOT
BRANCH   1   8
HETATM    8  C2  UNL     1       9.107 -17.269 -42.020  1.00  0.00     0.146 C
HETATM    9  N1  UNL     1       8.747 -16.172 -41.452  1.00  0.00    -0.276 N
ATOM     10  H1  UNL     1       9.090 -15.271 -41.785  1.00  0.00     0.193 HD
BRANCH   9  11
HETATM   11  O1  UNL     1       7.886 -16.251 -40.384  1.00  0.00    -0.286 OA
HETATM   12  C1  UNL     1       8.026 -17.285 -39.430  1.00  0.00     0.237 C
ENDBRANCH   9  11
ENDBRANCH   1   8
BRANCH   5  13
HETATM   13  O2  UNL     1      10.838 -16.798 -46.488  1.00  0.00    -0.253 OA
ATOM     14  H2  UNL     1      10.163 -16.357 -46.990  1.00  0.00     0.248 HD
ENDBRANCH   5  13
TORSDOF 3
ENDMDL