MODEL 2
REMARK VINA RESULT: -7.236846923      3.410      4.603
REMARK  5 active torsions:
REMARK  status: ('A' for Active; 'I' for Inactive)
REMARK    1  A    between atoms: N3_6  and  O1_7
REMARK    2  A    between atoms: O1_7  and  C3_8
REMARK    3  A    between atoms: C3_8  and  C4_9
REMARK    4  A    between atoms: N4_19  and  C13_20
REMARK    5  A    between atoms: C13_20  and  N5_22
ROOT
HETATM    1  N1  UNL     1      -3.058   4.103   9.614  1.00  0.00    -0.171 NA
HETATM    2  C1  UNL     1      -3.462   4.083  10.699  1.00  0.00     0.196 C
HETATM    3  N2  UNL     1      -3.931   4.102  11.946  1.00  0.00    -0.123 N
ATOM      4  H2  UNL     1      -4.187   5.048  12.227  1.00  0.00     0.197 HD
HETATM    5  C2  UNL     1      -4.146   3.291  12.863  1.00  0.00     0.729 A
HETATM    6  N3  UNL     1      -4.669   3.855  14.022  1.00  0.00    -0.060 N
HETATM    7  C10 UNL     1      -4.923   3.041  15.044  1.00  0.00     0.148 A
HETATM    8  C11 UNL     1      -4.694   1.687  15.011  1.00  0.00     0.096 A
HETATM    9  C12 UNL     1      -4.179   1.178  13.853  1.00  0.00     0.270 A
HETATM   10  O2  UNL     1      -3.935  -0.083  13.740  1.00  0.00    -0.267 OA
HETATM   11  N4  UNL     1      -3.916   1.973  12.812  1.00  0.00    -0.082 N
ENDROOT
BRANCH   6  12
HETATM   12  O1  UNL     1      -4.907   5.214  14.076  1.00  0.00    -0.256 OA
BRANCH  12  13
HETATM   13  C3  UNL     1      -6.232   5.632  13.817  1.00  0.00     0.241 C
BRANCH  13  14
HETATM   14  C4  UNL     1      -6.291   6.676  12.768  1.00  0.00    -0.032 A
HETATM   15  C5  UNL     1      -7.531   7.201  12.472  1.00  0.00     0.009 A
HETATM   16  C6  UNL     1      -7.698   8.184  11.504  1.00  0.00     0.001 A
HETATM   17  C7  UNL     1      -6.586   8.636  10.832  1.00  0.00     0.000 A
HETATM   18  C8  UNL     1      -5.342   8.112  11.125  1.00  0.00     0.001 A
HETATM   19  C9  UNL     1      -5.194   7.135  12.090  1.00  0.00     0.009 A
ENDBRANCH  13  14
ENDBRANCH  12  13
ENDBRANCH   6  12
BRANCH  11  20
HETATM   20  C13 UNL     1      -3.373   1.317  11.638  1.00  0.00     0.204 C
HETATM   21  S1  UNL     1      -1.766   1.195  11.433  1.00  0.00    -0.039 SA
BRANCH  20  22
HETATM   22  N5  UNL     1      -4.242   0.808  10.651  1.00  0.00    -0.309 N
HETATM   23  C14 UNL     1      -4.360  -0.387  10.255  1.00  0.00     0.203 C
HETATM   24  N6  UNL     1      -5.302  -0.695   9.241  1.00  0.00    -0.066 NA
HETATM   25  N7  UNL     1      -3.569  -1.412  10.810  1.00  0.00    -0.066 NA
ATOM     26  H5  UNL     1      -4.852   1.490  10.199  1.00  0.00     0.170 HD
ENDBRANCH  20  22
ENDBRANCH  11  20
TORSDOF 5
ENDMDL