MODEL 1
REMARK VINA RESULT: -7.727199137      0.000      0.000
REMARK  6 active torsions:
REMARK  status: ('A' for Active; 'I' for Inactive)
REMARK    1  A    between atoms: O1_1  and  N1_3
REMARK    2  A    between atoms: C3_6  and  O2_7
REMARK    3  A    between atoms: N2_9  and  O3_10
REMARK    4  A    between atoms: N3_12  and  C4_13
REMARK    5  A    between atoms: C4_13  and  C5_14
REMARK    6  A    between atoms: C12_23  and  N5_24
ROOT
HETATM    1  N1  UNL     1      -4.912   4.436  10.893  1.00  0.00    -0.049 N
HETATM    2  C1  UNL     1      -4.737   3.172  11.294  1.00  0.00     0.131 A
HETATM    3  C2  UNL     1      -4.784   1.927  10.746  1.00  0.00     0.096 A
HETATM    4  C3  UNL     1      -4.571   0.782  11.436  1.00  0.00     0.188 A
HETATM    5  N2  UNL     1      -4.294   0.898  12.768  1.00  0.00    -0.135 N
HETATM    6  N3  UNL     1      -4.223   2.052  13.402  1.00  0.00    -0.241 N
HETATM    7  C11 UNL     1      -4.431   3.220  12.739  1.00  0.00     0.170 A
HETATM    8  N4  UNL     1      -4.457   4.521  13.046  1.00  0.00    -0.171 N
ATOM      9  H4  UNL     1      -4.285   4.909  13.973  1.00  0.00     0.186 HD
HETATM   10  C12 UNL     1      -4.743   5.242  11.945  1.00  0.00     0.709 A
ENDROOT
BRANCH   6  11
HETATM   11  C4  UNL     1      -3.916   2.127  14.791  1.00  0.00     0.192 C
BRANCH  11  12
HETATM   12  C5  UNL     1      -4.981   1.894  15.748  1.00  0.00    -0.038 A
HETATM   13  C6  UNL     1      -4.937   0.768  16.529  1.00  0.00     0.009 A
HETATM   14  C7  UNL     1      -5.910   0.502  17.454  1.00  0.00     0.001 A
HETATM   15  C8  UNL     1      -6.949   1.399  17.589  1.00  0.00     0.000 A
HETATM   16  C9  UNL     1      -7.059   2.550  16.839  1.00  0.00     0.001 A
HETATM   17  C10 UNL     1      -6.023   2.763  15.905  1.00  0.00     0.009 A
ENDBRANCH  11  12
ENDBRANCH   6  11
BRANCH   5  18
HETATM   18  O3  UNL     1      -4.088  -0.241  13.495  1.00  0.00    -0.266 OA
ATOM     19  H3  UNL     1      -4.155  -0.194  14.441  1.00  0.00     0.247 HD
ENDBRANCH   5  18
BRANCH   4  20
HETATM   20  O2  UNL     1      -4.616  -0.498  10.893  1.00  0.00    -0.343 OA
ATOM     21  H2  UNL     1      -4.186  -0.765  10.089  1.00  0.00     0.219 HD
ENDBRANCH   4  20
BRANCH   1  22
HETATM   22  O1  UNL     1      -5.212   4.797   9.583  1.00  0.00    -0.269 OA
ATOM     23  H1  UNL     1      -4.983   4.273   8.825  1.00  0.00     0.245 HD
ENDBRANCH   1  22
BRANCH  10  24
HETATM   24  N5  UNL     1      -4.873   6.656  11.907  1.00  0.00    -0.212 N
HETATM   25  C13 UNL     1      -6.134   7.363  11.923  1.00  0.00     0.160 C
HETATM   26  C14 UNL     1      -6.301   7.978  10.552  1.00  0.00     0.134 C
HETATM   27  N6  UNL     1      -5.056   8.384   9.979  1.00  0.00    -0.418 N
HETATM   28  C15 UNL     1      -4.010   8.669  10.931  1.00  0.00     0.134 C
ATOM     29  H6  UNL     1      -4.918   8.466   8.971  1.00  0.00     0.153 HD
HETATM   30  C16 UNL     1      -3.680   7.490  11.829  1.00  0.00     0.160 C
ENDBRANCH  10  24
TORSDOF 6
ENDMDL