MODEL 3
REMARK VINA RESULT: -7.301675801      2.633      6.449
REMARK  4 active torsions:
REMARK  status: ('A' for Active; 'I' for Inactive)
REMARK    1  A    between atoms: C4_5  and  N2_6
REMARK    2  A    between atoms: N2_6  and  C5_8
REMARK    3  A    between atoms: C6_11  and  N4_12
REMARK    4  A    between atoms: C11_20  and  N6_21
ROOT
HETATM    1  C5  UNL     1      -3.901   5.607  12.719  1.00  0.00     0.711 A
HETATM    2  N3  UNL     1      -4.373   4.529  13.370  1.00  0.00    -0.021 N
ATOM      3  H3  UNL     1      -5.293   4.580  13.807  1.00  0.00     0.203 HD
HETATM    4  C6  UNL     1      -3.672   3.392  13.460  1.00  0.00     0.709 A
HETATM    5  N5  UNL     1      -2.464   3.337  12.880  1.00  0.00    -0.021 N
ATOM      6  H5  UNL     1      -1.923   2.474  12.943  1.00  0.00     0.203 HD
HETATM    7  C11 UNL     1      -1.941   4.394  12.213  1.00  0.00     0.710 A
HETATM    8  N8  UNL     1      -2.686   5.506  12.154  1.00  0.00    -0.021 N
ATOM      9  H8  UNL     1      -2.313   6.314  11.657  1.00  0.00     0.203 HD
ENDROOT
BRANCH   1  10
HETATM   10  N2  UNL     1      -4.598   6.690  12.647  1.00  0.00    -0.191 N
ATOM     11  H2  UNL     1      -4.510   7.399  13.374  1.00  0.00     0.184 HD
BRANCH  10  12
HETATM   12  C4  UNL     1      -5.487   6.899  11.558  1.00  0.00     0.051 A
HETATM   13  C3  UNL     1      -5.289   6.340  10.318  1.00  0.00     0.047 A
HETATM   14  C2  UNL     1      -6.206   6.602   9.324  1.00  0.00     0.092 A
HETATM   15  N1  UNL     1      -7.294   7.398   9.556  1.00  0.00    -0.371 N
HETATM   16  C1  UNL     1      -8.231   7.651   8.501  1.00  0.00     0.154 C
HETATM   17  C16 UNL     1      -7.500   7.951  10.764  1.00  0.00     0.092 A
HETATM   18  C15 UNL     1      -6.602   7.707  11.771  1.00  0.00     0.047 A
ENDBRANCH  10  12
ENDBRANCH   1  10
BRANCH   4  19
HETATM   19  N4  UNL     1      -4.239   2.301  14.165  1.00  0.00    -0.213 N
HETATM   20  C7  UNL     1      -4.103   0.956  13.656  1.00  0.00     0.167 C
HETATM   21  C8  UNL     1      -4.163  -0.064  14.771  1.00  0.00     0.188 C
HETATM   22  O1  UNL     1      -3.790   0.425  15.985  1.00  0.00    -0.388 OA
HETATM   23  C9  UNL     1      -4.384   1.562  16.422  1.00  0.00     0.188 C
HETATM   24  C10 UNL     1      -4.968   2.468  15.403  1.00  0.00     0.167 C
ENDBRANCH   4  19
BRANCH   7  25
HETATM   25  N6  UNL     1      -0.647   4.310  11.601  1.00  0.00    -0.191 N
HETATM   26  C12 UNL     1      -0.287   3.270  10.656  1.00  0.00     0.170 C
HETATM   27  C13 UNL     1       1.119   3.579  10.258  1.00  0.00     0.254 C
HETATM   28  N7  UNL     1       1.620   4.306  11.411  1.00  0.00    -0.057 N
HETATM   29  C14 UNL     1       0.494   5.150  11.755  1.00  0.00     0.374 C
ATOM     30  H72 UNL     1       1.967   3.722  12.170  1.00  0.00     0.279 HD
ATOM     31  H71 UNL     1       2.498   4.801  11.259  1.00  0.00     0.279 HD
ENDBRANCH   7  25
TORSDOF 4
ENDMDL