MODEL 4
REMARK VINA RESULT: -7.704035220      2.498      4.301
REMARK  3 active torsions:
REMARK  status: ('A' for Active; 'I' for Inactive)
REMARK    1  A    between atoms: C4_6  and  C5_7
REMARK    2  A    between atoms: N4_18  and  N5_19
REMARK       I    between atoms: N5_19  and  C9_21
REMARK    3  A    between atoms: C9_21  and  C10_23
ROOT
HETATM    1  C1  UNL     1      -2.005   2.065  11.463  1.00  0.00     0.065 C
HETATM    2  C2  UNL     1      -2.868   3.040  11.340  1.00  0.00     0.122 A
HETATM    3  N1  UNL     1      -2.788   3.870  10.252  1.00  0.00    -0.337 N
ATOM      4  H1  UNL     1      -2.132   3.773   9.477  1.00  0.00     0.167 HD
HETATM    5  C3  UNL     1      -3.710   4.826  10.377  1.00  0.00     0.105 A
HETATM    6  C4  UNL     1      -3.952   5.832   9.522  1.00  0.00     0.055 C
HETATM    7  C8  UNL     1      -4.357   4.576  11.547  1.00  0.00     0.295 A
HETATM    8  O2  UNL     1      -5.297   5.257  12.020  1.00  0.00    -0.264 OA
HETATM    9  N4  UNL     1      -3.829   3.438  12.163  1.00  0.00    -0.200 N
ENDROOT
BRANCH   6  10
HETATM   10  C5  UNL     1      -4.992   6.814   9.776  1.00  0.00     0.030 A
HETATM   11  C6  UNL     1      -6.229   6.725   9.172  1.00  0.00     0.096 A
HETATM   12  C7  UNL     1      -7.237   7.627   9.382  1.00  0.00     0.261 A
HETATM   13  O1  UNL     1      -8.327   7.398   8.742  1.00  0.00    -0.267 OA
HETATM   14  N2  UNL     1      -7.205   8.694  10.164  1.00  0.00    -0.260 N
HETATM   15  N3  UNL     1      -6.198   9.112  10.903  1.00  0.00    -0.266 N
ATOM     16  H2  UNL     1      -8.055   9.256  10.197  1.00  0.00     0.191 HD
HETATM   17  S1  UNL     1      -4.822   8.154  10.813  1.00  0.00     0.001 SA
ATOM     18  H3  UNL     1      -6.250   9.950  11.483  1.00  0.00     0.195 HD
ENDBRANCH   6  10
BRANCH   9  19
HETATM   19  N5  UNL     1      -4.400   2.900  13.285  1.00  0.00    -0.254 N
HETATM   20  C9  UNL     1      -4.093   2.945  14.639  1.00  0.00     0.270 C
HETATM   21  O3  UNL     1      -3.119   3.521  15.141  1.00  0.00    -0.266 OA
ATOM     22  H5  UNL     1      -5.231   2.345  13.083  1.00  0.00     0.191 HD
BRANCH  20  23
HETATM   23  C10 UNL     1      -4.985   2.252  15.604  1.00  0.00     0.033 A
HETATM   24  C11 UNL     1      -4.657   1.043  16.157  1.00  0.00     0.017 A
HETATM   25  C12 UNL     1      -5.511   0.410  17.075  1.00  0.00     0.001 A
HETATM   26  C13 UNL     1      -6.701   0.996  17.438  1.00  0.00     0.000 A
HETATM   27  C14 UNL     1      -7.020   2.212  16.873  1.00  0.00     0.001 A
HETATM   28  C15 UNL     1      -6.181   2.831  15.974  1.00  0.00     0.017 A
ENDBRANCH  20  23
ENDBRANCH   9  19
TORSDOF 3
ENDMDL