MODEL 2
REMARK VINA RESULT: -7.756952014      3.158      4.768
REMARK  4 active torsions:
REMARK  status: ('A' for Active; 'I' for Inactive)
REMARK    1  A    between atoms: C1_2  and  C2_3
REMARK    2  A    between atoms: C4_6  and  N1_7
REMARK       I    between atoms: N1_7  and  C5_9
REMARK    3  A    between atoms: C5_9  and  C6_11
REMARK    4  A    between atoms: C6_11  and  N2_12
ROOT
HETATM    1  N2  UNL     1      -4.424   1.307  12.693  1.00  0.00    -0.244 N
HETATM    2  N3  UNL     1      -4.042   1.246  13.952  1.00  0.00    -0.260 N
ATOM      3  H3  UNL     1      -3.512   0.442  14.291  1.00  0.00     0.190 HD
HETATM    4  C7  UNL     1      -4.355   2.250  14.786  1.00  0.00     0.272 A
HETATM    5  O3  UNL     1      -4.001   2.217  15.997  1.00  0.00    -0.266 OA
HETATM    6  C8  UNL     1      -5.067   3.363  14.393  1.00  0.00     0.066 A
HETATM    7  C9  UNL     1      -5.380   4.394  15.262  1.00  0.00     0.021 A
HETATM    8  C10 UNL     1      -6.097   5.492  14.805  1.00  0.00     0.018 A
HETATM    9  C11 UNL     1      -6.477   5.517  13.479  1.00  0.00     0.088 A
HETATM   10  N4  UNL     1      -6.155   4.500  12.664  1.00  0.00    -0.361 N
ATOM     11  H4  UNL     1      -6.449   4.548  11.688  1.00  0.00     0.165 HD
HETATM   12  C12 UNL     1      -5.460   3.417  13.074  1.00  0.00     0.118 A
HETATM   13  C13 UNL     1      -5.125   2.373  12.241  1.00  0.00     0.290 A
HETATM   14  O4  UNL     1      -5.503   2.453  11.035  1.00  0.00    -0.264 OA
ENDROOT
BRANCH   1  15
HETATM   15  C6  UNL     1      -4.075   0.231  11.781  1.00  0.00     0.255 C
BRANCH  15  16
HETATM   16  C5  UNL     1      -2.798   0.501  11.116  1.00  0.00     0.243 C
HETATM   17  N1  UNL     1      -1.703   1.203  11.630  1.00  0.00    -0.306 N
ATOM     18  H1  UNL     1      -1.236   0.870  12.474  1.00  0.00     0.171 HD
HETATM   19  O2  UNL     1      -2.674   0.042   9.924  1.00  0.00    -0.271 OA
BRANCH  17  20
HETATM   20  C4  UNL     1      -1.272   2.292  11.029  1.00  0.00     0.151 A
HETATM   21  S1  UNL     1      -2.112   3.748  10.759  1.00  0.00    -0.063 SA
HETATM   22  C3  UNL     1      -0.875   4.603   9.951  1.00  0.00     0.086 A
HETATM   23  C2  UNL     1       0.148   3.691   9.932  1.00  0.00     0.078 A
HETATM   24  N5  UNL     1      -0.081   2.522  10.487  1.00  0.00    -0.334 N
ATOM     25  H5  UNL     1       0.643   1.803  10.502  1.00  0.00     0.168 HD
BRANCH  23  26
HETATM   26  C1  UNL     1       1.450   4.016   9.305  1.00  0.00     0.288 C
HETATM   27  O1  UNL     1       2.404   3.170   9.439  1.00  0.00    -0.300 OA
ENDBRANCH  23  26
ENDBRANCH  17  20
ENDBRANCH  15  16
ENDBRANCH   1  15
TORSDOF 4
ENDMDL