MODEL 5
REMARK VINA RESULT: -6.541032274      3.898      4.844
REMARK  5 active torsions:
REMARK  status: ('A' for Active; 'I' for Inactive)
REMARK    1  A    between atoms: N3_9  and  C5_10
REMARK    2  A    between atoms: C5_10  and  C6_11
REMARK       I    between atoms: C6_11  and  N4_13
REMARK    3  A    between atoms: C13_25  and  C14_26
REMARK    4  A    between atoms: C14_26  and  C15_27
REMARK    5  A    between atoms: C15_27  and  N6_28
ROOT
HETATM    1  C1  UNL     1      -6.367   9.698  10.129  1.00  0.00     0.044 C
HETATM    2  C2  UNL     1      -5.985   8.481  10.389  1.00  0.00     0.034 A
HETATM    3  N1  UNL     1      -5.018   8.392  11.383  1.00  0.00    -0.342 N
ATOM      4  H1  UNL     1      -4.674   9.239  11.835  1.00  0.00     0.167 HD
HETATM    5  C3  UNL     1      -4.549   7.222  11.742  1.00  0.00     0.122 A
HETATM    6  N2  UNL     1      -3.606   7.180  12.716  1.00  0.00    -0.338 N
ATOM      7  H2  UNL     1      -3.292   8.052  13.140  1.00  0.00     0.168 HD
HETATM    8  C4  UNL     1      -3.076   6.021  13.137  1.00  0.00     0.188 A
HETATM    9  N3  UNL     1      -3.495   4.879  12.576  1.00  0.00    -0.301 N
HETATM   10  C10 UNL     1      -4.426   4.874  11.608  1.00  0.00     0.263 A
HETATM   11  O2  UNL     1      -4.829   3.816  11.070  1.00  0.00    -0.267 OA
HETATM   12  C11 UNL     1      -4.980   6.054  11.164  1.00  0.00     0.077 A
HETATM   13  C12 UNL     1      -5.925   6.137  10.190  1.00  0.00     0.034 A
HETATM   14  C13 UNL     1      -6.475   7.394   9.758  1.00  0.00    -0.008 A
ENDROOT
BRANCH   9  15
HETATM   15  C5  UNL     1      -2.906   3.631  13.048  1.00  0.00     0.236 C
BRANCH  15  16
HETATM   16  C6  UNL     1      -3.890   2.904  13.862  1.00  0.00     0.241 C
HETATM   17  O1  UNL     1      -4.421   3.486  14.847  1.00  0.00    -0.271 OA
HETATM   18  N4  UNL     1      -4.271   1.597  13.602  1.00  0.00    -0.306 N
HETATM   19  C7  UNL     1      -3.804   0.838  12.672  1.00  0.00     0.150 A
ATOM     20  H4  UNL     1      -4.990   1.197  14.205  1.00  0.00     0.171 HD
HETATM   21  N5  UNL     1      -4.168  -0.428  12.417  1.00  0.00    -0.346 N
HETATM   22  S1  UNL     1      -2.615   1.125  11.478  1.00  0.00    -0.064 SA
HETATM   23  C8  UNL     1      -3.595  -1.051  11.437  1.00  0.00     0.097 A
ATOM     24  H5  UNL     1      -4.881  -0.889  12.982  1.00  0.00     0.167 HD
HETATM   25  C9  UNL     1      -2.644  -0.397  10.707  1.00  0.00     0.070 A
ENDBRANCH  15  16
ENDBRANCH   9  15
BRANCH  14  26
HETATM   26  C14 UNL     1      -7.362   7.315   8.827  1.00  0.00     0.030 C
BRANCH  26  27
HETATM   27  C15 UNL     1      -7.639   6.405   7.773  1.00  0.00     0.081 C
BRANCH  27  28
HETATM   28  N6  UNL     1      -6.757   6.296   6.766  1.00  0.00    -0.408 N
ATOM     29  H62 UNL     1      -5.804   5.988   6.960  1.00  0.00     0.155 HD
ATOM     30  H61 UNL     1      -7.061   6.527   5.820  1.00  0.00     0.155 HD
ENDBRANCH  27  28
ENDBRANCH  26  27
ENDBRANCH  14  26
TORSDOF 5
ENDMDL