MODEL 3
REMARK VINA RESULT: -7.754947695      1.652      2.089
REMARK  5 active torsions:
REMARK  status: ('A' for Active; 'I' for Inactive)
REMARK    1  A    between atoms: C3_3  and  C4_4
REMARK    2  A    between atoms: C4_4  and  C5_5
REMARK    3  A    between atoms: N5_19  and  C9_20
REMARK    4  A    between atoms: C13_24  and  C14_25
REMARK    5  A    between atoms: C14_25  and  O4_27
ROOT
HETATM    1  C1  UNL     1      -6.754   4.475  13.285  1.00  0.00     0.046 C
HETATM    2  C2  UNL     1      -5.545   4.975  13.376  1.00  0.00     0.059 A
HETATM    3  C3  UNL     1      -4.534   4.521  14.170  1.00  0.00     0.011 A
HETATM    4  C8  UNL     1      -3.456   5.404  13.892  1.00  0.00     0.121 A
HETATM    5  N4  UNL     1      -3.880   6.293  12.987  1.00  0.00    -0.304 N
ATOM      6  H4  UNL     1      -3.304   7.046  12.608  1.00  0.00     0.186 HD
HETATM    7  N5  UNL     1      -5.114   6.078  12.651  1.00  0.00    -0.257 N
ENDROOT
BRANCH   3   8
HETATM    8  C4  UNL     1      -4.415   3.543  15.022  1.00  0.00     0.050 C
BRANCH   8   9
HETATM    9  C5  UNL     1      -4.239   2.146  14.790  1.00  0.00     0.107 A
HETATM   10  N1  UNL     1      -4.088   1.722  13.523  1.00  0.00    -0.303 N
HETATM   11  C6  UNL     1      -3.952   0.429  13.230  1.00  0.00     0.339 A
ATOM     12  H1  UNL     1      -4.076   2.407  12.767  1.00  0.00     0.171 HD
HETATM   13  O1  UNL     1      -3.811   0.070  12.033  1.00  0.00    -0.245 OA
HETATM   14  N2  UNL     1      -3.964  -0.486  14.213  1.00  0.00    -0.248 N
HETATM   15  N3  UNL     1      -4.109  -0.107  15.471  1.00  0.00    -0.261 N
ATOM     16  H2  UNL     1      -3.860  -1.475  13.989  1.00  0.00     0.192 HD
HETATM   17  C7  UNL     1      -4.249   1.186  15.794  1.00  0.00     0.286 A
ATOM     18  H3  UNL     1      -4.116  -0.810  16.208  1.00  0.00     0.190 HD
HETATM   19  O2  UNL     1      -4.392   1.578  16.995  1.00  0.00    -0.264 OA
ENDBRANCH   8   9
ENDBRANCH   3   8
BRANCH   7  20
HETATM   20  C9  UNL     1      -5.949   6.776  11.730  1.00  0.00     0.058 A
HETATM   21  C10 UNL     1      -6.727   7.825  12.186  1.00  0.00     0.031 A
HETATM   22  C11 UNL     1      -7.560   8.549  11.361  1.00  0.00     0.003 A
HETATM   23  C12 UNL     1      -7.592   8.185  10.032  1.00  0.00     0.018 A
HETATM   24  C13 UNL     1      -6.814   7.131   9.553  1.00  0.00     0.041 A
HETATM   25  C16 UNL     1      -5.991   6.424  10.399  1.00  0.00     0.049 A
BRANCH  24  26
HETATM   26  C14 UNL     1      -6.901   6.808   8.148  1.00  0.00     0.293 C
HETATM   27  O3  UNL     1      -7.682   5.895   7.784  1.00  0.00    -0.259 OA
BRANCH  26  28
HETATM   28  O4  UNL     1      -6.170   7.447   7.173  1.00  0.00    -0.323 OA
HETATM   29  C15 UNL     1      -5.369   6.740   6.219  1.00  0.00     0.213 C
ENDBRANCH  26  28
ENDBRANCH  24  26
ENDBRANCH   7  20
TORSDOF 5
ENDMDL