MODEL 4
REMARK VINA RESULT: -7.159435073      1.798      4.620
REMARK  7 active torsions:
REMARK  status: ('A' for Active; 'I' for Inactive)
REMARK    1  A    between atoms: O1_1  and  N1_3
REMARK    2  A    between atoms: C1_4  and  N2_5
REMARK    3  A    between atoms: N2_5  and  C2_7
REMARK    4  A    between atoms: C2_7  and  C3_8
REMARK    5  A    between atoms: C3_8  and  O2_9
REMARK    6  A    between atoms: N5_20  and  O3_21
REMARK    7  A    between atoms: N6_24  and  O4_25
ROOT
HETATM    1  N1  UNL     1      -3.585   3.030  11.431  1.00  0.00    -0.204 N
HETATM    2  C1  UNL     1      -3.764   2.117  12.394  1.00  0.00     0.160 C
HETATM    3  C4  UNL     1      -4.478   2.370  13.566  1.00  0.00     0.128 A
HETATM    4  N3  UNL     1      -4.369   1.317  14.395  1.00  0.00    -0.347 N
ATOM      5  H3  UNL     1      -3.821   0.504  14.113  1.00  0.00     0.166 HD
HETATM    6  C5  UNL     1      -4.981   1.330  15.601  1.00  0.00     0.081 A
HETATM    7  C6  UNL     1      -5.045   0.412  16.642  1.00  0.00     0.050 A
HETATM    8  C7  UNL     1      -5.819   0.978  17.619  1.00  0.00     0.092 A
HETATM    9  N4  UNL     1      -6.230   2.195  17.227  1.00  0.00    -0.349 N
ATOM     10  H4  UNL     1      -6.819   2.833  17.764  1.00  0.00     0.167 HD
HETATM   11  C8  UNL     1      -5.724   2.424  15.991  1.00  0.00     0.162 A
HETATM   12  N5  UNL     1      -5.836   3.486  15.156  1.00  0.00    -0.184 N
HETATM   13  C9  UNL     1      -5.225   3.478  13.949  1.00  0.00     0.193 A
HETATM   14  N6  UNL     1      -5.432   4.602  13.244  1.00  0.00    -0.201 N
HETATM   15  C10 UNL     1      -4.743   5.089  12.195  1.00  0.00     0.094 A
HETATM   16  C11 UNL     1      -4.947   6.434  11.986  1.00  0.00     0.034 A
HETATM   17  C12 UNL     1      -4.318   7.082  10.958  1.00  0.00     0.002 A
HETATM   18  C13 UNL     1      -3.476   6.343  10.140  1.00  0.00     0.002 A
HETATM   19  C14 UNL     1      -3.265   4.994  10.339  1.00  0.00     0.034 A
HETATM   20  C15 UNL     1      -3.906   4.339  11.387  1.00  0.00     0.094 A
ENDROOT
BRANCH   2  21
HETATM   21  N2  UNL     1      -3.229   0.833  12.264  1.00  0.00    -0.370 N
ATOM     22  H2  UNL     1      -2.237   0.743  12.486  1.00  0.00     0.161 HD
BRANCH  21  23
HETATM   23  C2  UNL     1      -3.886  -0.370  11.861  1.00  0.00     0.147 C
BRANCH  23  24
HETATM   24  C3  UNL     1      -3.531  -0.735  10.406  1.00  0.00     0.183 C
BRANCH  24  25
HETATM   25  O2  UNL     1      -4.383   0.009   9.584  1.00  0.00    -0.399 OA
ATOM     26  H2  UNL     1      -4.640  -0.561   8.869  1.00  0.00     0.209 HD
ENDBRANCH  24  25
ENDBRANCH  23  24
ENDBRANCH  21  23
ENDBRANCH   2  21
BRANCH   1  27
HETATM   27  O1  UNL     1      -2.983   2.591  10.307  1.00  0.00    -0.281 OA
ATOM     28  H1  UNL     1      -3.507   2.624   9.515  1.00  0.00     0.245 HD
ENDBRANCH   1  27
BRANCH  12  29
HETATM   29  O3  UNL     1      -6.561   4.606  15.485  1.00  0.00    -0.279 OA
ATOM     30  H3  UNL     1      -7.352   4.854  15.019  1.00  0.00     0.245 HD
ENDBRANCH  12  29
BRANCH  14  31
HETATM   31  O4  UNL     1      -6.492   5.370  13.643  1.00  0.00    -0.281 OA
ATOM     32  H4  UNL     1      -7.277   5.300  13.111  1.00  0.00     0.245 HD
ENDBRANCH  14  31
TORSDOF 7
ENDMDL