MODEL 4
REMARK VINA RESULT: -7.975578183      2.923      8.160
REMARK  4 active torsions:
REMARK  status: ('A' for Active; 'I' for Inactive)
REMARK    1  A    between atoms: N2_5  and  C3_6
REMARK    2  A    between atoms: C7_14  and  C8_15
REMARK    3  A    between atoms: C8_15  and  C9_16
REMARK    4  A    between atoms: N6_21  and  C10_22
ROOT
HETATM    1  C8  UNL     1      -2.678   3.951  11.643  1.00  0.00     0.056 C
ENDROOT
BRANCH   1   2
HETATM    2  C7  UNL     1      -3.249   4.955  10.976  1.00  0.00     0.064 A
HETATM    3  C2  UNL     1      -2.806   6.254  10.854  1.00  0.00     0.055 A
HETATM    4  C1  UNL     1      -1.686   6.750  11.402  1.00  0.00     0.045 C
HETATM    5  N1  UNL     1      -3.678   6.942  10.096  1.00  0.00    -0.289 N
HETATM    6  N2  UNL     1      -4.665   6.106   9.737  1.00  0.00    -0.201 N
ATOM      7  H1  UNL     1      -3.603   7.927   9.840  1.00  0.00     0.188 HD
HETATM    8  C6  UNL     1      -4.427   4.886  10.262  1.00  0.00     0.280 A
HETATM    9  O2  UNL     1      -5.166   3.878  10.109  1.00  0.00    -0.265 OA
BRANCH   6  10
HETATM   10  C3  UNL     1      -5.799   6.417   8.932  1.00  0.00     0.152 A
HETATM   11  C4  UNL     1      -6.890   7.182   9.313  1.00  0.00     0.079 A
HETATM   12  C5  UNL     1      -7.740   7.228   8.249  1.00  0.00     0.171 A
HETATM   13  O1  UNL     1      -7.196   6.531   7.279  1.00  0.00    -0.248 OA
HETATM   14  N3  UNL     1      -6.057   6.044   7.656  1.00  0.00    -0.244 N
ATOM     15  H3  UNL     1      -5.446   5.467   7.078  1.00  0.00     0.196 HD
ENDBRANCH   6  10
ENDBRANCH   1   2
BRANCH   1  16
HETATM   16  C9  UNL     1      -2.979   3.691  13.041  1.00  0.00     0.120 A
HETATM   17  N4  UNL     1      -2.377   4.099  14.156  1.00  0.00    -0.280 N
HETATM   18  N5  UNL     1      -2.998   3.617  15.192  1.00  0.00    -0.232 N
ATOM     19  H4  UNL     1      -1.553   4.699  14.192  1.00  0.00     0.188 HD
HETATM   20  N6  UNL     1      -4.022   2.883  14.792  1.00  0.00    -0.204 N
ATOM     21  H5  UNL     1      -2.735   3.780  16.164  1.00  0.00     0.209 HD
HETATM   22  C16 UNL     1      -4.050   2.900  13.464  1.00  0.00     0.296 A
HETATM   23  O3  UNL     1      -4.860   2.331  12.713  1.00  0.00    -0.264 OA
BRANCH  20  24
HETATM   24  C10 UNL     1      -4.914   2.207  15.683  1.00  0.00     0.061 A
HETATM   25  C11 UNL     1      -6.141   2.787  16.012  1.00  0.00     0.032 A
HETATM   26  C12 UNL     1      -7.034   2.173  16.867  1.00  0.00     0.002 A
HETATM   27  C13 UNL     1      -6.708   0.933  17.424  1.00  0.00     0.000 A
HETATM   28  C14 UNL     1      -5.503   0.346  17.108  1.00  0.00     0.002 A
HETATM   29  C15 UNL     1      -4.629   0.987  16.247  1.00  0.00     0.032 A
ENDBRANCH  20  24
ENDBRANCH   1  16
TORSDOF 4
ENDMDL