MODEL 5
REMARK VINA RESULT: -7.625414922      2.463      3.818
REMARK  3 active torsions:
REMARK  status: ('A' for Active; 'I' for Inactive)
REMARK    1  A    between atoms: N1_5  and  C5_6
REMARK    2  A    between atoms: C5_6  and  C6_7
REMARK    3  A    between atoms: C8_9  and  N2_10
ROOT
HETATM    1  C6  UNL     1      -3.110   4.464  13.118  1.00  0.00     0.074 A
HETATM    2  C7  UNL     1      -3.803   3.269  12.896  1.00  0.00     0.078 A
HETATM    3  C8  UNL     1      -3.221   2.203  12.262  1.00  0.00     0.121 A
HETATM    4  N4  UNL     1      -1.950   2.357  11.859  1.00  0.00    -0.175 N
ATOM      5  H4  UNL     1      -1.493   1.579  11.383  1.00  0.00     0.186 HD
HETATM    6  C13 UNL     1      -1.247   3.491  12.053  1.00  0.00     0.706 A
HETATM    7  N5  UNL     1       0.022   3.828  11.735  1.00  0.00    -0.185 N
ATOM      8  H5  UNL     1       0.702   3.239  11.255  1.00  0.00     0.185 HD
HETATM    9  C14 UNL     1       0.222   5.081  12.168  1.00  0.00     0.215 A
HETATM   10  N6  UNL     1      -0.911   5.482  12.733  1.00  0.00    -0.275 N
ATOM     11  H6  UNL     1      -1.057   6.400  13.153  1.00  0.00     0.189 HD
HETATM   12  N7  UNL     1      -1.820   4.534  12.676  1.00  0.00    -0.088 N
ENDROOT
BRANCH   1  13
HETATM   13  C5  UNL     1      -3.769   5.560  13.823  1.00  0.00     0.188 C
BRANCH  13  14
HETATM   14  N1  UNL     1      -4.856   6.197  13.168  1.00  0.00    -0.353 N
HETATM   15  C4  UNL     1      -4.688   7.065  12.165  1.00  0.00     0.045 A
HETATM   16  C3  UNL     1      -5.797   7.663  11.555  1.00  0.00    -0.008 A
HETATM   17  C16 UNL     1      -3.520   7.641  11.445  1.00  0.00     0.290 C
HETATM   18  C2  UNL     1      -7.067   7.367  11.979  1.00  0.00     0.012 A
HETATM   19  C17 UNL     1      -5.320   8.583  10.476  1.00  0.00     0.273 C
HETATM   20  C1  UNL     1      -7.245   6.477  13.009  1.00  0.00     0.018 A
HETATM   21  C15 UNL     1      -6.127   5.915  13.577  1.00  0.00     0.091 A
HETATM   22  N8  UNL     1      -4.009   8.944  11.040  1.00  0.00    -0.066 N
ATOM     23  H82 UNL     1      -4.025   9.655  11.772  1.00  0.00     0.277 HD
ATOM     24  H81 UNL     1      -3.394   9.472  10.420  1.00  0.00     0.277 HD
ENDBRANCH  13  14
ENDBRANCH   1  13
BRANCH   3  25
HETATM   25  N2  UNL     1      -3.951   1.014  12.055  1.00  0.00    -0.357 N
HETATM   26  C9  UNL     1      -4.850   0.922  10.893  1.00  0.00     0.169 C
HETATM   27  C10 UNL     1      -4.516  -0.296  10.096  1.00  0.00     0.080 C
HETATM   28  N3  UNL     1      -3.661  -1.235  10.656  1.00  0.00    -0.379 N
HETATM   29  C11 UNL     1      -3.388  -1.279  12.015  1.00  0.00     0.080 C
ATOM     30  H3  UNL     1      -3.215  -1.919  10.045  1.00  0.00     0.164 HD
HETATM   31  C12 UNL     1      -3.928  -0.170  12.867  1.00  0.00     0.169 C
ENDBRANCH   3  25
TORSDOF 3
ENDMDL