MODEL 1
REMARK VINA RESULT: -6.665949003      0.000      0.000
REMARK  11 active torsions:
REMARK  status: ('A' for Active; 'I' for Inactive)
REMARK    1  A    between atoms: N1_2  and  C2_3
REMARK    2  A    between atoms: N1_2  and  C4_7
REMARK    3  A    between atoms: C2_3  and  C3_4
REMARK    4  A    between atoms: C3_4  and  O1_5
REMARK    5  A    between atoms: C4_7  and  C5_8
REMARK    6  A    between atoms: C5_8  and  C6_9
REMARK    7  A    between atoms: C5_8  and  O2_23
REMARK    8  A    between atoms: C6_9  and  N2_10
REMARK    9  A    between atoms: N2_10  and  C7_12
REMARK   10  A    between atoms: C10_17  and  N4_18
REMARK   11  A    between atoms: O2_23  and  N6_24
ROOT
HETATM    1  C6  UNL     1      68.151  51.466  64.279  1.00  0.00     0.157 C
ENDROOT
BRANCH   1   2
HETATM    2  C5  UNL     1      67.072  51.940  63.309  1.00  0.00     0.197 C
BRANCH   2   3
HETATM    3  C4  UNL     1      67.376  53.366  62.853  1.00  0.00     0.307 C
BRANCH   3   4
HETATM    4  N1  UNL     1      67.062  53.589  61.467  1.00  0.00     0.088 N
HETATM    5  C1  UNL     1      65.733  54.149  61.300  1.00  0.00     0.310 C
BRANCH   4   6
HETATM    6  C2  UNL     1      68.057  54.359  60.756  1.00  0.00     0.297 C
BRANCH   6   7
HETATM    7  C3  UNL     1      68.529  53.714  59.486  1.00  0.00     0.194 C
BRANCH   7   8
HETATM    8  O1  UNL     1      68.189  52.363  59.560  1.00  0.00    -0.399 OA
ATOM      9  H1  UNL     1      68.022  52.067  58.673  1.00  0.00     0.209 HD
ENDBRANCH   7   8
ENDBRANCH   6   7
ENDBRANCH   4   6
ENDBRANCH   3   4
ENDBRANCH   2   3
BRANCH   2  10
HETATM   10  O2  UNL     1      67.102  51.149  62.156  1.00  0.00    -0.279 OA
BRANCH  10  11
HETATM   11  N6  UNL     1      68.213  50.348  62.182  1.00  0.00    -0.311 N
ATOM     12  H62 UNL     1      68.401  49.600  61.515  1.00  0.00     0.184 HD
ATOM     13  H61 UNL     1      68.809  50.619  62.964  1.00  0.00     0.184 HD
ENDBRANCH  10  11
ENDBRANCH   2  10
ENDBRANCH   1   2
BRANCH   1  14
HETATM   14  N2  UNL     1      67.844  51.857  65.623  1.00  0.00    -0.373 N
ATOM     15  H2  UNL     1      66.873  52.112  65.801  1.00  0.00     0.161 HD
BRANCH  14  16
HETATM   16  C7  UNL     1      68.623  51.927  66.615  1.00  0.00     0.118 A
HETATM   17  C8  UNL     1      68.229  51.280  67.777  1.00  0.00     0.066 A
HETATM   18  C9  UNL     1      69.047  51.334  68.871  1.00  0.00     0.110 A
HETATM   19  N3  UNL     1      70.208  52.008  68.802  1.00  0.00    -0.202 N
HETATM   20  C10 UNL     1      70.604  52.640  67.677  1.00  0.00     0.677 A
ATOM     21  H3  UNL     1      70.809  52.042  69.625  1.00  0.00     0.183 HD
HETATM   22  N5  UNL     1      69.809  52.596  66.589  1.00  0.00    -0.177 N
ATOM     23  H5  UNL     1      70.100  53.071  65.734  1.00  0.00     0.185 HD
BRANCH  20  24
HETATM   24  N4  UNL     1      71.724  53.282  67.640  1.00  0.00    -0.234 N
ATOM     25  H42 UNL     1      72.425  53.052  66.935  1.00  0.00     0.174 HD
ATOM     26  H41 UNL     1      71.921  54.025  68.309  1.00  0.00     0.174 HD
ENDBRANCH  20  24
ENDBRANCH  14  16
ENDBRANCH   1  14
TORSDOF 11
ENDMDL