MODEL 5
REMARK VINA RESULT: -7.011376867      2.850      6.966
REMARK  12 active torsions:
REMARK  status: ('A' for Active; 'I' for Inactive)
REMARK    1  A    between atoms: N1_1  and  C1_4
REMARK    2  A    between atoms: C2_7  and  N3_8
REMARK    3  A    between atoms: N3_8  and  C3_10
REMARK    4  A    between atoms: C3_10  and  C4_11
REMARK    5  A    between atoms: C4_11  and  C5_12
REMARK    6  A    between atoms: C5_12  and  N4_13
REMARK    7  A    between atoms: C6_19  and  N6_20
REMARK    8  A    between atoms: N6_20  and  C7_22
REMARK    9  A    between atoms: C7_22  and  C8_23
REMARK   10  A    between atoms: C8_23  and  N7_24
REMARK   11  A    between atoms: C8_23  and  C9_28
REMARK   12  A    between atoms: C9_28  and  O1_29
ROOT
HETATM    1  C1  UNL     1      67.237  50.088  63.809  1.00  0.00     0.705 A
HETATM    2  N2  UNL     1      67.056  50.925  62.777  1.00  0.00    -0.022 N
ATOM      3  H2  UNL     1      66.543  50.611  61.954  1.00  0.00     0.203 HD
HETATM    4  C2  UNL     1      67.545  52.173  62.819  1.00  0.00     0.707 A
HETATM    5  N5  UNL     1      68.229  52.591  63.918  1.00  0.00    -0.022 N
ATOM      6  H5  UNL     1      68.599  53.541  63.948  1.00  0.00     0.203 HD
HETATM    7  C6  UNL     1      68.425  51.771  64.968  1.00  0.00     0.707 A
HETATM    8  N8  UNL     1      67.927  50.530  64.901  1.00  0.00    -0.022 N
ATOM      9  H8  UNL     1      68.066  49.897  65.688  1.00  0.00     0.203 HD
ENDROOT
BRANCH   7  10
HETATM   10  N6  UNL     1      69.081  52.232  65.976  1.00  0.00    -0.223 N
ATOM     11  H6  UNL     1      69.827  52.902  65.787  1.00  0.00     0.177 HD
BRANCH  10  12
HETATM   12  C7  UNL     1      68.844  51.878  67.338  1.00  0.00     0.173 C
BRANCH  12  13
HETATM   13  C8  UNL     1      70.148  51.820  68.105  1.00  0.00     0.225 C
BRANCH  13  14
HETATM   14  N7  UNL     1      70.902  53.004  67.729  1.00  0.00    -0.071 N
ATOM     15  H73 UNL     1      71.724  52.796  67.161  1.00  0.00     0.274 HD
ATOM     16  H72 UNL     1      70.420  53.589  67.046  1.00  0.00     0.274 HD
ATOM     17  H71 UNL     1      71.124  53.494  68.595  1.00  0.00     0.274 HD
ENDBRANCH  13  14
BRANCH  13  18
HETATM   18  C9  UNL     1      69.838  51.811  69.589  1.00  0.00     0.198 C
BRANCH  18  19
HETATM   19  O1  UNL     1      69.544  50.503  69.969  1.00  0.00    -0.399 OA
ATOM     20  H1  UNL     1      69.420  50.484  70.911  1.00  0.00     0.209 HD
ENDBRANCH  18  19
ENDBRANCH  13  18
ENDBRANCH  12  13
ENDBRANCH  10  12
ENDBRANCH   7  10
BRANCH   4  21
HETATM   21  N3  UNL     1      67.353  52.952  61.809  1.00  0.00    -0.225 N
ATOM     22  H3  UNL     1      68.153  53.248  61.248  1.00  0.00     0.177 HD
BRANCH  21  23
HETATM   23  C3  UNL     1      66.037  53.414  61.454  1.00  0.00     0.139 C
BRANCH  23  24
HETATM   24  C4  UNL     1      66.172  54.423  60.331  1.00  0.00     0.047 C
BRANCH  24  25
HETATM   25  C5  UNL     1      67.622  54.423  59.891  1.00  0.00     0.231 C
BRANCH  25  26
HETATM   26  N4  UNL     1      68.161  55.755  59.823  1.00  0.00    -0.079 N
ATOM     27  H43 UNL     1      69.169  55.741  59.669  1.00  0.00     0.274 HD
ATOM     28  H42 UNL     1      67.874  56.229  58.967  1.00  0.00     0.274 HD
ATOM     29  H41 UNL     1      67.920  56.304  60.649  1.00  0.00     0.274 HD
ENDBRANCH  25  26
ENDBRANCH  24  25
ENDBRANCH  23  24
ENDBRANCH  21  23
ENDBRANCH   4  21
BRANCH   1  30
HETATM   30  N1  UNL     1      66.764  48.878  63.768  1.00  0.00    -0.234 N
ATOM     31  H12 UNL     1      65.758  48.711  63.794  1.00  0.00     0.174 HD
ATOM     32  H11 UNL     1      67.393  48.078  63.710  1.00  0.00     0.174 HD
ENDBRANCH   1  30
TORSDOF 12
ENDMDL