MODEL 3
REMARK VINA RESULT: -7.244765890      1.418      6.778
REMARK  11 active torsions:
REMARK  status: ('A' for Active; 'I' for Inactive)
REMARK    1  A    between atoms: O1_2  and  C2_3
REMARK    2  A    between atoms: C2_3  and  C3_4
REMARK    3  A    between atoms: C3_4  and  O2_5
REMARK    4  A    between atoms: C3_4  and  C4_7
REMARK    5  A    between atoms: C4_7  and  N1_8
REMARK    6  A    between atoms: N1_8  and  C5_10
REMARK    7  A    between atoms: C6_13  and  N3_14
REMARK    8  A    between atoms: C7_19  and  N5_20
REMARK    9  A    between atoms: N5_20  and  C8_22
REMARK   10  A    between atoms: C8_22  and  C9_23
REMARK   11  A    between atoms: C9_23  and  O3_24
ROOT
HETATM    1  C5  UNL     1      68.426  51.798  64.979  1.00  0.00     0.707 A
HETATM    2  N2  UNL     1      67.941  50.548  64.881  1.00  0.00    -0.022 N
ATOM      3  H2  UNL     1      68.119  49.907  65.654  1.00  0.00     0.203 HD
HETATM    4  C6  UNL     1      67.241  50.088  63.837  1.00  0.00     0.705 A
HETATM    5  N4  UNL     1      67.014  50.958  62.812  1.00  0.00    -0.022 N
ATOM      6  H4  UNL     1      66.484  50.644  61.999  1.00  0.00     0.203 HD
HETATM    7  C7  UNL     1      67.473  52.221  62.852  1.00  0.00     0.707 A
HETATM    8  N6  UNL     1      68.175  52.620  63.940  1.00  0.00    -0.022 N
ATOM      9  H6  UNL     1      68.526  53.578  63.975  1.00  0.00     0.203 HD
ENDROOT
BRANCH   1  10
HETATM   10  N1  UNL     1      69.101  52.200  66.012  1.00  0.00    -0.223 N
ATOM     11  H1  UNL     1      69.980  52.707  65.908  1.00  0.00     0.177 HD
BRANCH  10  12
HETATM   12  C4  UNL     1      68.553  51.899  67.325  1.00  0.00     0.172 C
BRANCH  12  13
HETATM   13  C3  UNL     1      69.655  51.549  68.309  1.00  0.00     0.160 C
BRANCH  13  14
HETATM   14  C2  UNL     1      70.466  52.739  68.695  1.00  0.00     0.200 C
BRANCH  14  15
HETATM   15  O1  UNL     1      70.829  53.498  67.602  1.00  0.00    -0.393 OA
HETATM   16  C1  UNL     1      72.167  53.845  67.631  1.00  0.00     0.201 C
ENDBRANCH  14  15
ENDBRANCH  13  14
BRANCH  13  17
HETATM   17  O2  UNL     1      69.013  50.976  69.414  1.00  0.00    -0.392 OA
ATOM     18  H2  UNL     1      69.611  50.458  69.940  1.00  0.00     0.210 HD
ENDBRANCH  13  17
ENDBRANCH  12  13
ENDBRANCH  10  12
ENDBRANCH   1  10
BRANCH   4  19
HETATM   19  N3  UNL     1      66.783  48.881  63.763  1.00  0.00    -0.234 N
ATOM     20  H32 UNL     1      66.118  48.550  64.462  1.00  0.00     0.174 HD
ATOM     21  H31 UNL     1      67.050  48.222  63.030  1.00  0.00     0.174 HD
ENDBRANCH   4  19
BRANCH   7  22
HETATM   22  N5  UNL     1      67.254  53.025  61.889  1.00  0.00    -0.223 N
ATOM     23  H5  UNL     1      68.079  53.389  61.412  1.00  0.00     0.177 HD
BRANCH  22  24
HETATM   24  C8  UNL     1      65.999  53.478  61.397  1.00  0.00     0.164 C
BRANCH  24  25
HETATM   25  C9  UNL     1      66.085  53.866  59.915  1.00  0.00     0.184 C
BRANCH  25  26
HETATM   26  O3  UNL     1      65.064  53.294  59.183  1.00  0.00    -0.399 OA
ATOM     27  H3  UNL     1      64.322  53.077  59.735  1.00  0.00     0.209 HD
ENDBRANCH  25  26
ENDBRANCH  24  25
ENDBRANCH  22  24
ENDBRANCH   7  22
TORSDOF 11
ENDMDL