MODEL 1
REMARK VINA RESULT: -6.718036244      0.000      0.000
REMARK  11 active torsions:
REMARK  status: ('A' for Active; 'I' for Inactive)
REMARK    1  A    between atoms: N1_1  and  C1_5
REMARK    2  A    between atoms: C1_5  and  C2_6
REMARK    3  A    between atoms: C2_6  and  O1_7
REMARK    4  A    between atoms: O1_7  and  N2_8
REMARK    5  A    between atoms: N2_8  and  C3_10
REMARK    6  A    between atoms: C3_10  and  N3_12
REMARK    7  A    between atoms: N3_12  and  C4_14
REMARK    8  A    between atoms: C4_14  and  C5_15
REMARK    9  A    between atoms: C5_15  and  N4_16
REMARK   10  A    between atoms: N4_16  and  C6_18
REMARK   11  A    between atoms: C9_24  and  N6_25
ROOT
HETATM    1  C4  UNL     1      66.504  52.463  62.201  1.00  0.00     0.166 C
ENDROOT
BRANCH   1   2
HETATM    2  N3  UNL     1      67.257  52.712  63.414  1.00  0.00    -0.361 N
ATOM      3  H3  UNL     1      67.375  53.654  63.791  1.00  0.00     0.162 HD
BRANCH   2   4
HETATM    4  C3  UNL     1      67.832  51.552  64.061  1.00  0.00     0.192 C
HETATM    5  S1  UNL     1      67.732  49.985  63.951  1.00  0.00    -0.039 SA
BRANCH   4   6
HETATM    6  N2  UNL     1      68.642  51.940  65.272  1.00  0.00    -0.241 N
ATOM      7  H2  UNL     1      69.515  52.447  65.130  1.00  0.00     0.197 HD
BRANCH   6   8
HETATM    8  O1  UNL     1      68.301  51.674  66.418  1.00  0.00    -0.277 OA
BRANCH   8   9
HETATM    9  C2  UNL     1      68.218  51.643  67.681  1.00  0.00     0.228 C
BRANCH   9  10
HETATM   10  C1  UNL     1      69.787  51.971  68.065  1.00  0.00     0.258 C
BRANCH  10  11
HETATM   11  N1  UNL     1      69.948  51.160  69.288  1.00  0.00    -0.077 N
ATOM     12  H13 UNL     1      69.732  51.637  70.163  1.00  0.00     0.274 HD
ATOM     13  H12 UNL     1      69.258  50.421  69.420  1.00  0.00     0.274 HD
ATOM     14  H11 UNL     1      70.914  50.848  69.184  1.00  0.00     0.274 HD
ENDBRANCH  10  11
ENDBRANCH   9  10
ENDBRANCH   8   9
ENDBRANCH   6   8
ENDBRANCH   4   6
ENDBRANCH   2   4
ENDBRANCH   1   2
BRANCH   1  15
HETATM   15  C5  UNL     1      66.736  53.799  61.490  1.00  0.00     0.075 C
BRANCH  15  16
HETATM   16  N4  UNL     1      67.982  54.310  61.196  1.00  0.00    -0.392 N
ATOM     17  H4  UNL     1      68.683  54.353  61.935  1.00  0.00     0.159 HD
BRANCH  16  18
HETATM   18  C6  UNL     1      68.319  54.769  59.930  1.00  0.00     0.138 C
HETATM   19  C7  UNL     1      69.305  53.849  59.278  1.00  0.00     0.259 C
HETATM   20  N5  UNL     1      70.600  54.430  59.581  1.00  0.00    -0.071 N
HETATM   21  C8  UNL     1      70.360  55.869  59.307  1.00  0.00     0.267 C
ATOM     22  H52 UNL     1      70.962  54.220  60.512  1.00  0.00     0.277 HD
ATOM     23  H51 UNL     1      71.388  54.019  59.080  1.00  0.00     0.277 HD
HETATM   24  C9  UNL     1      69.058  56.106  60.016  1.00  0.00     0.233 C
BRANCH  24  25
HETATM   25  N6  UNL     1      68.354  57.214  59.431  1.00  0.00    -0.071 N
ATOM     26  H63 UNL     1      68.911  57.638  58.689  1.00  0.00     0.274 HD
ATOM     27  H62 UNL     1      67.560  56.882  58.884  1.00  0.00     0.274 HD
ATOM     28  H61 UNL     1      68.053  57.923  60.099  1.00  0.00     0.274 HD
ENDBRANCH  24  25
ENDBRANCH  16  18
ENDBRANCH  15  16
ENDBRANCH   1  15
TORSDOF 11
ENDMDL