MODEL 1
REMARK VINA RESULT: -7.244855810      0.000      0.000
REMARK  9 active torsions:
REMARK  status: ('A' for Active; 'I' for Inactive)
REMARK    1  A    between atoms: N1_1  and  C1_4
REMARK    2  A    between atoms: C2_7  and  N3_8
REMARK    3  A    between atoms: N3_8  and  C3_10
REMARK    4  A    between atoms: C3_10  and  C4_11
REMARK    5  A    between atoms: C4_11  and  O1_12
REMARK    6  A    between atoms: N6_21  and  C7_23
REMARK    7  A    between atoms: C7_23  and  C8_24
REMARK    8  A    between atoms: C8_24  and  C9_25
REMARK    9  A    between atoms: C9_25  and  O3_26
ROOT
HETATM    1  C1  UNL     1      67.675  52.865  63.262  1.00  0.00     0.159 C
HETATM    2  N2  UNL     1      68.319  52.751  64.475  1.00  0.00    -0.173 N
ATOM      3  H2  UNL     1      68.748  53.604  64.833  1.00  0.00     0.186 HD
HETATM    4  C2  UNL     1      68.452  51.655  65.248  1.00  0.00     0.683 C
HETATM    5  N4  UNL     1      67.993  50.420  64.963  1.00  0.00    -0.141 N
ATOM      6  H4  UNL     1      68.126  49.735  65.707  1.00  0.00     0.189 HD
HETATM    7  C5  UNL     1      67.380  49.931  63.846  1.00  0.00     0.340 C
HETATM    8  O2  UNL     1      67.033  48.744  63.884  1.00  0.00    -0.246 OA
HETATM    9  N5  UNL     1      67.102  50.587  62.698  1.00  0.00    -0.291 N
ATOM     10  H5  UNL     1      66.557  50.075  62.004  1.00  0.00     0.172 HD
HETATM   11  C6  UNL     1      67.465  51.853  62.361  1.00  0.00     0.150 C
HETATM   12  N6  UNL     1      67.623  52.067  61.149  1.00  0.00    -0.373 N
ATOM     13  H6  UNL     1      67.435  51.234  60.592  1.00  0.00     0.161 HD
ENDROOT
BRANCH   1  14
HETATM   14  N1  UNL     1      67.265  54.045  63.037  1.00  0.00    -0.382 N
ATOM     15  H12 UNL     1      67.908  54.787  62.760  1.00  0.00     0.157 HD
ATOM     16  H11 UNL     1      66.257  54.139  63.162  1.00  0.00     0.157 HD
ENDBRANCH   1  14
BRANCH  12  17
HETATM   17  C7  UNL     1      67.992  53.158  60.345  1.00  0.00     0.123 C
BRANCH  17  18
HETATM   18  C8  UNL     1      66.873  53.605  59.401  1.00  0.00     0.045 C
BRANCH  18  19
HETATM   19  C9  UNL     1      65.967  54.608  60.131  1.00  0.00     0.165 C
BRANCH  19  20
HETATM   20  O3  UNL     1      65.116  53.883  60.971  1.00  0.00    -0.401 OA
ATOM     21  H3  UNL     1      64.350  53.639  60.466  1.00  0.00     0.209 HD
ENDBRANCH  19  20
ENDBRANCH  18  19
ENDBRANCH  17  18
ENDBRANCH  12  17
BRANCH   4  22
HETATM   22  N3  UNL     1      69.079  51.852  66.341  1.00  0.00    -0.224 N
ATOM     23  H3  UNL     1      70.082  52.025  66.271  1.00  0.00     0.177 HD
BRANCH  22  24
HETATM   24  C3  UNL     1      68.516  51.854  67.654  1.00  0.00     0.164 C
BRANCH  24  25
HETATM   25  C4  UNL     1      69.667  51.661  68.640  1.00  0.00     0.184 C
BRANCH  25  26
HETATM   26  O1  UNL     1      69.331  50.664  69.561  1.00  0.00    -0.399 OA
ATOM     27  H1  UNL     1      69.883  49.904  69.421  1.00  0.00     0.209 HD
ENDBRANCH  25  26
ENDBRANCH  24  25
ENDBRANCH  22  24
ENDBRANCH   4  22
TORSDOF 9
ENDMDL