MODEL 2
REMARK VINA RESULT: -5.408168564      3.270      6.874
REMARK  11 active torsions:
REMARK  status: ('A' for Active; 'I' for Inactive)
REMARK    1  A    between atoms: C2_2  and  N1_3
REMARK    2  A    between atoms: N1_3  and  C3_5
REMARK    3  A    between atoms: C4_8  and  N3_9
REMARK    4  A    between atoms: N3_9  and  C5_11
REMARK    5  A    between atoms: C5_11  and  C6_12
REMARK    6  A    between atoms: C6_12  and  O1_13
REMARK    7  A    between atoms: C7_17  and  N5_18
REMARK    8  A    between atoms: N5_18  and  C8_20
REMARK    9  A    between atoms: C8_20  and  C9_21
REMARK   10  A    between atoms: C9_21  and  C10_22
REMARK   11  A    between atoms: C10_22  and  N6_23
ROOT
HETATM    1  C3  UNL     1      66.197  54.377  60.073  1.00  0.00     0.707 A
HETATM    2  N2  UNL     1      67.399  54.390  59.468  1.00  0.00    -0.022 N
ATOM      3  H2  UNL     1      67.466  54.668  58.490  1.00  0.00     0.203 HD
HETATM    4  C4  UNL     1      68.527  54.035  60.144  1.00  0.00     0.707 A
HETATM    5  N4  UNL     1      68.481  53.663  61.436  1.00  0.00    -0.022 N
ATOM      6  H4  UNL     1      69.328  53.399  61.939  1.00  0.00     0.203 HD
HETATM    7  C7  UNL     1      67.280  53.651  62.043  1.00  0.00     0.707 A
HETATM    8  N7  UNL     1      66.173  54.002  61.364  1.00  0.00    -0.022 N
ATOM      9  H7  UNL     1      65.276  53.983  61.850  1.00  0.00     0.203 HD
ENDROOT
BRANCH   7  10
HETATM   10  N5  UNL     1      67.209  53.295  63.288  1.00  0.00    -0.225 N
ATOM     11  H5  UNL     1      66.862  53.975  63.965  1.00  0.00     0.177 HD
BRANCH  10  12
HETATM   12  C8  UNL     1      67.593  52.000  63.766  1.00  0.00     0.139 C
BRANCH  12  13
HETATM   13  C9  UNL     1      67.217  50.973  62.719  1.00  0.00     0.047 C
BRANCH  13  14
HETATM   14  C10 UNL     1      67.779  49.640  63.188  1.00  0.00     0.231 C
BRANCH  14  15
HETATM   15  N6  UNL     1      66.747  48.910  63.915  1.00  0.00    -0.079 N
ATOM     16  H63 UNL     1      66.883  47.901  63.868  1.00  0.00     0.274 HD
ATOM     17  H62 UNL     1      66.835  49.021  64.925  1.00  0.00     0.274 HD
ATOM     18  H61 UNL     1      65.829  49.193  63.574  1.00  0.00     0.274 HD
ENDBRANCH  14  15
ENDBRANCH  13  14
ENDBRANCH  12  13
ENDBRANCH  10  12
ENDBRANCH   7  10
BRANCH   4  19
HETATM   19  N3  UNL     1      69.649  54.067  59.510  1.00  0.00    -0.223 N
ATOM     20  H3  UNL     1      69.851  53.328  58.836  1.00  0.00     0.177 HD
BRANCH  19  21
HETATM   21  C5  UNL     1      70.622  55.094  59.713  1.00  0.00     0.164 C
BRANCH  21  22
HETATM   22  C6  UNL     1      69.909  56.447  59.641  1.00  0.00     0.184 C
BRANCH  22  23
HETATM   23  O1  UNL     1      69.779  56.781  58.294  1.00  0.00    -0.399 OA
ATOM     24  H1  UNL     1      69.427  57.662  58.250  1.00  0.00     0.209 HD
ENDBRANCH  22  23
ENDBRANCH  21  22
ENDBRANCH  19  21
ENDBRANCH   4  19
BRANCH   1  25
HETATM   25  N1  UNL     1      65.102  54.707  59.462  1.00  0.00    -0.225 N
ATOM     26  H1  UNL     1      64.402  53.982  59.306  1.00  0.00     0.177 HD
BRANCH  25  27
HETATM   27  C2  UNL     1      64.818  56.026  58.994  1.00  0.00     0.133 C
HETATM   28  C1  UNL     1      65.929  56.977  59.376  1.00  0.00     0.027 C
ENDBRANCH  25  27
ENDBRANCH   1  25
TORSDOF 11
ENDMDL