MODEL 2
REMARK VINA RESULT: -6.053668989      1.762      6.401
REMARK  11 active torsions:
REMARK  status: ('A' for Active; 'I' for Inactive)
REMARK    1  A    between atoms: N1_2  and  C2_4
REMARK    2  A    between atoms: C2_4  and  C3_5
REMARK    3  A    between atoms: C3_5  and  C4_6
REMARK    4  A    between atoms: C5_10  and  N3_11
REMARK    5  A    between atoms: C6_15  and  O1_16
REMARK    6  A    between atoms: O1_16  and  C7_17
REMARK    7  A    between atoms: C7_17  and  C8_18
REMARK    8  A    between atoms: C8_18  and  C9_19
REMARK    9  A    between atoms: C9_19  and  N4_20
REMARK   10  A    between atoms: C10_24  and  O2_25
REMARK   11  A    between atoms: C11_27  and  O3_28
ROOT
HETATM    1  C4  UNL     1      67.074  53.189  61.619  1.00  0.00     0.221 C
HETATM    2  N2  UNL     1      67.960  52.676  60.610  1.00  0.00    -0.037 N
ATOM      3  H21 UNL     1      67.538  51.940  60.043  1.00  0.00     0.280 HD
ATOM      4  H22 UNL     1      68.724  52.121  60.995  1.00  0.00     0.280 HD
HETATM    5  C5  UNL     1      68.424  53.826  59.815  1.00  0.00     0.411 C
HETATM    6  C6  UNL     1      67.246  54.673  59.431  1.00  0.00     0.210 C
HETATM    7  C10 UNL     1      65.924  53.947  59.627  1.00  0.00     0.181 C
HETATM    8  C11 UNL     1      65.734  53.385  61.009  1.00  0.00     0.180 C
ENDROOT
BRANCH   6   9
HETATM    9  O1  UNL     1      67.138  55.851  60.107  1.00  0.00    -0.379 OA
BRANCH   9  10
HETATM   10  C7  UNL     1      67.081  56.991  59.373  1.00  0.00     0.170 C
BRANCH  10  11
HETATM   11  C8  UNL     1      68.443  57.464  58.905  1.00  0.00     0.053 C
BRANCH  11  12
HETATM   12  C9  UNL     1      68.210  58.815  58.228  1.00  0.00     0.231 C
BRANCH  12  13
HETATM   13  N4  UNL     1      68.820  58.835  56.919  1.00  0.00    -0.079 N
ATOM     14  H43 UNL     1      69.359  59.687  56.764  1.00  0.00     0.274 HD
ATOM     15  H42 UNL     1      69.580  58.159  56.844  1.00  0.00     0.274 HD
ATOM     16  H41 UNL     1      68.115  58.695  56.196  1.00  0.00     0.274 HD
ENDBRANCH  12  13
ENDBRANCH  11  12
ENDBRANCH  10  11
ENDBRANCH   9  10
ENDBRANCH   6   9
BRANCH   5  17
HETATM   17  N3  UNL     1      69.400  54.507  60.603  1.00  0.00    -0.048 N
ATOM     18  H33 UNL     1      69.157  55.480  60.791  1.00  0.00     0.276 HD
ATOM     19  H32 UNL     1      69.426  54.191  61.573  1.00  0.00     0.276 HD
ATOM     20  H31 UNL     1      70.294  54.402  60.122  1.00  0.00     0.276 HD
ENDBRANCH   5  17
BRANCH   7  21
HETATM   21  O2  UNL     1      65.834  52.955  58.650  1.00  0.00    -0.390 OA
ATOM     22  H2  UNL     1      65.525  52.161  59.070  1.00  0.00     0.210 HD
ENDBRANCH   7  21
BRANCH   8  23
HETATM   23  O3  UNL     1      64.934  54.292  61.714  1.00  0.00    -0.391 OA
ATOM     24  H3  UNL     1      65.332  55.151  61.804  1.00  0.00     0.210 HD
ENDBRANCH   8  23
BRANCH   1  25
HETATM   25  C3  UNL     1      67.086  52.394  62.884  1.00  0.00     0.055 C
BRANCH  25  26
HETATM   26  C2  UNL     1      67.790  51.095  62.811  1.00  0.00     0.120 C
BRANCH  26  27
HETATM   27  N1  UNL     1      67.281  50.224  63.830  1.00  0.00    -0.408 N
HETATM   28  C1  UNL     1      67.060  48.980  63.679  1.00  0.00     0.112 C
ATOM     29  H1  UNL     1      67.080  50.632  64.743  1.00  0.00     0.157 HD
ENDBRANCH  26  27
ENDBRANCH  25  26
ENDBRANCH   1  25
TORSDOF 11
ENDMDL