MODEL 4
REMARK VINA RESULT: -5.636634721      1.416      2.362
REMARK  10 active torsions:
REMARK  status: ('A' for Active; 'I' for Inactive)
REMARK    1  A    between atoms: N1_1  and  C1_5
REMARK    2  A    between atoms: C1_5  and  C2_6
REMARK    3  A    between atoms: C2_6  and  C3_7
REMARK    4  A    between atoms: C3_7  and  C4_8
REMARK    5  A    between atoms: C4_8  and  S1_9
REMARK    6  A    between atoms: S1_9  and  N2_10
REMARK    7  A    between atoms: S1_9  and  C5_13
REMARK    8  A    between atoms: C5_13  and  C6_14
REMARK    9  A    between atoms: C8_21  and  N6_22
REMARK   10  A    between atoms: C9_26  and  O1_27
ROOT
HETATM    1  C6  UNL     1      67.057  52.905  62.824  1.00  0.00     0.126 C
HETATM    2  N3  UNL     1      67.428  52.770  64.200  1.00  0.00    -0.357 N
ATOM      3  H3  UNL     1      67.331  53.581  64.810  1.00  0.00     0.162 HD
HETATM    4  C7  UNL     1      67.917  51.580  64.749  1.00  0.00     0.186 C
HETATM    5  N4  UNL     1      67.901  51.432  66.176  1.00  0.00    -0.064 NA
HETATM    6  N5  UNL     1      68.370  50.645  63.982  1.00  0.00    -0.335 N
ATOM      7  H5  UNL     1      68.723  49.786  64.404  1.00  0.00     0.164 HD
HETATM    8  C8  UNL     1      68.394  50.781  62.539  1.00  0.00     0.314 C
HETATM    9  C9  UNL     1      67.237  51.625  62.042  1.00  0.00     0.191 C
ENDROOT
BRANCH   1  10
HETATM   10  C5  UNL     1      67.905  53.988  62.146  1.00  0.00     0.112 C
BRANCH  10  11
HETATM   11  S1  UNL     1      67.540  53.921  60.432  1.00  0.00    -0.133 SA
BRANCH  11  12
HETATM   12  C4  UNL     1      68.882  53.886  59.379  1.00  0.00     0.084 C
BRANCH  12  13
HETATM   13  C3  UNL     1      70.010  54.763  59.792  1.00  0.00     0.013 C
BRANCH  13  14
HETATM   14  C2  UNL     1      70.070  56.046  59.050  1.00  0.00     0.028 C
BRANCH  14  15
HETATM   15  C1  UNL     1      69.344  57.165  59.818  1.00  0.00     0.229 C
BRANCH  15  16
HETATM   16  N1  UNL     1      68.193  57.613  59.086  1.00  0.00    -0.079 N
ATOM     17  H13 UNL     1      67.706  56.838  58.635  1.00  0.00     0.274 HD
ATOM     18  H12 UNL     1      67.445  57.921  59.707  1.00  0.00     0.274 HD
ATOM     19  H11 UNL     1      68.454  58.337  58.418  1.00  0.00     0.274 HD
ENDBRANCH  15  16
ENDBRANCH  14  15
ENDBRANCH  13  14
ENDBRANCH  12  13
ENDBRANCH  11  12
BRANCH  11  20
HETATM   20  N2  UNL     1      66.083  54.556  59.970  1.00  0.00    -0.383 N
ATOM     21  H22 UNL     1      65.303  54.403  60.609  1.00  0.00     0.163 HD
ATOM     22  H21 UNL     1      66.021  55.381  59.373  1.00  0.00     0.163 HD
ENDBRANCH  11  20
ENDBRANCH  10  11
ENDBRANCH   1  10
BRANCH   9  23
HETATM   23  O1  UNL     1      66.050  50.931  62.018  1.00  0.00    -0.390 OA
ATOM     24  H1  UNL     1      65.900  50.530  62.866  1.00  0.00     0.210 HD
ENDBRANCH   9  23
BRANCH   8  25
HETATM   25  N6  UNL     1      68.230  49.453  61.982  1.00  0.00    -0.056 N
ATOM     26  H63 UNL     1      68.725  49.326  61.100  1.00  0.00     0.276 HD
ATOM     27  H62 UNL     1      68.719  48.733  62.513  1.00  0.00     0.276 HD
ATOM     28  H61 UNL     1      67.227  49.281  61.906  1.00  0.00     0.276 HD
ENDBRANCH   8  25
TORSDOF 10
ENDMDL