MODEL 3
REMARK VINA RESULT: -6.614256684      1.110      1.909
REMARK  8 active torsions:
REMARK  status: ('A' for Active; 'I' for Inactive)
REMARK    1  A    between atoms: N1_1  and  C1_4
REMARK    2  A    between atoms: C4_12  and  N4_13
REMARK    3  A    between atoms: N4_13  and  C5_14
REMARK    4  A    between atoms: N4_13  and  C7_20
REMARK    5  A    between atoms: C5_14  and  C6_15
REMARK    6  A    between atoms: C6_15  and  N5_16
REMARK    7  A    between atoms: C7_20  and  C8_21
REMARK    8  A    between atoms: C8_21  and  O2_22
ROOT
HETATM    1  C1  UNL     1      67.938  51.378  65.152  1.00  0.00     0.680 A
HETATM    2  N2  UNL     1      67.582  50.346  64.383  1.00  0.00    -0.154 N
ATOM      3  H2  UNL     1      67.499  49.430  64.822  1.00  0.00     0.187 HD
HETATM    4  C2  UNL     1      67.326  50.437  63.064  1.00  0.00     0.290 A
HETATM    5  O1  UNL     1      66.994  49.417  62.395  1.00  0.00    -0.265 OA
HETATM    6  C3  UNL     1      67.447  51.687  62.487  1.00  0.00     0.162 A
HETATM    7  N3  UNL     1      67.279  52.159  61.254  1.00  0.00    -0.182 N
ATOM      8  H3  UNL     1      67.003  51.588  60.455  1.00  0.00     0.184 HD
HETATM    9  C4  UNL     1      67.520  53.486  61.188  1.00  0.00     0.686 A
HETATM   10  N6  UNL     1      67.849  53.848  62.433  1.00  0.00    -0.173 N
ATOM     11  H6  UNL     1      68.091  54.796  62.720  1.00  0.00     0.186 HD
HETATM   12  C9  UNL     1      67.814  52.774  63.257  1.00  0.00     0.169 A
HETATM   13  N7  UNL     1      68.046  52.579  64.554  1.00  0.00    -0.174 N
ATOM     14  H7  UNL     1      68.317  53.381  65.124  1.00  0.00     0.186 HD
ENDROOT
BRANCH   9  15
HETATM   15  N4  UNL     1      67.434  54.328  59.987  1.00  0.00    -0.193 N
BRANCH  15  16
HETATM   16  C5  UNL     1      68.673  54.630  59.394  1.00  0.00     0.109 C
BRANCH  16  17
HETATM   17  C6  UNL     1      69.486  55.776  59.838  1.00  0.00     0.274 C
BRANCH  17  18
HETATM   18  N5  UNL     1      68.968  57.072  59.539  1.00  0.00    -0.075 N
ATOM     19  H53 UNL     1      69.310  57.378  58.628  1.00  0.00     0.274 HD
ATOM     20  H52 UNL     1      67.968  57.006  59.348  1.00  0.00     0.274 HD
ATOM     21  H51 UNL     1      69.139  57.798  60.234  1.00  0.00     0.274 HD
ENDBRANCH  17  18
ENDBRANCH  16  17
ENDBRANCH  15  16
BRANCH  15  22
HETATM   22  C7  UNL     1      66.103  54.706  59.636  1.00  0.00     0.172 C
BRANCH  22  23
HETATM   23  C8  UNL     1      65.592  56.039  60.007  1.00  0.00     0.185 C
BRANCH  23  24
HETATM   24  O2  UNL     1      65.961  57.098  59.222  1.00  0.00    -0.399 OA
ATOM     25  H2  UNL     1      65.740  57.969  59.529  1.00  0.00     0.209 HD
ENDBRANCH  23  24
ENDBRANCH  22  23
ENDBRANCH  15  22
ENDBRANCH   9  15
BRANCH   1  26
HETATM   26  N1  UNL     1      68.162  51.195  66.416  1.00  0.00    -0.234 N
ATOM     27  H12 UNL     1      68.925  50.615  66.767  1.00  0.00     0.174 HD
ATOM     28  H11 UNL     1      67.560  51.642  67.109  1.00  0.00     0.174 HD
ENDBRANCH   1  26
TORSDOF 8
ENDMDL