MODEL 5
REMARK VINA RESULT: -6.003226257      3.392      5.037
REMARK  9 active torsions:
REMARK  status: ('A' for Active; 'I' for Inactive)
REMARK    1  A    between atoms: S1_2  and  C2_4
REMARK    2  A    between atoms: C3_7  and  N2_8
REMARK    3  A    between atoms: C4_13  and  N4_14
REMARK    4  A    between atoms: N4_14  and  C5_16
REMARK    5  A    between atoms: C5_16  and  C6_17
REMARK    6  A    between atoms: C6_17  and  N5_18
REMARK    7  A    between atoms: N5_18  and  C7_21
REMARK    8  A    between atoms: C7_21  and  C8_22
REMARK    9  A    between atoms: C8_22  and  N6_23
ROOT
HETATM    1  C2  UNL     1      68.250  54.541  60.320  1.00  0.00     0.203 A
HETATM    2  N1  UNL     1      67.223  54.380  59.486  1.00  0.00    -0.167 N
ATOM      3  H1  UNL     1      67.278  54.747  58.535  1.00  0.00     0.186 HD
HETATM    4  C3  UNL     1      66.109  53.734  59.895  1.00  0.00     0.692 A
HETATM    5  N3  UNL     1      66.060  53.255  61.170  1.00  0.00    -0.023 N
ATOM      6  H3  UNL     1      65.227  52.765  61.496  1.00  0.00     0.203 HD
HETATM    7  C4  UNL     1      67.092  53.422  61.993  1.00  0.00     0.694 A
HETATM    8  N7  UNL     1      68.198  54.067  61.575  1.00  0.00    -0.167 N
ATOM      9  H7  UNL     1      68.989  54.195  62.206  1.00  0.00     0.186 HD
ENDROOT
BRANCH   7  10
HETATM   10  N4  UNL     1      67.043  52.985  63.192  1.00  0.00    -0.224 N
ATOM     11  H4  UNL     1      66.118  52.785  63.572  1.00  0.00     0.177 HD
BRANCH  10  12
HETATM   12  C5  UNL     1      68.164  52.747  64.057  1.00  0.00     0.165 C
BRANCH  12  13
HETATM   13  C6  UNL     1      68.186  51.403  64.691  1.00  0.00     0.252 C
BRANCH  13  14
HETATM   14  N5  UNL     1      67.103  50.554  64.339  1.00  0.00    -0.072 N
ATOM     15  H52 UNL     1      66.449  50.470  65.117  1.00  0.00     0.277 HD
ATOM     16  H51 UNL     1      66.500  51.009  63.654  1.00  0.00     0.277 HD
BRANCH  14  17
HETATM   17  C7  UNL     1      67.501  49.254  63.874  1.00  0.00     0.259 C
BRANCH  17  18
HETATM   18  C8  UNL     1      67.358  49.151  62.362  1.00  0.00     0.257 C
BRANCH  18  19
HETATM   19  N6  UNL     1      68.451  49.863  61.703  1.00  0.00    -0.078 N
ATOM     20  H63 UNL     1      68.167  50.247  60.802  1.00  0.00     0.274 HD
ATOM     21  H62 UNL     1      68.674  50.739  62.175  1.00  0.00     0.274 HD
ATOM     22  H61 UNL     1      69.266  49.256  61.620  1.00  0.00     0.274 HD
ENDBRANCH  18  19
ENDBRANCH  17  18
ENDBRANCH  14  17
ENDBRANCH  13  14
ENDBRANCH  12  13
ENDBRANCH  10  12
ENDBRANCH   7  10
BRANCH   4  23
HETATM   23  N2  UNL     1      65.097  53.559  59.116  1.00  0.00    -0.234 N
ATOM     24  H22 UNL     1      64.288  53.038  59.455  1.00  0.00     0.174 HD
ATOM     25  H21 UNL     1      65.079  53.926  58.164  1.00  0.00     0.174 HD
ENDBRANCH   4  23
BRANCH   1  26
HETATM   26  S1  UNL     1      69.698  55.389  59.809  1.00  0.00     0.081 S
HETATM   27  C1  UNL     1      69.316  57.092  59.491  1.00  0.00     0.136 C
HETATM   28  O1  UNL     1      70.354  54.606  58.491  1.00  0.00    -0.250 OA
ENDBRANCH   1  26
TORSDOF 9
ENDMDL