MODEL 3
REMARK VINA RESULT: -5.707253793      2.516      5.876
REMARK  7 active torsions:
REMARK  status: ('A' for Active; 'I' for Inactive)
REMARK    1  A    between atoms: C2_2  and  O1_3
REMARK    2  A    between atoms: C2_2  and  C3_5
REMARK    3  A    between atoms: C3_5  and  C4_6
REMARK    4  A    between atoms: C3_5  and  N2_19
REMARK    5  A    between atoms: C4_6  and  C5_7
REMARK    6  A    between atoms: C4_6  and  N1_13
REMARK    7  A    between atoms: C17_24  and  N4_25
ROOT
HETATM    1  C3  UNL     1      45.972   9.882  -0.157  1.00  0.00     0.070 C
ENDROOT
BRANCH   1   2
HETATM    2  C2  UNL     1      44.930   9.344  -1.106  1.00  0.00     0.166 C
HETATM    3  C1  UNL     1      43.793   8.643  -0.395  1.00  0.00     0.046 C
BRANCH   2   4
HETATM    4  O1  UNL     1      45.308   8.623  -2.169  1.00  0.00    -0.390 OA
ATOM      5  H1  UNL     1      45.576   9.204  -2.871  1.00  0.00     0.210 HD
ENDBRANCH   2   4
ENDBRANCH   1   2
BRANCH   1   6
HETATM    6  C4  UNL     1      47.357   9.484  -0.385  1.00  0.00     0.039 C
BRANCH   6   7
HETATM    7  C5  UNL     1      48.115   8.600   0.551  1.00  0.00     0.037 C
HETATM    8  C6  UNL     1      47.573   8.360   1.893  1.00  0.00     0.011 C
HETATM    9  C7  UNL     1      48.738   7.809   2.750  1.00  0.00     0.001 C
HETATM   10  C8  UNL     1      49.320   6.592   2.057  1.00  0.00     0.000 C
HETATM   11  C9  UNL     1      48.412   6.144   0.929  1.00  0.00     0.001 C
HETATM   12  C10 UNL     1      48.159   7.210  -0.102  1.00  0.00     0.011 C
ENDBRANCH   6   7
BRANCH   6  13
HETATM   13  N1  UNL     1      48.113  10.379  -1.142  1.00  0.00    -0.352 N
HETATM   14  C11 UNL     1      49.387  10.826  -0.661  1.00  0.00     0.126 C
HETATM   15  C12 UNL     1      49.720  12.005  -1.527  1.00  0.00     0.024 C
HETATM   16  C13 UNL     1      48.600  12.094  -2.521  1.00  0.00     0.061 C
HETATM   17  C14 UNL     1      48.068  10.623  -2.494  1.00  0.00     0.271 C
HETATM   18  F1  UNL     1      49.180   9.994  -3.126  1.00  0.00    -0.227 F
ENDBRANCH   6  13
ENDBRANCH   1   6
BRANCH   1  19
HETATM   19  N2  UNL     1      45.632  11.254   0.143  1.00  0.00    -0.291 N
HETATM   20  C15 UNL     1      44.866  12.048  -0.627  1.00  0.00     0.191 A
HETATM   21  N3  UNL     1      44.720  13.242  -0.051  1.00  0.00    -0.346 N
HETATM   22  C16 UNL     1      45.383  13.275   1.115  1.00  0.00     0.122 A
ATOM     23  H3  UNL     1      44.182  14.017  -0.440  1.00  0.00     0.167 HD
HETATM   24  C17 UNL     1      45.541  14.256   2.073  1.00  0.00     0.131 A
HETATM   25  C19 UNL     1      45.956  12.006   1.222  1.00  0.00     0.145 A
HETATM   26  N5  UNL     1      46.285  13.941   3.141  1.00  0.00    -0.337 N
HETATM   27  C18 UNL     1      46.849  12.729   3.273  1.00  0.00     0.183 A
ATOM     28  H5  UNL     1      46.426  14.638   3.872  1.00  0.00     0.168 HD
HETATM   29  N6  UNL     1      46.675  11.809   2.330  1.00  0.00    -0.336 N
ATOM     30  H6  UNL     1      47.117  10.899   2.460  1.00  0.00     0.168 HD
BRANCH  24  31
HETATM   31  N4  UNL     1      44.985  15.429   1.924  1.00  0.00    -0.383 N
ATOM     32  H42 UNL     1      44.816  15.844   1.008  1.00  0.00     0.157 HD
ATOM     33  H41 UNL     1      44.695  15.974   2.735  1.00  0.00     0.157 HD
ENDBRANCH  24  31
ENDBRANCH   1  19
TORSDOF 7
ENDMDL