MODEL 4
REMARK VINA RESULT: -5.962042340      6.825      9.145
REMARK  7 active torsions:
REMARK  status: ('A' for Active; 'I' for Inactive)
REMARK    1  A    between atoms: N2_6  and  C4_8
REMARK    2  A    between atoms: C10_16  and  O2_17
REMARK    3  A    between atoms: C11_19  and  C12_20
REMARK    4  A    between atoms: C12_20  and  O3_21
REMARK    5  A    between atoms: C12_20  and  N3_23
REMARK    6  A    between atoms: N3_23  and  C13_24
REMARK    7  A    between atoms: N3_23  and  C16_27
ROOT
HETATM    1  C1  UNL     1      48.436   6.787   4.623  1.00  0.00     0.069 C
HETATM    2  C2  UNL     1      48.996   7.422   3.448  1.00  0.00     0.020 A
HETATM    3  N1  UNL     1      48.259   8.392   2.843  1.00  0.00    -0.344 N
ATOM      4  H1  UNL     1      47.353   8.635   3.247  1.00  0.00     0.167 HD
HETATM    5  C3  UNL     1      48.655   9.036   1.760  1.00  0.00     0.126 A
HETATM    6  N2  UNL     1      47.981   9.954   1.159  1.00  0.00    -0.370 N
ATOM      7  H2  UNL     1      48.423  10.356   0.332  1.00  0.00     0.161 HD
HETATM    8  C9  UNL     1      49.877   8.701   1.223  1.00  0.00     0.111 A
HETATM    9 CL1  UNL     1      50.526   9.467  -0.201  1.00  0.00    -0.077 Cl
HETATM   10  C10 UNL     1      50.657   7.703   1.826  1.00  0.00     0.103 A
HETATM   11  C11 UNL     1      50.240   7.033   2.960  1.00  0.00     0.047 A
ENDROOT
BRANCH  11  12
HETATM   12  C12 UNL     1      50.964   5.965   3.654  1.00  0.00     0.255 C
BRANCH  12  13
HETATM   13  O3  UNL     1      52.347   6.222   3.686  1.00  0.00    -0.372 OA
ATOM     14  H3  UNL     1      52.565   7.000   3.186  1.00  0.00     0.212 HD
ENDBRANCH  12  13
BRANCH  12  15
HETATM   15  N3  UNL     1      50.810   4.666   3.051  1.00  0.00    -0.377 N
BRANCH  15  16
HETATM   16  C13 UNL     1      50.828   3.582   3.965  1.00  0.00     0.074 C
HETATM   17  C14 UNL     1      50.613   3.891   5.402  1.00  0.00     0.031 C
HETATM   18  C15 UNL     1      52.049   2.677   3.867  1.00  0.00     0.031 C
ENDBRANCH  15  16
BRANCH  15  19
HETATM   19  C16 UNL     1      49.888   4.525   1.998  1.00  0.00     0.074 C
HETATM   20  C17 UNL     1      48.737   3.590   2.281  1.00  0.00     0.031 C
HETATM   21  C18 UNL     1      50.593   4.016   0.761  1.00  0.00     0.031 C
ENDBRANCH  15  19
ENDBRANCH  12  15
ENDBRANCH  11  12
BRANCH  10  22
HETATM   22  O2  UNL     1      51.886   7.364   1.271  1.00  0.00    -0.358 OA
ATOM     23  H2  UNL     1      52.644   7.910   1.445  1.00  0.00     0.217 HD
ENDBRANCH  10  22
BRANCH   6  24
HETATM   24  C4  UNL     1      46.709  10.479   1.491  1.00  0.00     0.087 C
HETATM   25  C5  UNL     1      45.648  10.313   0.457  1.00  0.00     0.051 C
HETATM   26  C6  UNL     1      45.036  11.658   0.048  1.00  0.00     0.169 C
HETATM   27  O1  UNL     1      44.563  12.220   1.232  1.00  0.00    -0.391 OA
HETATM   28  C7  UNL     1      45.628  12.718   1.938  1.00  0.00     0.169 C
HETATM   29  C8  UNL     1      46.899  11.958   1.811  1.00  0.00     0.051 C
ENDBRANCH   6  24
TORSDOF 7
ENDMDL