MODEL 5
REMARK VINA RESULT: -6.679572229      3.784      8.377
REMARK  7 active torsions:
REMARK  status: ('A' for Active; 'I' for Inactive)
REMARK    1  A    between atoms: C2_2  and  C3_3
REMARK    2  A    between atoms: C5_5  and  C6_6
REMARK    3  A    between atoms: C9_11  and  N2_12
REMARK    4  A    between atoms: C10_17  and  N4_18
REMARK    5  A    between atoms: C13_21  and  C14_22
REMARK    6  A    between atoms: C14_22  and  C15_23
REMARK    7  A    between atoms: C15_23  and  O1_24
ROOT
HETATM    1  C6  UNL     1      44.361  10.877  -1.851  1.00  0.00     0.017 A
HETATM    2  C7  UNL     1      44.192  12.133  -2.393  1.00  0.00     0.056 A
HETATM    3  C8  UNL     1      44.293  13.278  -1.645  1.00  0.00     0.068 A
HETATM    4  N1  UNL     1      44.142  14.489  -2.204  1.00  0.00    -0.191 N
ATOM      5  H1  UNL     1      43.936  14.579  -3.199  1.00  0.00     0.184 HD
HETATM    6  C9  UNL     1      44.265  15.581  -1.434  1.00  0.00     0.677 A
HETATM    7  N3  UNL     1      44.532  15.522  -0.134  1.00  0.00    -0.176 N
ATOM      8  H3  UNL     1      44.615  16.388   0.398  1.00  0.00     0.186 HD
HETATM    9  C10 UNL     1      44.701  14.301   0.520  1.00  0.00     0.135 A
HETATM   10  C18 UNL     1      44.576  13.217  -0.273  1.00  0.00     0.074 A
HETATM   11  C19 UNL     1      44.740  11.967   0.236  1.00  0.00     0.120 A
HETATM   12 CL1  UNL     1      45.151  11.654   1.886  1.00  0.00    -0.063 Cl
HETATM   13  N5  UNL     1      44.633  10.842  -0.538  1.00  0.00    -0.349 N
ATOM     14  H5  UNL     1      44.765   9.934  -0.094  1.00  0.00     0.166 HD
ENDROOT
BRANCH   9  15
HETATM   15  N4  UNL     1      44.904  14.418   1.893  1.00  0.00    -0.366 N
HETATM   16  C11 UNL     1      43.957  15.116   2.733  1.00  0.00     0.125 C
HETATM   17  C12 UNL     1      44.664  16.394   3.272  1.00  0.00     0.024 C
HETATM   18  C13 UNL     1      45.771  15.856   4.140  1.00  0.00    -0.009 C
HETATM   19  C16 UNL     1      46.767  15.149   3.262  1.00  0.00     0.024 C
HETATM   20  C17 UNL     1      46.127  13.965   2.517  1.00  0.00     0.125 C
BRANCH  18  21
HETATM   21  C14 UNL     1      46.454  16.913   4.947  1.00  0.00     0.031 C
BRANCH  21  22
HETATM   22  C15 UNL     1      47.925  16.999   4.716  1.00  0.00     0.164 C
BRANCH  22  23
HETATM   23  O1  UNL     1      48.371  18.210   5.266  1.00  0.00    -0.401 OA
ATOM     24  H1  UNL     1      49.253  18.362   4.949  1.00  0.00     0.209 HD
ENDBRANCH  22  23
ENDBRANCH  21  22
ENDBRANCH  18  21
ENDBRANCH   9  15
BRANCH   6  25
HETATM   25  N2  UNL     1      44.120  16.762  -1.974  1.00  0.00    -0.234 N
ATOM     26  H22 UNL     1      44.087  17.569  -1.351  1.00  0.00     0.174 HD
ATOM     27  H21 UNL     1      44.045  16.839  -2.988  1.00  0.00     0.174 HD
ENDBRANCH   6  25
BRANCH   1  28
HETATM   28  C5  UNL     1      44.269   9.621  -2.622  1.00  0.00     0.040 A
HETATM   29  C3  UNL     1      45.419   9.059  -3.358  1.00  0.00    -0.004 A
HETATM   30  C4  UNL     1      44.192   9.590  -4.080  1.00  0.00     0.016 A
BRANCH  29  31
HETATM   31  C2  UNL     1      46.690   9.773  -3.637  1.00  0.00     0.001 C
HETATM   32  C1  UNL     1      47.754   9.522  -2.589  1.00  0.00     0.005 C
ENDBRANCH  29  31
ENDBRANCH   1  28
TORSDOF 7
ENDMDL