MODEL 2
REMARK VINA RESULT: -7.019199647      1.222      1.318
REMARK  6 active torsions:
REMARK  status: ('A' for Active; 'I' for Inactive)
REMARK    1  A    between atoms: O1_2  and  C2_3
REMARK    2  A    between atoms: C6_9  and  C7_10
REMARK       I    between atoms: C7_10  and  N2_12
REMARK    3  A    between atoms: N2_12  and  C8_14
REMARK    4  A    between atoms: C8_14  and  C9_15
REMARK    5  A    between atoms: C8_14  and  C10_18
REMARK    6  A    between atoms: C9_15  and  O3_16
ROOT
HETATM    1  C2  UNL     1      44.379  14.168  -0.845  1.00  0.00     0.158 A
HETATM    2  N1  UNL     1      44.006  13.631  -2.049  1.00  0.00    -0.338 N
ATOM      3  H1  UNL     1      43.681  14.249  -2.792  1.00  0.00     0.168 HD
HETATM    4  C3  UNL     1      44.059  12.330  -2.268  1.00  0.00     0.041 A
HETATM    5  C4  UNL     1      44.506  11.524  -1.240  1.00  0.00    -0.006 A
HETATM    6  C5  UNL     1      44.887  12.029  -0.023  1.00  0.00     0.033 A
HETATM    7  C6  UNL     1      44.829  13.424   0.210  1.00  0.00     0.083 A
HETATM    8  C13 UNL     1      44.564  10.069  -1.490  1.00  0.00     0.048 C
HETATM    9  C14 UNL     1      44.517   9.304  -0.173  1.00  0.00     0.043 C
HETATM   10  C15 UNL     1      45.908   9.764  -2.122  1.00  0.00     0.043 C
HETATM   11  N3  UNL     1      43.541   9.557  -2.323  1.00  0.00    -0.399 N
ATOM     12  H3  UNL     1      43.136   8.638  -2.145  1.00  0.00     0.155 HD
HETATM   13  C16 UNL     1      43.094  10.343  -3.403  1.00  0.00     0.041 C
HETATM   14  C17 UNL     1      41.583  10.483  -3.289  1.00  0.00     0.039 C
HETATM   15  C18 UNL     1      43.353   9.595  -4.697  1.00  0.00     0.039 C
HETATM   16  C19 UNL     1      43.674  11.709  -3.532  1.00  0.00     0.159 C
HETATM   17 CL1  UNL     1      42.472  12.798  -4.313  1.00  0.00    -0.116 Cl
ENDROOT
BRANCH   7  18
HETATM   18  C7  UNL     1      45.241  13.906   1.508  1.00  0.00     0.256 C
HETATM   19  O2  UNL     1      45.738  13.065   2.356  1.00  0.00    -0.267 OA
HETATM   20  N2  UNL     1      45.167  15.208   1.977  1.00  0.00    -0.350 N
ATOM     21  H2  UNL     1      44.785  15.929   1.365  1.00  0.00     0.163 HD
BRANCH  20  22
HETATM   22  C8  UNL     1      45.621  15.590   3.332  1.00  0.00     0.112 C
BRANCH  22  23
HETATM   23  C9  UNL     1      44.582  16.476   3.945  1.00  0.00     0.189 C
BRANCH  23  24
HETATM   24  O3  UNL     1      44.274  17.612   3.216  1.00  0.00    -0.399 OA
ATOM     25  H3  UNL     1      43.432  18.003   3.416  1.00  0.00     0.209 HD
ENDBRANCH  23  24
ENDBRANCH  22  23
BRANCH  22  26
HETATM   26  C10 UNL     1      46.966  16.206   3.153  1.00  0.00     0.010 A
HETATM   27  C11 UNL     1      48.144  15.583   3.924  1.00  0.00     0.007 A
HETATM   28  C12 UNL     1      47.642  16.918   4.268  1.00  0.00     0.007 A
ENDBRANCH  22  26
ENDBRANCH  20  22
ENDBRANCH   7  18
BRANCH   1  29
HETATM   29  O1  UNL     1      44.297  15.554  -0.681  1.00  0.00    -0.340 OA
HETATM   30  C1  UNL     1      44.285  16.463  -1.757  1.00  0.00     0.211 C
ENDBRANCH   1  29
TORSDOF 6
ENDMDL