MODEL 2
REMARK VINA RESULT: -5.879283939      1.584      3.108
REMARK  7 active torsions:
REMARK  status: ('A' for Active; 'I' for Inactive)
REMARK    1  A    between atoms: C2_2  and  C3_3
REMARK    2  A    between atoms: C3_3  and  N1_4
REMARK    3  A    between atoms: N1_4  and  C4_6
REMARK    4  A    between atoms: C5_9  and  N3_10
REMARK    5  A    between atoms: C7_16  and  C8_17
REMARK    6  A    between atoms: C13_23  and  O1_24
REMARK    7  A    between atoms: O1_24  and  C14_25
ROOT
HETATM    1  C4  UNL     1      46.481  11.537  -2.163  1.00  0.00     0.133 A
HETATM    2  N2  UNL     1      46.836  10.376  -2.689  1.00  0.00    -0.176 N
ATOM      3  H2  UNL     1      47.737  10.320  -3.164  1.00  0.00     0.186 HD
HETATM    4  C5  UNL     1      46.071   9.255  -2.633  1.00  0.00     0.677 A
HETATM    5  N4  UNL     1      44.879   9.338  -1.999  1.00  0.00    -0.201 N
ATOM      6  H4  UNL     1      44.283   8.512  -1.938  1.00  0.00     0.183 HD
HETATM    7  C6  UNL     1      44.472  10.486  -1.450  1.00  0.00     0.122 A
HETATM    8  C7  UNL     1      45.240  11.604  -1.511  1.00  0.00     0.038 A
ENDROOT
BRANCH   8   9
HETATM    9  C8  UNL     1      44.843  12.841  -0.859  1.00  0.00     0.017 A
HETATM   10  C9  UNL     1      44.318  13.795  -1.733  1.00  0.00     0.042 A
HETATM   11  C10 UNL     1      43.921  15.044  -1.323  1.00  0.00     0.071 A
HETATM   12 CL1  UNL     1      43.265  16.236  -2.428  1.00  0.00    -0.081 Cl
HETATM   13  C11 UNL     1      44.066  15.314   0.017  1.00  0.00     0.126 A
HETATM   14  C12 UNL     1      44.578  14.384   0.875  1.00  0.00     0.138 A
HETATM   15  O3  UNL     1      43.684  16.558   0.506  1.00  0.00    -0.344 OA
HETATM   16  C13 UNL     1      44.991  13.091   0.461  1.00  0.00     0.116 A
HETATM   17  O2  UNL     1      44.675  14.776   2.209  1.00  0.00    -0.344 OA
HETATM   18  C17 UNL     1      44.860  16.147   2.536  1.00  0.00     0.202 C
HETATM   19  C18 UNL     1      43.743  16.919   1.865  1.00  0.00     0.202 C
BRANCH  16  20
HETATM   20  O1  UNL     1      45.479  12.264   1.431  1.00  0.00    -0.343 OA
BRANCH  20  21
HETATM   21  C14 UNL     1      46.741  12.002   1.902  1.00  0.00     0.121 C
HETATM   22  C15 UNL     1      47.108  10.543   2.055  1.00  0.00     0.040 C
HETATM   23  C16 UNL     1      46.946  12.593   3.316  1.00  0.00     0.040 C
ENDBRANCH  20  21
ENDBRANCH  16  20
ENDBRANCH   8   9
BRANCH   1  24
HETATM   24  N1  UNL     1      47.180  12.616  -2.213  1.00  0.00    -0.355 N
ATOM     25  H1  UNL     1      47.220  13.161  -1.352  1.00  0.00     0.166 HD
BRANCH  24  26
HETATM   26  C3  UNL     1      47.898  13.141  -3.306  1.00  0.00     0.062 C
BRANCH  26  27
HETATM   27  C2  UNL     1      47.075  13.949  -4.292  1.00  0.00     0.040 C
HETATM   28  C1  UNL     1      46.952  15.386  -3.877  1.00  0.00     0.010 C
ENDBRANCH  26  27
ENDBRANCH  24  26
ENDBRANCH   1  24
BRANCH   4  29
HETATM   29  N3  UNL     1      46.462   8.145  -3.158  1.00  0.00    -0.234 N
ATOM     30  H32 UNL     1      46.722   8.098  -4.143  1.00  0.00     0.174 HD
ATOM     31  H31 UNL     1      46.519   7.285  -2.612  1.00  0.00     0.174 HD
ENDBRANCH   4  29
TORSDOF 7
ENDMDL