MODEL 3
REMARK VINA RESULT: -8.000785160      3.866      6.562
REMARK  7 active torsions:
REMARK  status: ('A' for Active; 'I' for Inactive)
REMARK    1  A    between atoms: C5_5  and  O1_6
REMARK    2  A    between atoms: O1_6  and  C6_7
REMARK    3  A    between atoms: C8_9  and  N1_10
REMARK    4  A    between atoms: N1_10  and  C9_12
REMARK    5  A    between atoms: C11_15  and  O3_16
REMARK    6  A    between atoms: C12_18  and  O4_19
REMARK    7  A    between atoms: C14_23  and  C15_24
ROOT
HETATM    1  C6  UNL     1      45.001  13.476   0.753  1.00  0.00     0.072 A
HETATM    2  C7  UNL     1      44.440  14.294  -0.193  1.00  0.00     0.069 A
HETATM    3  C8  UNL     1      44.246  15.648   0.008  1.00  0.00     0.072 A
HETATM    4  C13 UNL     1      44.643  16.174   1.220  1.00  0.00     0.149 A
HETATM    5  F1  UNL     1      44.459  17.517   1.436  1.00  0.00    -0.203 F
HETATM    6  C14 UNL     1      45.218  15.393   2.216  1.00  0.00    -0.010 A
HETATM    7  C19 UNL     1      45.379  14.051   1.947  1.00  0.00     0.047 A
ENDROOT
BRANCH   3   8
HETATM    8  N1  UNL     1      43.677  16.490  -0.957  1.00  0.00    -0.359 N
ATOM      9  H1  UNL     1      43.040  17.224  -0.647  1.00  0.00     0.162 HD
BRANCH   8  10
HETATM   10  C9  UNL     1      43.951  16.366  -2.376  1.00  0.00     0.252 C
HETATM   11  O2  UNL     1      42.798  16.524  -3.096  1.00  0.00    -0.361 OA
HETATM   12  C10 UNL     1      43.122  17.180  -4.282  1.00  0.00     0.205 C
HETATM   13  C11 UNL     1      44.078  18.256  -3.751  1.00  0.00     0.175 C
HETATM   14  C12 UNL     1      44.931  17.413  -2.825  1.00  0.00     0.197 C
BRANCH  13  15
HETATM   15  O3  UNL     1      43.409  19.276  -3.133  1.00  0.00    -0.391 OA
ATOM     16  H3  UNL     1      42.745  19.657  -3.696  1.00  0.00     0.210 HD
ENDBRANCH  13  15
BRANCH  14  17
HETATM   17  O4  UNL     1      45.341  18.233  -1.774  1.00  0.00    -0.389 OA
ATOM     18  H4  UNL     1      45.701  17.733  -1.050  1.00  0.00     0.210 HD
ENDBRANCH  14  17
ENDBRANCH   8  10
ENDBRANCH   3   8
BRANCH   1  19
HETATM   19  O1  UNL     1      45.180  12.160   0.538  1.00  0.00    -0.346 OA
BRANCH  19  20
HETATM   20  C5  UNL     1      44.481  11.221  -0.181  1.00  0.00     0.129 C
HETATM   21  C4  UNL     1      44.612   9.810   0.301  1.00  0.00     0.033 C
HETATM   22  C3  UNL     1      44.680   8.774  -0.744  1.00  0.00     0.007 C
HETATM   23  C2  UNL     1      43.908   9.028  -1.995  1.00  0.00    -0.019 C
HETATM   24  C1  UNL     1      42.529   8.409  -1.941  1.00  0.00     0.010 C
HETATM   25  C21 UNL     1      43.755  10.477  -2.352  1.00  0.00     0.007 C
HETATM   26  C20 UNL     1      44.857  11.281  -1.669  1.00  0.00     0.033 C
ENDBRANCH  19  20
ENDBRANCH   1  19
BRANCH   6  27
HETATM   27  C15 UNL     1      45.601  16.056   3.464  1.00  0.00     0.022 C
HETATM   28  C16 UNL     1      46.709  17.040   3.413  1.00  0.00     0.009 C
HETATM   29  C17 UNL     1      47.683  15.913   3.694  1.00  0.00     0.001 C
HETATM   30  C18 UNL     1      46.505  15.133   4.280  1.00  0.00     0.009 C
ENDBRANCH   6  27
TORSDOF 7
ENDMDL