MODEL 1
REMARK VINA RESULT: -7.475303706      0.000      0.000
REMARK  6 active torsions:
REMARK  status: ('A' for Active; 'I' for Inactive)
REMARK    1  A    between atoms: N1_1  and  C1_5
REMARK    2  A    between atoms: C1_5  and  C2_6
REMARK    3  A    between atoms: C1_5  and  C14_29
REMARK    4  A    between atoms: C2_6  and  N2_7
REMARK    5  A    between atoms: C4_12  and  C5_13
REMARK    6  A    between atoms: C8_18  and  C9_19
ROOT
HETATM    1  N2  UNL     1      45.473  13.051   0.813  1.00  0.00    -0.203 N
ATOM      2  H2  UNL     1      45.917  13.100   1.731  1.00  0.00     0.183 HD
HETATM    3  C3  UNL     1      45.875  12.041   0.218  1.00  0.00     0.682 A
HETATM    4  N3  UNL     1      46.782  11.187   0.791  1.00  0.00    -0.186 N
ATOM      5  H3  UNL     1      47.127  11.421   1.722  1.00  0.00     0.184 HD
HETATM    6  C4  UNL     1      47.243  10.081   0.225  1.00  0.00     0.116 A
HETATM    7  C12 UNL     1      46.792   9.743  -1.032  1.00  0.00     0.081 A
HETATM    8 CL1  UNL     1      47.349   8.305  -1.861  1.00  0.00    -0.080 Cl
HETATM    9  C13 UNL     1      45.892  10.567  -1.629  1.00  0.00     0.132 A
HETATM   10  N6  UNL     1      45.451  11.688  -1.001  1.00  0.00    -0.200 N
ATOM     11  H6  UNL     1      44.772  12.283  -1.476  1.00  0.00     0.183 HD
ENDROOT
BRANCH   1  12
HETATM   12  C2  UNL     1      44.627  14.134   0.656  1.00  0.00     0.112 C
BRANCH  12  13
HETATM   13  C1  UNL     1      44.324  14.855   1.943  1.00  0.00     0.226 C
BRANCH  13  14
HETATM   14  N1  UNL     1      43.517  16.058   1.693  1.00  0.00    -0.070 N
ATOM     15  H13 UNL     1      43.972  16.687   1.031  1.00  0.00     0.275 HD
ATOM     16  H12 UNL     1      42.679  15.845   1.152  1.00  0.00     0.275 HD
ATOM     17  H11 UNL     1      43.290  16.533   2.568  1.00  0.00     0.275 HD
ENDBRANCH  13  14
BRANCH  13  18
HETATM   18  C14 UNL     1      45.599  15.373   2.593  1.00  0.00     0.021 C
HETATM   19  C15 UNL     1      45.226  16.531   3.488  1.00  0.00     0.007 C
HETATM   20  C16 UNL     1      46.483  17.367   3.648  1.00  0.00     0.000 C
HETATM   21  C17 UNL     1      47.687  16.469   3.499  1.00  0.00     0.000 C
HETATM   22  C18 UNL     1      47.499  15.099   4.067  1.00  0.00     0.000 C
HETATM   23  C19 UNL     1      46.331  14.370   3.407  1.00  0.00     0.007 C
ENDBRANCH  13  18
ENDBRANCH  12  13
ENDBRANCH   1  12
BRANCH   6  24
HETATM   24  C5  UNL     1      48.208   9.226   0.904  1.00  0.00     0.135 A
HETATM   25  N4  UNL     1      49.535   9.433   0.661  1.00  0.00    -0.350 N
HETATM   26  C6  UNL     1      50.443   8.655   1.271  1.00  0.00     0.091 A
ATOM     27  H4  UNL     1      49.834  10.171   0.024  1.00  0.00     0.166 HD
HETATM   28  C7  UNL     1      50.091   7.656   2.134  1.00  0.00     0.042 A
HETATM   29  C8  UNL     1      48.727   7.457   2.370  1.00  0.00     0.016 A
HETATM   30  N5  UNL     1      47.870   8.261   1.737  1.00  0.00    -0.344 N
ATOM     31  H5  UNL     1      46.875   8.117   1.910  1.00  0.00     0.167 HD
BRANCH  29  32
HETATM   32  C9  UNL     1      48.370   6.364   3.297  1.00  0.00     0.036 A
HETATM   33  C10 UNL     1      48.075   6.744   4.751  1.00  0.00     0.011 A
HETATM   34  C11 UNL     1      49.285   5.945   4.403  1.00  0.00     0.011 A
ENDBRANCH  29  32
ENDBRANCH   6  24
TORSDOF 6
ENDMDL