MODEL 2
REMARK VINA RESULT: -7.509445159      1.071      1.137
REMARK  5 active torsions:
REMARK  status: ('A' for Active; 'I' for Inactive)
REMARK    1  A    between atoms: C2_2  and  N1_3
REMARK    2  A    between atoms: C4_8  and  N3_9
REMARK       I    between atoms: N3_9  and  C5_11
REMARK    3  A    between atoms: C5_11  and  C6_13
REMARK    4  A    between atoms: C11_18  and  C12_19
REMARK       I    between atoms: C12_19  and  N4_21
REMARK    5  A    between atoms: N4_21  and  C13_23
ROOT
HETATM    1  C6  UNL     1      47.224  11.382   1.040  1.00  0.00     0.091 C
HETATM    2  C7  UNL     1      47.168  11.380  -0.430  1.00  0.00     0.015 C
HETATM    3  C8  UNL     1      45.854  11.092  -1.058  1.00  0.00     0.001 C
HETATM    4  C9  UNL     1      44.849  10.489  -0.131  1.00  0.00     0.001 C
HETATM    5  C10 UNL     1      44.704  11.420   1.032  1.00  0.00     0.015 C
HETATM    6  C11 UNL     1      45.962  11.715   1.760  1.00  0.00     0.091 C
ENDROOT
BRANCH   1   7
HETATM    7  C5  UNL     1      47.781  10.056   1.559  1.00  0.00     0.227 C
HETATM    8  N3  UNL     1      48.991   9.566   1.084  1.00  0.00    -0.321 N
ATOM      9  H3  UNL     1      49.452  10.148   0.386  1.00  0.00     0.169 HD
HETATM   10  O1  UNL     1      47.072   9.507   2.398  1.00  0.00    -0.273 OA
BRANCH   8  11
HETATM   11  C4  UNL     1      49.665   8.399   1.420  1.00  0.00     0.118 A
HETATM   12  C3  UNL     1      50.424   7.660   0.502  1.00  0.00     0.148 A
HETATM   13  N2  UNL     1      50.944   6.599   1.125  1.00  0.00    -0.284 N
HETATM   14 CL1  UNL     1      50.651   8.065  -1.188  1.00  0.00    -0.060 Cl
HETATM   15  N1  UNL     1      50.561   6.632   2.363  1.00  0.00    -0.276 N
ATOM     16  H2  UNL     1      51.539   5.887   0.701  1.00  0.00     0.188 HD
HETATM   17  C18 UNL     1      49.778   7.712   2.596  1.00  0.00     0.163 A
HETATM   18  N5  UNL     1      49.232   7.962   3.891  1.00  0.00    -0.079 NA
BRANCH  15  19
HETATM   19  C2  UNL     1      50.917   5.649   3.374  1.00  0.00     0.146 C
HETATM   20  C1  UNL     1      52.120   6.090   4.169  1.00  0.00     0.028 C
ENDBRANCH  15  19
ENDBRANCH   8  11
ENDBRANCH   1   7
BRANCH   6  21
HETATM   21  C12 UNL     1      45.936  13.171   2.151  1.00  0.00     0.223 C
HETATM   22  O2  UNL     1      45.103  13.968   1.598  1.00  0.00    -0.273 OA
HETATM   23  N4  UNL     1      46.830  13.670   3.129  1.00  0.00    -0.356 N
ATOM     24  H4  UNL     1      47.497  13.040   3.573  1.00  0.00     0.162 HD
BRANCH  23  25
HETATM   25  C13 UNL     1      46.805  15.042   3.498  1.00  0.00     0.084 C
HETATM   26  C14 UNL     1      48.152  15.619   3.828  1.00  0.00     0.025 C
HETATM   27  C15 UNL     1      47.759  16.971   4.438  1.00  0.00     0.002 C
HETATM   28  C16 UNL     1      46.388  16.765   5.037  1.00  0.00     0.002 C
HETATM   29  C17 UNL     1      46.036  15.301   4.789  1.00  0.00     0.025 C
ENDBRANCH  23  25
ENDBRANCH   6  21
TORSDOF 5
ENDMDL