MODEL 3
REMARK VINA RESULT: -7.097178701      4.084      4.898
REMARK  6 active torsions:
REMARK  status: ('A' for Active; 'I' for Inactive)
REMARK    1  A    between atoms: N1_1  and  C1_5
REMARK    2  A    between atoms: C4_8  and  C5_9
REMARK    3  A    between atoms: C5_9  and  N2_10
REMARK    4  A    between atoms: N2_10  and  C6_12
REMARK    5  A    between atoms: N4_19  and  C10_21
REMARK    6  A    between atoms: C16_27  and  N5_28
ROOT
HETATM    1  C6  UNL     1      45.486  11.772   0.833  1.00  0.00     0.105 A
HETATM    2  C7  UNL     1      46.275  10.754   1.318  1.00  0.00     0.160 A
HETATM    3  F1  UNL     1      46.322   9.530   0.742  1.00  0.00    -0.202 F
HETATM    4  C8  UNL     1      47.031  11.029   2.433  1.00  0.00     0.134 A
HETATM    5  N3  UNL     1      47.021  12.219   3.038  1.00  0.00    -0.347 N
ATOM      6  H3  UNL     1      47.606  12.357   3.862  1.00  0.00     0.167 HD
HETATM    7  C9  UNL     1      46.243  13.271   2.586  1.00  0.00     0.137 A
HETATM    8  N4  UNL     1      46.304  14.334   3.205  1.00  0.00    -0.370 N
ATOM      9  H4  UNL     1      46.962  14.188   3.971  1.00  0.00     0.161 HD
HETATM   10  C16 UNL     1      45.486  13.021   1.483  1.00  0.00     0.175 A
ENDROOT
BRANCH   1  11
HETATM   11  N2  UNL     1      44.677  11.493  -0.301  1.00  0.00    -0.385 N
ATOM     12  H2  UNL     1      43.671  11.421  -0.146  1.00  0.00     0.159 HD
BRANCH  11  13
HETATM   13  C5  UNL     1      45.143  11.306  -1.638  1.00  0.00     0.124 C
BRANCH  13  14
HETATM   14  C4  UNL     1      44.520  10.069  -2.263  1.00  0.00     0.003 C
HETATM   15  C3  UNL     1      43.727  10.439  -3.508  1.00  0.00     0.008 C
HETATM   16  C2  UNL     1      42.245  10.371  -3.250  1.00  0.00     0.033 C
HETATM   17  C1  UNL     1      41.899   8.930  -2.939  1.00  0.00     0.183 C
HETATM   18  C18 UNL     1      42.749   8.373  -1.848  1.00  0.00     0.033 C
HETATM   19  C17 UNL     1      43.612   9.444  -1.241  1.00  0.00     0.008 C
BRANCH  17  20
HETATM   20  N1  UNL     1      40.500   8.783  -2.592  1.00  0.00    -0.075 N
ATOM     21  H13 UNL     1      40.022   9.684  -2.576  1.00  0.00     0.274 HD
ATOM     22  H12 UNL     1      39.973   8.339  -3.344  1.00  0.00     0.274 HD
ATOM     23  H11 UNL     1      40.384   8.283  -1.710  1.00  0.00     0.274 HD
ENDBRANCH  17  20
ENDBRANCH  13  14
ENDBRANCH  11  13
ENDBRANCH   1  11
BRANCH  10  24
HETATM   24  N5  UNL     1      44.625  14.005   0.960  1.00  0.00    -0.109 N
HETATM   25  O1  UNL     1      44.730  14.355  -0.219  1.00  0.00    -0.532 OA
HETATM   26  O2  UNL     1      43.678  14.566   1.768  1.00  0.00    -0.532 OA
ENDBRANCH  10  24
BRANCH   8  27
HETATM   27  C10 UNL     1      45.868  15.626   3.307  1.00  0.00     0.083 C
HETATM   28  C11 UNL     1      46.892  16.669   2.830  1.00  0.00     0.025 C
HETATM   29  C12 UNL     1      48.154  16.434   3.645  1.00  0.00     0.002 C
HETATM   30  C13 UNL     1      47.867  17.035   5.016  1.00  0.00     0.000 C
HETATM   31  C14 UNL     1      46.389  17.128   5.275  1.00  0.00     0.002 C
HETATM   32  C15 UNL     1      45.605  15.967   4.765  1.00  0.00     0.025 C
ENDBRANCH   8  27
TORSDOF 6
ENDMDL