MODEL 1
REMARK VINA RESULT: -7.851127354      0.000      0.000
REMARK  7 active torsions:
REMARK  status: ('A' for Active; 'I' for Inactive)
REMARK    1  A    between atoms: N1_4  and  O1_5
REMARK    2  A    between atoms: C6_10  and  C7_11
REMARK    3  A    between atoms: C7_11  and  C8_12
REMARK    4  A    between atoms: N2_14  and  C10_15
REMARK    5  A    between atoms: C10_15  and  C11_16
REMARK    6  A    between atoms: C11_16  and  C12_17
REMARK    7  A    between atoms: C16_23  and  N4_24
ROOT
HETATM    1  C8  UNL     1      44.522  13.835   0.645  1.00  0.00    -0.004 A
HETATM    2  C9  UNL     1      44.893  12.556   0.317  1.00  0.00     0.105 A
HETATM    3  N2  UNL     1      44.816  12.400  -1.038  1.00  0.00    -0.341 N
HETATM    4  C15 UNL     1      44.408  13.531  -1.604  1.00  0.00     0.135 A
HETATM    5  N3  UNL     1      44.173  13.889  -2.885  1.00  0.00    -0.176 N
ATOM      6  H3  UNL     1      44.317  13.213  -3.635  1.00  0.00     0.186 HD
HETATM    7  C16 UNL     1      43.746  15.143  -3.177  1.00  0.00     0.677 A
HETATM    8  N5  UNL     1      43.552  16.049  -2.179  1.00  0.00    -0.201 N
ATOM      9  H5  UNL     1      43.230  16.990  -2.400  1.00  0.00     0.183 HD
HETATM   10  C17 UNL     1      43.784  15.702  -0.908  1.00  0.00     0.122 A
HETATM   11  C18 UNL     1      44.220  14.439  -0.557  1.00  0.00     0.036 A
ENDROOT
BRANCH   1  12
HETATM   12  C7  UNL     1      44.437  14.413   1.962  1.00  0.00     0.027 C
BRANCH  12  13
HETATM   13  C6  UNL     1      45.572  15.017   2.608  1.00  0.00    -0.005 A
HETATM   14  C2  UNL     1      45.544  16.428   2.702  1.00  0.00    -0.032 A
HETATM   15  C1  UNL     1      44.386  17.172   2.146  1.00  0.00     0.050 C
HETATM   16  C3  UNL     1      46.564  17.123   3.299  1.00  0.00     0.130 A
HETATM   17  N1  UNL     1      47.627  16.507   3.816  1.00  0.00    -0.245 N
HETATM   18  C4  UNL     1      47.695  15.179   3.750  1.00  0.00     0.147 A
HETATM   19  C5  UNL     1      46.668  14.428   3.147  1.00  0.00     0.062 A
HETATM   20 CL1  UNL     1      46.793  12.696   3.092  1.00  0.00    -0.082 Cl
BRANCH  17  21
HETATM   21  O1  UNL     1      48.650  17.210   4.413  1.00  0.00    -0.284 OA
ATOM     22  H1  UNL     1      49.118  16.867   5.166  1.00  0.00     0.245 HD
ENDBRANCH  17  21
ENDBRANCH  12  13
ENDBRANCH   1  12
BRANCH   3  23
HETATM   23  C10 UNL     1      45.157  11.183  -1.772  1.00  0.00     0.130 C
BRANCH  23  24
HETATM   24  C11 UNL     1      43.974  10.304  -1.970  1.00  0.00     0.024 C
BRANCH  24  25
HETATM   25  C12 UNL     1      43.869   9.120  -1.065  1.00  0.00    -0.021 C
HETATM   26  C13 UNL     1      45.174   8.584  -0.584  1.00  0.00     0.009 C
HETATM   27  C14 UNL     1      43.119   7.976  -1.763  1.00  0.00     0.009 C
ENDBRANCH  24  25
ENDBRANCH  23  24
ENDBRANCH   3  23
BRANCH   7  28
HETATM   28  N4  UNL     1      43.546  15.398  -4.415  1.00  0.00    -0.234 N
ATOM     29  H42 UNL     1      44.267  15.320  -5.132  1.00  0.00     0.174 HD
ATOM     30  H41 UNL     1      42.603  15.694  -4.667  1.00  0.00     0.174 HD
ENDBRANCH   7  28
TORSDOF 7
ENDMDL