MODEL 3
REMARK VINA RESULT: -7.457164459      1.191      1.409
REMARK  6 active torsions:
REMARK  status: ('A' for Active; 'I' for Inactive)
REMARK    1  A    between atoms: C2_2  and  C5_7
REMARK    2  A    between atoms: C3_3  and  C4_4
REMARK    3  A    between atoms: C5_7  and  C6_8
REMARK    4  A    between atoms: C6_8  and  C7_9
REMARK    5  A    between atoms: C15_19  and  C16_20
REMARK    6  A    between atoms: C18_23  and  O5_24
ROOT
HETATM    1  C7  UNL     1      45.784  12.730   0.827  1.00  0.00     0.015 C
HETATM    2  C8  UNL     1      46.990  11.976   1.250  1.00  0.00     0.010 C
HETATM    3  C9  UNL     1      47.439  10.894   0.340  1.00  0.00     0.034 C
HETATM    4  C10 UNL     1      46.340  10.175  -0.373  1.00  0.00     0.144 C
HETATM    5  O3  UNL     1      46.843   9.298  -1.336  1.00  0.00    -0.315 OA
HETATM    6  C11 UNL     1      45.935   8.525  -2.046  1.00  0.00     0.263 C
HETATM    7  O4  UNL     1      46.293   7.438  -2.546  1.00  0.00    -0.265 OA
HETATM    8  C12 UNL     1      44.533   8.975  -2.223  1.00  0.00     0.082 C
HETATM    9  C13 UNL     1      43.553   7.812  -2.023  1.00  0.00     0.020 C
HETATM   10  C14 UNL     1      44.125  10.051  -1.272  1.00  0.00     0.030 C
HETATM   11  C15 UNL     1      45.277  11.024  -0.957  1.00  0.00     0.030 C
HETATM   12  C18 UNL     1      44.742  11.930   0.119  1.00  0.00     0.134 C
ENDROOT
BRANCH   1  13
HETATM   13  C6  UNL     1      45.124  13.290   2.098  1.00  0.00     0.011 C
BRANCH  13  14
HETATM   14  C5  UNL     1      45.398  14.785   2.070  1.00  0.00     0.034 C
BRANCH  14  15
HETATM   15  C2  UNL     1      46.299  15.193   3.180  1.00  0.00    -0.077 C
HETATM   16  C1  UNL     1      46.536  14.216   4.263  1.00  0.00     0.043 C
HETATM   17  C3  UNL     1      46.870  16.368   3.215  1.00  0.00     0.086 C
BRANCH  17  18
HETATM   18  C4  UNL     1      47.747  16.807   4.267  1.00  0.00     0.198 C
HETATM   19  O1  UNL     1      47.252  17.285   5.344  1.00  0.00    -0.644 OA
HETATM   20  O2  UNL     1      49.131  16.766   4.236  1.00  0.00    -0.644 OA
ENDBRANCH  17  18
ENDBRANCH  14  15
ENDBRANCH  13  14
ENDBRANCH   1  13
BRANCH  12  21
HETATM   21  O5  UNL     1      44.155  11.081   1.086  1.00  0.00    -0.394 OA
ATOM     22  H5  UNL     1      44.081  10.223   0.686  1.00  0.00     0.210 HD
ENDBRANCH  12  21
BRANCH  11  23
HETATM   23  C16 UNL     1      45.615  11.723  -2.219  1.00  0.00     0.091 C
HETATM   24  C17 UNL     1      44.699  12.895  -2.468  1.00  0.00     0.028 C
HETATM   25 CL1  UNL     1      47.271  12.335  -2.296  1.00  0.00    -0.124 Cl
ENDBRANCH  11  23
TORSDOF 6
ENDMDL