MODEL 4
REMARK VINA RESULT: -6.924239444      2.279      6.668
REMARK  6 active torsions:
REMARK  status: ('A' for Active; 'I' for Inactive)
REMARK    1  A    between atoms: C2_2  and  O1_4
REMARK    2  A    between atoms: C2_2  and  C4_6
REMARK    3  A    between atoms: C4_6  and  C5_7
REMARK    4  A    between atoms: C5_7  and  C6_8
REMARK    5  A    between atoms: C7_9  and  C8_10
REMARK    6  A    between atoms: N4_22  and  C13_24
ROOT
HETATM    1  C6  UNL     1      45.917  10.724   0.498  1.00  0.00    -0.007 A
HETATM    2  C7  UNL     1      45.239  10.662  -0.693  1.00  0.00     0.055 A
HETATM    3  N2  UNL     1      44.583  11.748  -1.199  1.00  0.00    -0.354 N
ATOM      4  H2  UNL     1      44.086  11.672  -2.086  1.00  0.00     0.166 HD
HETATM    5  C9  UNL     1      44.588  12.926  -0.530  1.00  0.00     0.049 A
HETATM    6  C10 UNL     1      43.913  14.029  -1.059  1.00  0.00     0.047 A
HETATM    7  C11 UNL     1      43.940  15.206  -0.351  1.00  0.00     0.092 A
HETATM    8  N3  UNL     1      44.602  15.275   0.818  1.00  0.00    -0.352 N
ATOM      9  H3  UNL     1      44.601  16.163   1.319  1.00  0.00     0.166 HD
HETATM   10  C12 UNL     1      45.263  14.245   1.361  1.00  0.00     0.115 A
HETATM   11  N4  UNL     1      45.905  14.333   2.495  1.00  0.00    -0.371 N
ATOM     12  H4  UNL     1      46.391  13.516   2.865  1.00  0.00     0.161 HD
HETATM   13  C18 UNL     1      45.252  13.040   0.666  1.00  0.00     0.057 A
HETATM   14  C19 UNL     1      45.920  11.936   1.183  1.00  0.00     0.058 A
HETATM   15 CL1  UNL     1      46.768  12.036   2.684  1.00  0.00    -0.083 Cl
ENDROOT
BRANCH   1  16
HETATM   16  C5  UNL     1      46.630   9.572   1.040  1.00  0.00     0.045 C
BRANCH  16  17
HETATM   17  C4  UNL     1      48.104   9.541   0.759  1.00  0.00     0.042 C
BRANCH  17  18
HETATM   18  C2  UNL     1      48.690   8.289   1.405  1.00  0.00     0.051 C
HETATM   19  C1  UNL     1      48.695   7.113   0.448  1.00  0.00     0.045 C
HETATM   20  C3  UNL     1      47.848   7.907   2.604  1.00  0.00     0.045 C
BRANCH  18  21
HETATM   21  O1  UNL     1      49.972   8.629   1.835  1.00  0.00    -0.391 OA
ATOM     22  H1  UNL     1      50.090   9.568   1.914  1.00  0.00     0.210 HD
ENDBRANCH  18  21
ENDBRANCH  17  18
ENDBRANCH  16  17
ENDBRANCH   1  16
BRANCH   2  23
HETATM   23  C8  UNL     1      45.231   9.386  -1.398  1.00  0.00     0.111 C
HETATM   24  N1  UNL     1      44.079   8.762  -1.452  1.00  0.00    -0.406 N
ATOM     25  H12 UNL     1      43.245   9.160  -1.019  1.00  0.00     0.155 HD
ATOM     26  H11 UNL     1      44.073   7.869  -1.946  1.00  0.00     0.155 HD
ENDBRANCH   2  23
BRANCH  11  27
HETATM   27  C13 UNL     1      45.933  15.559   3.219  1.00  0.00     0.083 C
HETATM   28  C14 UNL     1      47.328  16.180   3.249  1.00  0.00     0.025 C
HETATM   29  C15 UNL     1      47.147  17.257   4.299  1.00  0.00     0.002 C
HETATM   30  C16 UNL     1      46.275  16.604   5.341  1.00  0.00     0.002 C
HETATM   31  C17 UNL     1      45.703  15.362   4.709  1.00  0.00     0.025 C
ENDBRANCH  11  27
TORSDOF 6
ENDMDL