MODEL 3
REMARK VINA RESULT: -6.221727379      3.218      4.989
REMARK  7 active torsions:
REMARK  status: ('A' for Active; 'I' for Inactive)
REMARK    1  A    between atoms: O1_2  and  C2_3
REMARK    2  A    between atoms: C5_7  and  N1_8
REMARK    3  A    between atoms: N1_8  and  C6_10
REMARK    4  A    between atoms: C6_10  and  N2_12
REMARK    5  A    between atoms: N2_12  and  C7_14
REMARK    6  A    between atoms: C7_14  and  C8_15
REMARK    7  A    between atoms: C8_15  and  N3_16
ROOT
HETATM    1  C6  UNL     1      44.577  12.892   0.125  1.00  0.00     0.172 C
HETATM    2  S1  UNL     1      44.696  11.295  -0.193  1.00  0.00    -0.041 SA
ENDROOT
BRANCH   1   3
HETATM    3  N1  UNL     1      44.264  13.455   1.376  1.00  0.00    -0.331 N
ATOM      4  H1  UNL     1      43.462  13.037   1.847  1.00  0.00     0.168 HD
BRANCH   3   5
HETATM    5  C5  UNL     1      44.883  14.502   2.079  1.00  0.00     0.072 A
HETATM    6  C4  UNL     1      46.089  14.320   2.713  1.00  0.00     0.066 A
HETATM    7  C3  UNL     1      46.761  15.346   3.328  1.00  0.00     0.082 A
HETATM    8 CL1  UNL     1      46.817  12.705   2.758  1.00  0.00    -0.082 Cl
HETATM    9  C2  UNL     1      46.215  16.633   3.317  1.00  0.00     0.143 A
HETATM   10  N4  UNL     1      45.053  16.769   2.696  1.00  0.00    -0.345 N
HETATM   11  C16 UNL     1      44.360  15.801   2.083  1.00  0.00     0.121 A
ATOM     12  H4  UNL     1      44.645  17.703   2.685  1.00  0.00     0.167 HD
BRANCH   9  13
HETATM   13  O1  UNL     1      46.873  17.684   3.927  1.00  0.00    -0.341 OA
HETATM   14  C1  UNL     1      47.947  17.418   4.793  1.00  0.00     0.211 C
ENDBRANCH   9  13
ENDBRANCH   3   5
ENDBRANCH   1   3
BRANCH   1  15
HETATM   15  N2  UNL     1      44.850  13.769  -0.975  1.00  0.00    -0.364 N
ATOM     16  H2  UNL     1      45.749  13.737  -1.457  1.00  0.00     0.161 HD
BRANCH  15  17
HETATM   17  C7  UNL     1      43.827  14.693  -1.386  1.00  0.00     0.163 C
BRANCH  17  18
HETATM   18  C8  UNL     1      44.207  15.522  -2.567  1.00  0.00     0.174 C
HETATM   19  C11 UNL     1      45.473  15.046  -3.199  1.00  0.00     0.043 C
HETATM   20  C12 UNL     1      45.860  15.981  -4.364  1.00  0.00     0.003 C
HETATM   21  C13 UNL     1      46.288  17.281  -3.702  1.00  0.00     0.000 C
HETATM   22  C14 UNL     1      45.014  17.852  -3.063  1.00  0.00     0.003 C
HETATM   23  C15 UNL     1      44.477  16.929  -2.027  1.00  0.00     0.043 C
BRANCH  18  24
HETATM   24  N3  UNL     1      43.154  15.565  -3.559  1.00  0.00     0.091 N
HETATM   25  C9  UNL     1      42.877  14.285  -4.127  1.00  0.00     0.310 C
HETATM   26  C10 UNL     1      41.939  16.161  -3.083  1.00  0.00     0.310 C
ENDBRANCH  18  24
ENDBRANCH  17  18
ENDBRANCH  15  17
ENDBRANCH   1  15
TORSDOF 7
ENDMDL