MODEL 1
REMARK VINA RESULT: -6.873522126      0.000      0.000
REMARK  7 active torsions:
REMARK  status: ('A' for Active; 'I' for Inactive)
REMARK    1  A    between atoms: O1_2  and  C2_3
REMARK    2  A    between atoms: C2_3  and  C3_4
REMARK    3  A    between atoms: C3_4  and  N1_5
REMARK    4  A    between atoms: N1_5  and  C4_7
REMARK    5  A    between atoms: C4_7  and  N2_9
REMARK    6  A    between atoms: N2_9  and  C5_11
REMARK    7  A    between atoms: C9_15  and  N3_16
ROOT
HETATM    1  C5  UNL     1      44.679  12.418  -0.227  1.00  0.00     0.036 A
HETATM    2  C6  UNL     1      45.428  11.885   0.837  1.00  0.00     0.038 A
HETATM    3  C7  UNL     1      45.811  12.694   1.883  1.00  0.00    -0.032 A
HETATM    4  C8  UNL     1      46.602  12.092   2.989  1.00  0.00     0.050 C
HETATM    5  C9  UNL     1      45.487  14.033   1.937  1.00  0.00     0.058 A
HETATM    6  C16 UNL     1      44.759  14.534   0.894  1.00  0.00     0.063 A
HETATM    7 CL1  UNL     1      44.296  16.208   0.872  1.00  0.00    -0.082 Cl
HETATM    8  C17 UNL     1      44.362  13.747  -0.170  1.00  0.00     0.055 A
ENDROOT
BRANCH   1   9
HETATM    9  N2  UNL     1      44.366  11.531  -1.273  1.00  0.00    -0.333 N
ATOM     10  H2  UNL     1      43.378  11.454  -1.514  1.00  0.00     0.168 HD
BRANCH   9  11
HETATM   11  C4  UNL     1      45.240  10.747  -2.017  1.00  0.00     0.172 C
HETATM   12  S1  UNL     1      46.168  11.455  -3.211  1.00  0.00    -0.041 SA
BRANCH  11  13
HETATM   13  N1  UNL     1      45.377   9.359  -1.803  1.00  0.00    -0.365 N
ATOM     14  H1  UNL     1      46.125   9.016  -1.201  1.00  0.00     0.161 HD
BRANCH  13  15
HETATM   15  C3  UNL     1      44.456   8.400  -2.433  1.00  0.00     0.148 C
BRANCH  15  16
HETATM   16  C2  UNL     1      43.401   8.056  -1.419  1.00  0.00     0.186 C
BRANCH  16  17
HETATM   17  O1  UNL     1      42.423   7.201  -1.840  1.00  0.00    -0.394 OA
HETATM   18  C1  UNL     1      42.542   6.893  -3.185  1.00  0.00     0.201 C
ENDBRANCH  16  17
ENDBRANCH  15  16
ENDBRANCH  13  15
ENDBRANCH  11  13
ENDBRANCH   9  11
ENDBRANCH   1   9
BRANCH   5  19
HETATM   19  N3  UNL     1      45.900  14.840   3.047  1.00  0.00    -0.379 N
HETATM   20  C10 UNL     1      44.881  15.209   4.005  1.00  0.00     0.123 C
HETATM   21  C11 UNL     1      45.053  16.652   4.373  1.00  0.00     0.020 C
HETATM   22  C12 UNL     1      46.180  16.721   5.396  1.00  0.00     0.002 C
HETATM   23  C13 UNL     1      47.484  17.067   4.762  1.00  0.00     0.002 C
HETATM   24  C14 UNL     1      47.620  16.610   3.325  1.00  0.00     0.020 C
HETATM   25  C15 UNL     1      47.301  15.179   3.097  1.00  0.00     0.123 C
ENDBRANCH   5  19
TORSDOF 7
ENDMDL