MODEL 2
REMARK VINA RESULT: -6.903228398      2.420      5.950
REMARK  5 active torsions:
REMARK  status: ('A' for Active; 'I' for Inactive)
REMARK    1  A    between atoms: O1_2  and  C2_3
REMARK    2  A    between atoms: N2_7  and  C4_9
REMARK    3  A    between atoms: C11_16  and  C12_17
REMARK       I    between atoms: C12_17  and  N3_19
REMARK    4  A    between atoms: N3_19  and  C13_21
REMARK    5  A    between atoms: C13_21  and  C14_22
ROOT
HETATM    1  C2  UNL     1      44.645  11.415  -0.705  1.00  0.00     0.224 A
HETATM    2  N1  UNL     1      44.871  12.250   0.300  1.00  0.00    -0.307 N
ATOM      3  H1  UNL     1      45.226  11.874   1.179  1.00  0.00     0.171 HD
HETATM    4  C3  UNL     1      44.652  13.562   0.207  1.00  0.00     0.121 A
HETATM    5  N2  UNL     1      44.802  14.413   1.090  1.00  0.00    -0.370 N
ATOM      6  H2  UNL     1      44.550  15.315   0.685  1.00  0.00     0.161 HD
HETATM    7  C11 UNL     1      44.163  14.032  -1.028  1.00  0.00     0.091 A
HETATM    8  C17 UNL     1      43.947  13.136  -2.028  1.00  0.00     0.112 A
HETATM    9  N4  UNL     1      44.182  11.816  -1.890  1.00  0.00    -0.331 N
ATOM     10  H4  UNL     1      44.015  11.158  -2.651  1.00  0.00     0.168 HD
ENDROOT
BRANCH   5  11
HETATM   11  C4  UNL     1      45.168  14.642   2.393  1.00  0.00     0.086 C
HETATM   12  C5  UNL     1      45.128  16.176   2.666  1.00  0.00     0.025 C
HETATM   13  C6  UNL     1      44.833  16.296   4.123  1.00  0.00     0.002 C
HETATM   14  C7  UNL     1      45.918  15.673   4.948  1.00  0.00     0.001 C
HETATM   15  C8  UNL     1      46.471  14.414   4.436  1.00  0.00     0.006 C
HETATM   16  C9  UNL     1      46.488  14.227   2.930  1.00  0.00     0.004 C
HETATM   17  C10 UNL     1      46.858  12.778   2.709  1.00  0.00     0.012 C
ENDBRANCH   5  11
BRANCH   7  18
HETATM   18  C12 UNL     1      43.937  15.504  -1.186  1.00  0.00     0.256 C
HETATM   19  O2  UNL     1      43.150  16.083  -0.434  1.00  0.00    -0.267 OA
HETATM   20  N3  UNL     1      44.638  16.150  -2.189  1.00  0.00    -0.355 N
ATOM     21  H3  UNL     1      45.223  15.533  -2.752  1.00  0.00     0.162 HD
BRANCH  20  22
HETATM   22  C13 UNL     1      44.693  17.511  -2.576  1.00  0.00     0.147 C
BRANCH  22  23
HETATM   23  C14 UNL     1      45.228  17.854  -3.917  1.00  0.00     0.046 C
HETATM   24  C15 UNL     1      44.532  18.931  -4.656  1.00  0.00     0.034 C
HETATM   25  C16 UNL     1      45.313  16.580  -4.783  1.00  0.00     0.034 C
HETATM   26 CL1  UNL     1      46.950  18.364  -3.714  1.00  0.00    -0.118 Cl
ENDBRANCH  22  23
ENDBRANCH  20  22
ENDBRANCH   7  18
BRANCH   1  27
HETATM   27  O1  UNL     1      44.889  10.041  -0.565  1.00  0.00    -0.327 OA
HETATM   28  C1  UNL     1      45.993   9.643   0.221  1.00  0.00     0.213 C
ENDBRANCH   1  27
TORSDOF 5
ENDMDL