MODEL 4
REMARK VINA RESULT: -7.922627705      1.691      2.008
REMARK  5 active torsions:
REMARK  status: ('A' for Active; 'I' for Inactive)
REMARK    1  A    between atoms: C4_5  and  N2_6
REMARK    2  A    between atoms: N2_6  and  C5_8
REMARK    3  A    between atoms: C13_17  and  C14_18
REMARK       I    between atoms: C14_18  and  N3_20
REMARK    4  A    between atoms: N3_20  and  C15_22
REMARK    5  A    between atoms: C15_22  and  C16_23
ROOT
HETATM    1  N1  UNL     1      48.176   9.046   2.230  1.00  0.00    -0.191 NA
HETATM    2  C1  UNL     1      47.457   9.907   1.908  1.00  0.00     0.100 C
HETATM    3  C2  UNL     1      46.554  10.976   1.551  1.00  0.00     0.062 A
HETATM    4  C3  UNL     1      46.639  12.188   2.223  1.00  0.00     0.056 A
HETATM    5  C4  UNL     1      45.755  13.191   1.948  1.00  0.00     0.069 A
HETATM    6  C11 UNL     1      44.764  13.008   0.994  1.00  0.00     0.143 A
HETATM    7  F1  UNL     1      43.885  14.003   0.721  1.00  0.00    -0.204 F
HETATM    8  C12 UNL     1      44.698  11.806   0.343  1.00  0.00     0.063 A
HETATM    9  C13 UNL     1      45.603  10.754   0.609  1.00  0.00     0.055 A
ENDROOT
BRANCH   9  10
HETATM   10  C14 UNL     1      45.432   9.593  -0.225  1.00  0.00     0.253 C
HETATM   11  O1  UNL     1      44.429   8.842   0.036  1.00  0.00    -0.268 OA
HETATM   12  N3  UNL     1      46.248   9.212  -1.295  1.00  0.00    -0.356 N
ATOM     13  H3  UNL     1      47.043   9.801  -1.539  1.00  0.00     0.162 HD
BRANCH  12  14
HETATM   14  C15 UNL     1      46.005   8.004  -2.074  1.00  0.00     0.129 C
BRANCH  14  15
HETATM   15  C16 UNL     1      45.567   8.256  -3.476  1.00  0.00     0.027 C
HETATM   16  C17 UNL     1      44.050   8.429  -3.497  1.00  0.00     0.010 C
HETATM   17  C18 UNL     1      43.574   8.942  -4.830  1.00  0.00     0.027 C
HETATM   18  C19 UNL     1      44.774   9.409  -5.640  1.00  0.00     0.167 C
HETATM   19  O2  UNL     1      45.484  10.279  -4.803  1.00  0.00    -0.391 OA
HETATM   20  C20 UNL     1      46.265   9.506  -3.973  1.00  0.00     0.173 C
ENDBRANCH  14  15
ENDBRANCH  12  14
ENDBRANCH   9  10
BRANCH   5  21
HETATM   21  N2  UNL     1      45.804  14.424   2.611  1.00  0.00    -0.383 N
ATOM     22  H2  UNL     1      45.259  15.207   2.249  1.00  0.00     0.160 HD
BRANCH  21  23
HETATM   23  C5  UNL     1      46.603  14.613   3.789  1.00  0.00     0.082 C
HETATM   24  C6  UNL     1      47.835  15.387   3.473  1.00  0.00     0.025 C
HETATM   25  C7  UNL     1      47.815  16.691   4.228  1.00  0.00     0.002 C
HETATM   26  C8  UNL     1      46.508  17.432   4.025  1.00  0.00     0.000 C
HETATM   27  C9  UNL     1      45.338  16.628   4.557  1.00  0.00     0.002 C
HETATM   28  C10 UNL     1      45.761  15.215   4.898  1.00  0.00     0.025 C
ENDBRANCH  21  23
ENDBRANCH   5  21
TORSDOF 5
ENDMDL