MODEL 5
REMARK VINA RESULT: -7.703367019      3.353      4.902
REMARK  5 active torsions:
REMARK  status: ('A' for Active; 'I' for Inactive)
REMARK    1  A    between atoms: C2_2  and  C3_3
REMARK    2  A    between atoms: C8_11  and  C9_12
REMARK    3  A    between atoms: N2_14  and  C11_15
REMARK    4  A    between atoms: C11_15  and  C12_16
REMARK    5  A    between atoms: C12_16  and  C13_17
ROOT
HETATM    1  C3  UNL     1      48.007   7.729   1.881  1.00  0.00    -0.018 C
HETATM    2  C4  UNL     1      49.196   7.152   1.099  1.00  0.00     0.049 C
HETATM    3  C5  UNL     1      48.868   7.735  -0.285  1.00  0.00     0.217 C
HETATM    4  N1  UNL     1      49.334   9.112  -0.216  1.00  0.00    -0.062 N
ATOM      5  H11 UNL     1      49.548   9.519  -1.126  1.00  0.00     0.278 HD
ATOM      6  H12 UNL     1      50.268   9.210   0.182  1.00  0.00     0.278 HD
HETATM    7  C6  UNL     1      48.300   9.836   0.524  1.00  0.00     0.224 C
HETATM    8  C7  UNL     1      47.961   9.219   1.824  1.00  0.00     0.049 C
HETATM    9  C8  UNL     1      47.153   9.986  -0.442  1.00  0.00     0.267 C
HETATM   10  N4  UNL     1      46.648   8.692  -0.848  1.00  0.00    -0.057 N
ATOM     11  H41 UNL     1      46.562   8.649  -1.864  1.00  0.00     0.278 HD
ATOM     12  H42 UNL     1      45.668   8.597  -0.584  1.00  0.00     0.278 HD
HETATM   13  C20 UNL     1      47.397   7.586  -0.371  1.00  0.00     0.218 C
HETATM   14  C21 UNL     1      46.870   7.204   0.996  1.00  0.00     0.049 C
ENDROOT
BRANCH   9  15
HETATM   15  C9  UNL     1      46.121  10.934  -0.027  1.00  0.00     0.058 A
HETATM   16  C10 UNL     1      46.049  12.309  -0.163  1.00  0.00     0.119 A
HETATM   17  N2  UNL     1      44.880  12.755   0.381  1.00  0.00    -0.351 N
HETATM   18  C19 UNL     1      44.236  11.678   0.848  1.00  0.00     0.183 A
HETATM   19  N3  UNL     1      44.966  10.587   0.611  1.00  0.00    -0.353 N
ATOM     20  H3  UNL     1      44.700   9.636   0.867  1.00  0.00     0.166 HD
BRANCH  17  21
HETATM   21  C11 UNL     1      44.471  14.122   0.420  1.00  0.00     0.134 C
BRANCH  21  22
HETATM   22  C12 UNL     1      44.198  14.614   1.824  1.00  0.00     0.058 C
BRANCH  22  23
HETATM   23  C13 UNL     1      45.421  15.181   2.449  1.00  0.00    -0.056 A
HETATM   24  C14 UNL     1      45.604  16.549   2.441  1.00  0.00     0.010 A
HETATM   25  C15 UNL     1      46.740  17.072   3.023  1.00  0.00     0.043 A
HETATM   26  C16 UNL     1      47.698  16.249   3.613  1.00  0.00     0.116 A
HETATM   27  F1  UNL     1      48.810  16.733   4.184  1.00  0.00    -0.206 F
HETATM   28  C17 UNL     1      47.506  14.878   3.616  1.00  0.00     0.043 A
HETATM   29  C18 UNL     1      46.371  14.360   3.035  1.00  0.00     0.010 A
ENDBRANCH  22  23
ENDBRANCH  21  22
ENDBRANCH  17  21
ENDBRANCH   9  15
BRANCH   1  30
HETATM   30  C2  UNL     1      47.936   7.229   3.250  1.00  0.00    -0.027 C
HETATM   31  C1  UNL     1      49.041   7.071   3.978  1.00  0.00     0.007 C
ENDBRANCH   1  30
TORSDOF 5
ENDMDL