MODEL 2
REMARK VINA RESULT: -7.073598120      2.618      5.861
REMARK  6 active torsions:
REMARK  status: ('A' for Active; 'I' for Inactive)
REMARK    1  A    between atoms: O1_2  and  C2_3
REMARK    2  A    between atoms: C6_10  and  C7_11
REMARK    3  A    between atoms: C7_11  and  C8_12
REMARK    4  A    between atoms: C14_22  and  N4_23
REMARK    5  A    between atoms: N4_23  and  C15_25
REMARK    6  A    between atoms: C15_25  and  C16_26
ROOT
HETATM    1  C2  UNL     1      44.087  14.996   0.066  1.00  0.00     0.225 A
HETATM    2  N1  UNL     1      44.114  13.832  -0.597  1.00  0.00    -0.321 N
ATOM      3  H1  UNL     1      43.630  13.775  -1.492  1.00  0.00     0.169 HD
HETATM    4  C3  UNL     1      44.743  12.740  -0.146  1.00  0.00     0.051 A
HETATM    5  C4  UNL     1      44.762  11.551  -0.836  1.00  0.00     0.055 A
HETATM    6  C5  UNL     1      45.413  10.439  -0.357  1.00  0.00     0.043 A
HETATM    7 CL1  UNL     1      45.388   8.941  -1.268  1.00  0.00    -0.084 Cl
HETATM    8  C6  UNL     1      46.071  10.528   0.864  1.00  0.00    -0.024 A
HETATM    9  C11 UNL     1      46.089  11.715   1.620  1.00  0.00    -0.037 A
HETATM   10  C12 UNL     1      46.786  11.801   2.898  1.00  0.00     0.050 C
HETATM   11  C13 UNL     1      45.404  12.799   1.064  1.00  0.00     0.041 A
HETATM   12  C14 UNL     1      45.366  14.005   1.736  1.00  0.00     0.117 A
HETATM   13  N5  UNL     1      44.711  15.099   1.241  1.00  0.00    -0.308 N
ATOM     14  H5  UNL     1      44.701  15.978   1.759  1.00  0.00     0.171 HD
ENDROOT
BRANCH   8  15
HETATM   15  C7  UNL     1      46.788   9.328   1.365  1.00  0.00     0.099 C
BRANCH  15  16
HETATM   16  C8  UNL     1      48.204   9.260   0.952  1.00  0.00     0.029 A
HETATM   17  C9  UNL     1      48.868   9.953  -0.042  1.00  0.00     0.114 A
HETATM   18  N2  UNL     1      50.141   9.565  -0.038  1.00  0.00    -0.360 N
HETATM   19  C10 UNL     1      50.342   8.643   0.922  1.00  0.00     0.180 A
ATOM     20  H2  UNL     1      50.860   9.916  -0.671  1.00  0.00     0.166 HD
HETATM   21  N3  UNL     1      49.144   8.480   1.507  1.00  0.00    -0.354 N
ATOM     22  H3  UNL     1      48.969   7.838   2.281  1.00  0.00     0.166 HD
ENDBRANCH  15  16
ENDBRANCH   8  15
BRANCH  12  23
HETATM   23  N4  UNL     1      45.954  14.107   2.852  1.00  0.00    -0.375 N
ATOM     24  H4  UNL     1      46.672  13.429   3.111  1.00  0.00     0.161 HD
BRANCH  23  25
HETATM   25  C15 UNL     1      45.618  15.172   3.758  1.00  0.00     0.126 C
BRANCH  25  26
HETATM   26  C16 UNL     1      46.843  15.735   4.456  1.00  0.00     0.003 A
HETATM   27  C17 UNL     1      47.145  17.192   4.054  1.00  0.00     0.007 A
HETATM   28  C18 UNL     1      47.982  16.065   3.542  1.00  0.00     0.007 A
ENDBRANCH  25  26
ENDBRANCH  23  25
ENDBRANCH  12  23
BRANCH   1  29
HETATM   29  O1  UNL     1      43.396  16.096  -0.488  1.00  0.00    -0.327 OA
HETATM   30  C1  UNL     1      43.100  16.102  -1.871  1.00  0.00     0.213 C
ENDBRANCH   1  29
TORSDOF 6
ENDMDL