MODEL 1
REMARK VINA RESULT: -6.847702760      0.000      0.000
REMARK  3 active torsions:
REMARK  status: ('A' for Active; 'I' for Inactive)
REMARK    1  A    between atoms: C6_8  and  N3_9
REMARK    2  A    between atoms: C7_12  and  O3_13
REMARK    3  A    between atoms: C8_15  and  O4_16
ROOT
HETATM    1  N1  UNL     1      -3.646   6.348  15.037  1.00  0.00    -0.195 NA
HETATM    2  C1  UNL     1      -4.206   5.362  14.803  1.00  0.00     0.087 C
HETATM    3  C2  UNL     1      -4.930   4.099  14.526  1.00  0.00     0.165 C
HETATM    4  C3  UNL     1      -5.153   4.034  13.068  1.00  0.00     0.087 C
HETATM    5  N2  UNL     1      -5.321   3.984  11.922  1.00  0.00    -0.195 NA
HETATM    6  C4  UNL     1      -6.234   4.163  15.218  1.00  0.00     0.045 C
HETATM    7  C5  UNL     1      -6.886   2.885  15.552  1.00  0.00     0.037 C
HETATM    8  C6  UNL     1      -5.994   1.683  15.548  1.00  0.00     0.187 C
HETATM    9  C7  UNL     1      -4.619   2.132  16.013  1.00  0.00     0.178 C
HETATM   10  C8  UNL     1      -4.039   2.978  14.912  1.00  0.00     0.186 C
ENDROOT
BRANCH  10  11
HETATM   11  O4  UNL     1      -3.772   2.133  13.825  1.00  0.00    -0.390 OA
ATOM     12  H4  UNL     1      -3.844   1.217  14.067  1.00  0.00     0.210 HD
ENDBRANCH  10  11
BRANCH   9  13
HETATM   13  O3  UNL     1      -3.793   1.084  16.342  1.00  0.00    -0.391 OA
ATOM     14  H3  UNL     1      -3.785   0.895  17.274  1.00  0.00     0.210 HD
ENDBRANCH   9  13
BRANCH   8  15
HETATM   15  N3  UNL     1      -6.494   0.712  16.502  1.00  0.00    -0.148 N
HETATM   16  O1  UNL     1      -6.023  -0.447  16.571  1.00  0.00    -0.536 OA
HETATM   17  O2  UNL     1      -7.517   1.039  17.375  1.00  0.00    -0.536 OA
ENDBRANCH   8  15
TORSDOF 3
ENDMDL