MODEL 1
REMARK VINA RESULT: -6.534316342      0.000      0.000
REMARK  3 active torsions:
REMARK  status: ('A' for Active; 'I' for Inactive)
REMARK    1  A    between atoms: O1_2  and  N1_3
REMARK    2  A    between atoms: N1_3  and  C2_4
REMARK    3  A    between atoms: C8_12  and  O4_13
ROOT
HETATM    1  C2  UNL     1      -4.885   0.250  13.856  1.00  0.00     0.387 C
HETATM    2  O2  UNL     1      -3.912   1.203  13.686  1.00  0.00    -0.343 OA
HETATM    3  C3  UNL     1      -4.338   2.388  13.158  1.00  0.00     0.205 C
HETATM    4  C4  UNL     1      -4.838   2.308  11.754  1.00  0.00     0.155 C
HETATM    5  O3  UNL     1      -5.826   1.348  11.579  1.00  0.00    -0.375 OA
HETATM    6  C5  UNL     1      -4.922   0.567  10.923  1.00  0.00     0.160 C
HETATM    7  C6  UNL     1      -4.312  -0.527  11.741  1.00  0.00     0.158 C
HETATM    8  C7  UNL     1      -2.836  -0.263  11.761  1.00  0.00     0.067 C
HETATM    9  C8  UNL     1      -2.614   1.144  11.289  1.00  0.00     0.130 C
HETATM   10  C9  UNL     1      -3.914   1.668  10.787  1.00  0.00     0.077 C
HETATM   11  O5  UNL     1      -4.885  -0.757  12.945  1.00  0.00    -0.338 OA
ENDROOT
BRANCH   1  12
HETATM   12  N1  UNL     1      -4.647  -0.358  15.178  1.00  0.00    -0.041 NA
BRANCH  12  13
HETATM   13  O1  UNL     1      -5.770  -0.382  15.918  1.00  0.00    -0.287 OA
HETATM   14  C1  UNL     1      -6.303   0.899  16.076  1.00  0.00     0.231 C
ENDBRANCH  12  13
ENDBRANCH   1  12
BRANCH   9  15
HETATM   15  O4  UNL     1      -1.700   1.203  10.209  1.00  0.00    -0.395 OA
ATOM     16  H4  UNL     1      -0.798   1.170  10.505  1.00  0.00     0.210 HD
ENDBRANCH   9  15
TORSDOF 3
ENDMDL