MODEL 2
REMARK VINA RESULT: -6.787304155      2.013      5.500
REMARK  3 active torsions:
REMARK  status: ('A' for Active; 'I' for Inactive)
REMARK    1  A    between atoms: C1_4  and  O1_5
REMARK    2  A    between atoms: C1_4  and  C2_7
REMARK    3  A    between atoms: C5_12  and  N3_13
ROOT
HETATM    1  C2  UNL     1      -5.590   1.185  16.089  1.00  0.00     0.213 C
HETATM    2  C3  UNL     1      -5.961   2.567  15.597  1.00  0.00     0.164 C
HETATM    3  N2  UNL     1      -5.064   2.703  14.444  1.00  0.00    -0.163 NA
HETATM    4  O2  UNL     1      -5.666   3.262  13.403  1.00  0.00    -0.299 OA
HETATM    5  C4  UNL     1      -5.334   2.596  12.255  1.00  0.00     0.225 C
HETATM    6  C5  UNL     1      -4.928   1.197  12.660  1.00  0.00     0.178 C
HETATM    7  C9  UNL     1      -4.702   1.358  14.133  1.00  0.00     0.249 C
HETATM    8  O3  UNL     1      -5.542   0.497  14.874  1.00  0.00    -0.352 OA
ENDROOT
BRANCH   1   9
HETATM    9  C1  UNL     1      -6.545   0.596  17.030  1.00  0.00     0.140 C
HETATM   10  N1  UNL     1      -7.663   1.172  17.261  1.00  0.00    -0.381 N
ATOM     11  H12 UNL     1      -8.328   0.762  17.916  1.00  0.00     0.158 HD
ATOM     12  H11 UNL     1      -7.850   2.044  16.766  1.00  0.00     0.158 HD
BRANCH   9  13
HETATM   13  O1  UNL     1      -6.291  -0.583  17.700  1.00  0.00    -0.348 OA
ATOM     14  H1  UNL     1      -5.968  -1.315  17.186  1.00  0.00     0.219 HD
ENDBRANCH   9  13
ENDBRANCH   1   9
BRANCH   6  15
HETATM   15  N3  UNL     1      -3.758   0.737  11.948  1.00  0.00    -0.293 N
HETATM   16  C6  UNL     1      -3.545  -0.408  11.282  1.00  0.00     0.112 A
HETATM   17  C7  UNL     1      -2.281  -0.417  10.761  1.00  0.00     0.037 A
HETATM   18  C8  UNL     1      -1.715   0.789  11.139  1.00  0.00     0.108 A
HETATM   19  N4  UNL     1      -2.643   1.437  11.846  1.00  0.00    -0.310 N
ATOM     20  H4  UNL     1      -2.508   2.360  12.258  1.00  0.00     0.186 HD
ENDBRANCH   6  15
TORSDOF 3
ENDMDL