MODEL 2
REMARK VINA RESULT: -7.260752727      2.161      2.467
REMARK  4 active torsions:
REMARK  status: ('A' for Active; 'I' for Inactive)
REMARK    1  A    between atoms: C2_2  and  C3_3
REMARK    2  A    between atoms: C3_3  and  O1_4
REMARK    3  A    between atoms: C4_7  and  C5_8
REMARK    4  A    between atoms: C10_16  and  O5_17
ROOT
HETATM    1  C5  UNL     1      -6.385   4.095  13.597  1.00  0.00     0.108 C
HETATM    2  C6  UNL     1      -6.652   5.455  14.144  1.00  0.00     0.182 C
HETATM    3  O3  UNL     1      -6.181   5.974  12.916  1.00  0.00    -0.370 OA
HETATM    4  C7  UNL     1      -5.289   4.911  12.899  1.00  0.00     0.238 C
HETATM    5  C8  UNL     1      -4.947   4.364  11.616  1.00  0.00     0.091 C
HETATM    6  N1  UNL     1      -4.672   3.920  10.592  1.00  0.00    -0.195 NA
ENDROOT
BRANCH   1   7
HETATM    7  C4  UNL     1      -5.777   3.088  14.497  1.00  0.00     0.273 C
HETATM    8  O2  UNL     1      -6.642   2.513  15.400  1.00  0.00    -0.322 OA
HETATM    9  C3  UNL     1      -6.028   1.378  15.915  1.00  0.00     0.192 C
HETATM   10  C10 UNL     1      -4.638   1.625  16.399  1.00  0.00     0.204 C
HETATM   11  C9  UNL     1      -3.916   2.719  15.682  1.00  0.00     0.208 C
HETATM   12  O4  UNL     1      -4.765   3.720  15.252  1.00  0.00    -0.358 OA
BRANCH   9  13
HETATM   13  C2  UNL     1      -6.841   0.847  17.106  1.00  0.00     0.067 C
HETATM   14  C1  UNL     1      -6.669   1.746  18.307  1.00  0.00     0.010 C
ENDBRANCH   9  13
BRANCH   9  15
HETATM   15  O1  UNL     1      -5.974   0.431  14.901  1.00  0.00    -0.363 OA
ATOM     16  H1  UNL     1      -5.746   0.839  14.074  1.00  0.00     0.213 HD
ENDBRANCH   9  15
BRANCH  10  17
HETATM   17  O5  UNL     1      -3.886   0.452  16.244  1.00  0.00    -0.388 OA
ATOM     18  H5  UNL     1      -2.981   0.635  16.464  1.00  0.00     0.210 HD
ENDBRANCH  10  17
ENDBRANCH   1   7
TORSDOF 4
ENDMDL