MODEL 5
REMARK VINA RESULT: -6.772947517      1.046      1.046
REMARK  4 active torsions:
REMARK  status: ('A' for Active; 'I' for Inactive)
REMARK    1  A    between atoms: C4_5  and  O2_6
REMARK    2  A    between atoms: O2_6  and  C5_7
REMARK    3  A    between atoms: C7_10  and  O4_11
REMARK    4  A    between atoms: C9_14  and  O5_15
ROOT
HETATM    1  C5  UNL     1      -5.930   1.218  15.011  1.00  0.00     0.293 C
HETATM    2  O3  UNL     1      -6.788   0.363  15.673  1.00  0.00    -0.356 OA
HETATM    3  C6  UNL     1      -7.232   0.830  16.888  1.00  0.00     0.202 C
HETATM    4  C7  UNL     1      -6.149   1.337  17.789  1.00  0.00     0.144 C
HETATM    5  C8  UNL     1      -5.179   2.262  17.079  1.00  0.00     0.070 C
HETATM    6  C9  UNL     1      -4.685   1.525  15.856  1.00  0.00     0.176 C
ENDROOT
BRANCH   1   7
HETATM    7  O2  UNL     1      -5.451   0.540  13.883  1.00  0.00    -0.306 OA
BRANCH   7   8
HETATM    8  C4  UNL     1      -4.798   1.427  13.064  1.00  0.00     0.415 C
HETATM    9  O1  UNL     1      -5.471   1.483  11.850  1.00  0.00    -0.336 OA
HETATM   10  C3  UNL     1      -4.505   1.717  10.865  1.00  0.00     0.205 C
HETATM   11  C2  UNL     1      -3.212   1.850  11.665  1.00  0.00     0.146 C
HETATM   12  C1  UNL     1      -2.024   1.407  10.868  1.00  0.00     0.042 C
HETATM   13  O6  UNL     1      -3.489   1.014  12.749  1.00  0.00    -0.332 OA
ENDBRANCH   7   8
ENDBRANCH   1   7
BRANCH   6  14
HETATM   14  O5  UNL     1      -4.119   0.328  16.287  1.00  0.00    -0.391 OA
ATOM     15  H5  UNL     1      -4.243  -0.336  15.619  1.00  0.00     0.210 HD
ENDBRANCH   6  14
BRANCH   4  16
HETATM   16  O4  UNL     1      -6.711   2.061  18.834  1.00  0.00    -0.393 OA
ATOM     17  H4  UNL     1      -6.152   2.799  19.048  1.00  0.00     0.210 HD
ENDBRANCH   4  16
TORSDOF 4
ENDMDL