MODEL 3
REMARK VINA RESULT: -5.868432579      1.650      3.272
REMARK  4 active torsions:
REMARK  status: ('A' for Active; 'I' for Inactive)
REMARK    1  A    between atoms: O1_2  and  C2_3
REMARK    2  A    between atoms: C7_11  and  C8_12
REMARK    3  A    between atoms: C8_12  and  O5_13
REMARK    4  A    between atoms: C9_15  and  O6_16
ROOT
HETATM    1  C2  UNL     1      -6.283   2.038  16.970  1.00  0.00     0.291 C
HETATM    2  O2  UNL     1      -5.314   2.783  16.312  1.00  0.00    -0.322 OA
HETATM    3  C3  UNL     1      -5.364   2.486  14.978  1.00  0.00     0.179 C
HETATM    4  C4  UNL     1      -6.432   3.344  14.329  1.00  0.00     0.095 C
HETATM    5  C5  UNL     1      -5.896   4.756  14.315  1.00  0.00     0.176 C
HETATM    6  O3  UNL     1      -4.788   4.788  13.507  1.00  0.00    -0.367 OA
HETATM    7  C6  UNL     1      -4.211   3.560  13.284  1.00  0.00     0.341 C
HETATM    8  O4  UNL     1      -4.129   2.770  14.421  1.00  0.00    -0.330 OA
HETATM    9  C7  UNL     1      -5.736   1.036  14.896  1.00  0.00     0.105 C
HETATM   10  C9  UNL     1      -6.617   0.856  16.090  1.00  0.00     0.184 C
ENDROOT
BRANCH   9  11
HETATM   11  C8  UNL     1      -4.518   0.131  14.944  1.00  0.00     0.176 C
BRANCH  11  12
HETATM   12  O5  UNL     1      -3.801   0.404  16.083  1.00  0.00    -0.400 OA
ATOM     13  H5  UNL     1      -2.894   0.558  15.848  1.00  0.00     0.209 HD
ENDBRANCH  11  12
ENDBRANCH   9  11
BRANCH   1  14
HETATM   14  O1  UNL     1      -5.787   1.681  18.194  1.00  0.00    -0.363 OA
HETATM   15  C1  UNL     1      -6.603   2.220  19.184  1.00  0.00     0.204 C
ENDBRANCH   1  14
BRANCH  10  16
HETATM   16  O6  UNL     1      -6.455  -0.359  16.727  1.00  0.00    -0.390 OA
ATOM     17  H6  UNL     1      -6.467  -1.098  16.130  1.00  0.00     0.210 HD
ENDBRANCH  10  16
TORSDOF 4
ENDMDL