MODEL 4
REMARK VINA RESULT: -6.273579483      3.202      4.551
REMARK  4 active torsions:
REMARK  status: ('A' for Active; 'I' for Inactive)
REMARK    1  A    between atoms: C2_2  and  N1_3
REMARK    2  A    between atoms: N1_3  and  C3_5
REMARK    3  A    between atoms: C3_5  and  N2_6
REMARK    4  A    between atoms: C5_9  and  O2_10
ROOT
HETATM    1  N2  UNL     1      -2.718   0.775  11.525  1.00  0.00     0.165 N
HETATM    2  C4  UNL     1      -3.533  -0.071  10.687  1.00  0.00     0.451 C
HETATM    3  O1  UNL     1      -4.683   0.616  10.369  1.00  0.00    -0.299 OA
HETATM    4  C5  UNL     1      -4.874   1.622  11.294  1.00  0.00     0.342 C
HETATM    5  O3  UNL     1      -5.709   1.276  12.338  1.00  0.00    -0.293 OA
HETATM    6  C6  UNL     1      -5.186   1.844  13.492  1.00  0.00     0.166 C
HETATM    7  C7  UNL     1      -5.740   3.260  13.610  1.00  0.00     0.078 C
HETATM    8  C8  UNL     1      -5.603   1.110  14.743  1.00  0.00     0.078 C
HETATM    9  O4  UNL     1      -3.802   1.846  13.331  1.00  0.00    -0.315 OA
HETATM   10  C9  UNL     1      -3.555   1.855  11.966  1.00  0.00     0.460 C
ENDROOT
BRANCH   1  11
HETATM   11  C3  UNL     1      -1.560   1.281  10.824  1.00  0.00     0.397 C
BRANCH  11  12
HETATM   12  N1  UNL     1      -0.896   2.356  11.484  1.00  0.00    -0.398 N
ATOM     13  H1  UNL     1      -0.862   2.427  12.501  1.00  0.00     0.154 HD
BRANCH  12  14
HETATM   14  C2  UNL     1      -0.281   3.327  10.638  1.00  0.00     0.111 C
HETATM   15  C1  UNL     1      -0.365   3.024   9.169  1.00  0.00     0.026 C
ENDBRANCH  12  14
ENDBRANCH  11  12
ENDBRANCH   1  11
BRANCH   4  16
HETATM   16  O2  UNL     1      -5.246   2.782  10.638  1.00  0.00    -0.340 OA
ATOM     17  H2  UNL     1      -5.913   2.578   9.992  1.00  0.00     0.215 HD
ENDBRANCH   4  16
TORSDOF 4
ENDMDL