MODEL 2
REMARK VINA RESULT: -6.195650909      3.020      5.380
REMARK  4 active torsions:
REMARK  status: ('A' for Active; 'I' for Inactive)
REMARK    1  A    between atoms: O1_1  and  C1_3
REMARK    2  A    between atoms: C1_3  and  C2_4
REMARK    3  A    between atoms: C5_9  and  N1_10
REMARK    4  A    between atoms: C9_16  and  O4_17
ROOT
HETATM    1  C2  UNL     1      -3.912   0.876  12.101  1.00  0.00     0.177 C
HETATM    2  O2  UNL     1      -3.685   1.613  13.262  1.00  0.00    -0.369 OA
HETATM    3  C3  UNL     1      -4.788   1.375  14.036  1.00  0.00     0.203 C
HETATM    4  C4  UNL     1      -5.246  -0.035  13.796  1.00  0.00     0.189 C
HETATM    5  O3  UNL     1      -4.861  -0.412  15.060  1.00  0.00    -0.353 OA
HETATM    6  C5  UNL     1      -4.548   0.891  15.438  1.00  0.00     0.260 C
HETATM    7  C9  UNL     1      -4.287  -0.476  12.683  1.00  0.00     0.180 C
ENDROOT
BRANCH   6   8
HETATM    8  N1  UNL     1      -5.520   1.470  16.343  1.00  0.00    -0.322 N
HETATM    9  C6  UNL     1      -5.794   1.042  17.585  1.00  0.00     0.111 A
HETATM   10  C7  UNL     1      -6.772   1.829  18.157  1.00  0.00     0.106 A
HETATM   11  N2  UNL     1      -7.084   2.749  17.227  1.00  0.00    -0.361 N
HETATM   12  C8  UNL     1      -6.327   2.528  16.138  1.00  0.00     0.184 A
ATOM     13  H2  UNL     1      -7.779   3.489  17.330  1.00  0.00     0.166 HD
ENDBRANCH   6   8
BRANCH   1  14
HETATM   14  C1  UNL     1      -2.676   0.788  11.232  1.00  0.00     0.198 C
BRANCH  14  15
HETATM   15  O1  UNL     1      -2.985  -0.022  10.145  1.00  0.00    -0.398 OA
ATOM     16  H1  UNL     1      -2.440   0.255   9.417  1.00  0.00     0.209 HD
ENDBRANCH  14  15
ENDBRANCH   1  14
BRANCH   7  17
HETATM   17  O4  UNL     1      -4.932  -1.277  11.770  1.00  0.00    -0.390 OA
ATOM     18  H4  UNL     1      -4.729  -2.197  11.889  1.00  0.00     0.210 HD
ENDBRANCH   7  17
TORSDOF 4
ENDMDL