MODEL 5
REMARK VINA RESULT: -7.136084311      1.618      3.895
REMARK  2 active torsions:
REMARK  status: ('A' for Active; 'I' for Inactive)
REMARK    1  A    between atoms: C6_10  and  O1_11
REMARK    2  A    between atoms: O1_11  and  C7_12
ROOT
HETATM    1  C1  UNL     1      -6.035   2.006  16.479  1.00  0.00     0.030 C
HETATM    2  C2  UNL     1      -5.782   1.961  15.180  1.00  0.00     0.027 A
HETATM    3  C3  UNL     1      -5.195   0.783  14.553  1.00  0.00     0.064 A
HETATM    4  N1  UNL     1      -4.919  -0.240  15.298  1.00  0.00    -0.397 N
ATOM      5  H11 UNL     1      -4.508  -1.064  14.859  1.00  0.00     0.156 HD
ATOM      6  H12 UNL     1      -5.095  -0.255  16.302  1.00  0.00     0.156 HD
HETATM    7  C4  UNL     1      -4.943   0.804  13.117  1.00  0.00     0.122 A
HETATM    8  C5  UNL     1      -4.358  -0.379  12.508  1.00  0.00     0.106 C
HETATM    9  N2  UNL     1      -3.908  -1.331  12.029  1.00  0.00    -0.191 NA
HETATM   10  C6  UNL     1      -5.216   1.837  12.338  1.00  0.00     0.168 A
HETATM   11  N4  UNL     1      -5.790   2.998  12.928  1.00  0.00    -0.321 N
ATOM     12  H4  UNL     1      -6.002   3.794  12.327  1.00  0.00     0.169 HD
HETATM   13  C9  UNL     1      -6.080   3.101  14.304  1.00  0.00     0.128 A
HETATM   14  N5  UNL     1      -6.597   4.135  14.867  1.00  0.00    -0.279 N
ATOM     15  H5  UNL     1      -6.784   4.146  15.870  1.00  0.00     0.179 HD
HETATM   16  C10 UNL     1      -6.897   5.241  14.072  1.00  0.00     0.183 C
HETATM   17  N6  UNL     1      -7.158   6.176  13.414  1.00  0.00    -0.172 NA
ENDROOT
BRANCH  10  18
HETATM   18  O1  UNL     1      -4.949   1.782  10.984  1.00  0.00    -0.320 OA
BRANCH  18  19
HETATM   19  C7  UNL     1      -4.067   2.736  10.420  1.00  0.00     0.300 C
HETATM   20  C8  UNL     1      -2.751   2.489  11.053  1.00  0.00     0.085 C
HETATM   21  N3  UNL     1      -1.725   2.278  11.540  1.00  0.00    -0.195 NA
ENDBRANCH  18  19
ENDBRANCH  10  18
TORSDOF 2
ENDMDL