MODEL 4
REMARK VINA RESULT: -6.371257217      1.414      1.443
REMARK  6 active torsions:
REMARK  status: ('A' for Active; 'I' for Inactive)
REMARK    1  A    between atoms: O1_1  and  N1_3
REMARK    2  A    between atoms: C2_5  and  O2_6
REMARK    3  A    between atoms: O2_6  and  C3_7
REMARK    4  A    between atoms: C4_8  and  O3_9
REMARK    5  A    between atoms: C5_11  and  O4_12
REMARK    6  A    between atoms: N2_16  and  O5_17
ROOT
HETATM    1  C3  UNL     1      -4.988   2.042  15.018  1.00  0.00     0.278 C
HETATM    2  C4  UNL     1      -4.616   1.533  16.388  1.00  0.00     0.197 C
HETATM    3  C5  UNL     1      -5.841   1.015  17.073  1.00  0.00     0.152 C
HETATM    4  C6  UNL     1      -6.782   2.216  17.239  1.00  0.00     0.056 C
HETATM    5  C7  UNL     1      -7.174   2.628  15.847  1.00  0.00     0.155 C
HETATM    6  N2  UNL     1      -6.072   2.958  15.007  1.00  0.00    -0.264 N
ENDROOT
BRANCH   1   7
HETATM    7  O2  UNL     1      -5.167   0.932  14.196  1.00  0.00    -0.328 OA
BRANCH   7   8
HETATM    8  C2  UNL     1      -4.842   1.163  12.886  1.00  0.00     0.316 A
HETATM    9  C1  UNL     1      -4.474  -0.084  12.085  1.00  0.00     0.247 A
HETATM   10  N1  UNL     1      -3.198   0.536  11.818  1.00  0.00    -0.158 N
HETATM   11  O6  UNL     1      -3.520   1.597  12.629  1.00  0.00    -0.223 OA
BRANCH  10  12
HETATM   12  O1  UNL     1      -2.233   0.181  11.113  1.00  0.00    -0.267 OA
ATOM     13  H1  UNL     1      -1.794  -0.656  11.016  1.00  0.00     0.247 HD
ENDBRANCH  10  12
ENDBRANCH   7   8
ENDBRANCH   1   7
BRANCH   2  14
HETATM   14  O3  UNL     1      -3.716   0.481  16.205  1.00  0.00    -0.389 OA
ATOM     15  H3  UNL     1      -4.171  -0.193  15.712  1.00  0.00     0.210 HD
ENDBRANCH   2  14
BRANCH   6  16
HETATM   16  O5  UNL     1      -5.732   4.244  15.066  1.00  0.00    -0.290 OA
ATOM     17  H5  UNL     1      -5.793   4.643  15.925  1.00  0.00     0.244 HD
ENDBRANCH   6  16
BRANCH   3  18
HETATM   18  O4  UNL     1      -5.575   0.403  18.277  1.00  0.00    -0.393 OA
ATOM     19  H4  UNL     1      -6.207  -0.269  18.505  1.00  0.00     0.210 HD
ENDBRANCH   3  18
TORSDOF 6
ENDMDL