MODEL 2
REMARK VINA RESULT: -5.493920831      0.835      1.188
REMARK  4 active torsions:
REMARK  status: ('A' for Active; 'I' for Inactive)
REMARK    1  A    between atoms: C2_2  and  N1_4
REMARK    2  A    between atoms: C2_2  and  C4_8
REMARK    3  A    between atoms: C9_13  and  C10_14
REMARK    4  A    between atoms: C10_14  and  N2_15
ROOT
HETATM    1  C4  UNL     1      62.506  84.687  14.799  1.00  0.00     0.026 C
HETATM    2  C5  UNL     1      61.749  85.967  15.094  1.00  0.00     0.007 C
HETATM    3  C6  UNL     1      62.430  86.879  16.064  1.00  0.00     0.000 C
HETATM    4  C7  UNL     1      62.549  86.087  17.375  1.00  0.00     0.000 C
HETATM    5  C8  UNL     1      63.397  84.913  17.055  1.00  0.00     0.007 C
HETATM    6  C9  UNL     1      62.765  83.963  16.041  1.00  0.00     0.017 C
ENDROOT
BRANCH   1   7
HETATM    7  C2  UNL     1      61.664  84.034  13.758  1.00  0.00     0.120 C
HETATM    8  C1  UNL     1      60.788  85.036  13.021  1.00  0.00     0.046 C
HETATM    9  C3  UNL     1      60.804  82.917  14.167  1.00  0.00     0.046 C
BRANCH   7  10
HETATM   10  N1  UNL     1      62.596  83.514  12.738  1.00  0.00    -0.071 N
ATOM     11  H13 UNL     1      62.146  83.267  11.856  1.00  0.00     0.275 HD
ATOM     12  H12 UNL     1      63.224  84.220  12.355  1.00  0.00     0.275 HD
ATOM     13  H11 UNL     1      63.077  82.735  13.189  1.00  0.00     0.275 HD
ENDBRANCH   7  10
ENDBRANCH   1   7
BRANCH   6  14
HETATM   14  C10 UNL     1      63.745  82.823  15.975  1.00  0.00     0.234 C
BRANCH  14  15
HETATM   15  N2  UNL     1      65.081  83.447  16.020  1.00  0.00    -0.079 N
ATOM     16  H23 UNL     1      65.271  84.066  15.232  1.00  0.00     0.274 HD
ATOM     17  H22 UNL     1      65.180  84.151  16.753  1.00  0.00     0.274 HD
ATOM     18  H21 UNL     1      65.741  82.674  16.102  1.00  0.00     0.274 HD
ENDBRANCH  14  15
ENDBRANCH   6  14
TORSDOF 4
ENDMDL