MODEL 1
REMARK VINA RESULT: -6.196439137      0.000      0.000
REMARK  3 active torsions:
REMARK  status: ('A' for Active; 'I' for Inactive)
REMARK    1  A    between atoms: C2_2  and  N1_3
REMARK    2  A    between atoms: N1_3  and  C3_5
REMARK    3  A    between atoms: C6_8  and  O1_9
ROOT
HETATM    1  C3  UNL     1      62.525  85.014  14.593  1.00  0.00     0.111 C
HETATM    2  C4  UNL     1      61.007  84.980  14.348  1.00  0.00     0.030 C
HETATM    3  C5  UNL     1      60.854  85.195  12.862  1.00  0.00     0.034 C
HETATM    4  C6  UNL     1      61.220  83.836  12.255  1.00  0.00     0.121 C
HETATM    5  C7  UNL     1      62.626  83.497  12.579  1.00  0.00     0.071 C
HETATM    6  C8  UNL     1      63.330  84.348  13.576  1.00  0.00     0.194 C
HETATM    7  F1  UNL     1      64.091  85.269  12.823  1.00  0.00    -0.247 F
ENDROOT
BRANCH   1   8
HETATM    8  N1  UNL     1      62.787  84.720  15.980  1.00  0.00    -0.406 N
ATOM      9  H1  UNL     1      62.521  85.360  16.728  1.00  0.00     0.154 HD
BRANCH   8  10
HETATM   10  C2  UNL     1      63.446  83.467  16.247  1.00  0.00     0.022 A
HETATM   11  C1  UNL     1      64.966  83.413  16.110  1.00  0.00     0.038 C
HETATM   12  C9  UNL     1      62.753  82.155  16.112  1.00  0.00     0.032 A
HETATM   13  C10 UNL     1      62.902  82.755  17.474  1.00  0.00     0.032 A
ENDBRANCH   8  10
ENDBRANCH   1   8
BRANCH   4  14
HETATM   14  O1  UNL     1      60.339  82.917  12.858  1.00  0.00    -0.395 OA
ATOM     15  H1  UNL     1      60.873  82.156  13.055  1.00  0.00     0.210 HD
ENDBRANCH   4  14
TORSDOF 3
ENDMDL