MODEL 4
REMARK VINA RESULT: -4.100365711      2.025      4.757
REMARK  2 active torsions:
REMARK  status: ('A' for Active; 'I' for Inactive)
REMARK    1  A    between atoms: C5_6  and  N1_7
REMARK    2  A    between atoms: N1_7  and  C6_9
ROOT
HETATM    1  N1  UNL     1      62.533  85.440  14.893  1.00  0.00    -0.395 N
ATOM      2  H1  UNL     1      62.360  86.425  15.092  1.00  0.00     0.155 HD
ENDROOT
BRANCH   1   3
HETATM    3  C5  UNL     1      62.041  85.034  13.714  1.00  0.00     0.112 C
HETATM    4  C1  UNL     1      62.425  83.771  13.020  1.00  0.00     0.192 C
HETATM    5  F1  UNL     1      63.630  83.877  12.356  1.00  0.00    -0.247 F
HETATM    6  C2  UNL     1      61.358  83.567  11.931  1.00  0.00     0.039 C
HETATM    7  C3  UNL     1      60.216  84.472  12.248  1.00  0.00     0.005 C
HETATM    8  C4  UNL     1      60.515  84.991  13.648  1.00  0.00     0.028 C
ENDBRANCH   1   3
BRANCH   1   9
HETATM    9  C6  UNL     1      63.225  84.791  15.885  1.00  0.00     0.176 C
HETATM   10  C7  UNL     1      64.596  84.394  15.459  1.00  0.00     0.046 C
HETATM   11  C8  UNL     1      65.022  83.015  15.984  1.00  0.00     0.009 C
HETATM   12  C9  UNL     1      64.574  83.037  17.430  1.00  0.00     0.044 C
HETATM   13  C10 UNL     1      63.072  82.880  17.368  1.00  0.00     0.057 C
HETATM   14  N2  UNL     1      62.431  83.712  16.430  1.00  0.00    -0.382 N
ATOM     15  H2  UNL     1      61.462  83.561  16.150  1.00  0.00     0.160 HD
ENDBRANCH   1   9
TORSDOF 2
ENDMDL