MODEL 5
REMARK VINA RESULT: -5.510663125      2.606      3.620
REMARK  3 active torsions:
REMARK  status: ('A' for Active; 'I' for Inactive)
REMARK    1  A    between atoms: C2_2  and  C4_4
REMARK    2  A    between atoms: C4_4  and  O1_5
REMARK    3  A    between atoms: O1_5  and  C5_6
ROOT
HETATM    1  C4  UNL     1      63.035  83.934  15.216  1.00  0.00     0.104 C
HETATM    2  C6  UNL     1      64.566  83.858  15.358  1.00  0.00     0.042 C
HETATM    3  C7  UNL     1      64.736  82.754  16.387  1.00  0.00     0.006 C
HETATM    4  C8  UNL     1      63.351  82.388  16.879  1.00  0.00     0.040 C
HETATM    5  C9  UNL     1      62.632  83.729  16.626  1.00  0.00     0.205 C
HETATM    6  F1  UNL     1      63.301  84.582  17.511  1.00  0.00    -0.246 F
ENDROOT
BRANCH   1   7
HETATM    7  C2  UNL     1      62.691  85.182  14.549  1.00  0.00     0.016 C
HETATM    8  C1  UNL     1      62.376  86.358  15.397  1.00  0.00     0.012 C
HETATM    9  C3  UNL     1      63.890  85.588  13.674  1.00  0.00     0.012 C
ENDBRANCH   1   7
BRANCH   1  10
HETATM   10  O1  UNL     1      62.700  82.835  14.413  1.00  0.00    -0.310 OA
BRANCH  10  11
HETATM   11  C5  UNL     1      61.707  82.810  13.457  1.00  0.00     0.226 C
HETATM   12  N1  UNL     1      60.492  82.763  13.883  1.00  0.00    -0.368 N
ATOM     13  H12 UNL     1      60.326  82.745  14.889  1.00  0.00     0.159 HD
ATOM     14  H11 UNL     1      59.757  82.745  13.175  1.00  0.00     0.159 HD
HETATM   15  N2  UNL     1      61.936  82.835  12.068  1.00  0.00    -0.057 NA
ENDBRANCH  10  11
ENDBRANCH   1  10
TORSDOF 3
ENDMDL