MODEL 3
REMARK VINA RESULT: -5.103129146      2.380      3.095
REMARK  3 active torsions:
REMARK  status: ('A' for Active; 'I' for Inactive)
REMARK    1  A    between atoms: C2_2  and  N1_3
REMARK    2  A    between atoms: N1_3  and  C3_5
REMARK    3  A    between atoms: C6_8  and  O1_9
ROOT
HETATM    1  C1  UNL     1      60.736  82.965  14.873  1.00  0.00     0.043 C
HETATM    2  C2  UNL     1      62.143  83.438  14.483  1.00  0.00     0.079 C
HETATM    3  C6  UNL     1      62.158  84.905  14.950  1.00  0.00     0.148 C
HETATM    4  C7  UNL     1      61.005  85.654  14.387  1.00  0.00     0.034 C
HETATM    5  C8  UNL     1      60.466  85.168  13.095  1.00  0.00     0.006 C
HETATM    6  C9  UNL     1      61.353  84.317  12.264  1.00  0.00     0.040 C
HETATM    7  C10 UNL     1      62.257  83.371  12.998  1.00  0.00     0.200 C
HETATM    8  F1  UNL     1      63.556  83.722  12.579  1.00  0.00    -0.247 F
ENDROOT
BRANCH   2   9
HETATM    9  N1  UNL     1      63.146  82.716  15.139  1.00  0.00    -0.404 N
ATOM     10  H1  UNL     1      63.629  81.987  14.614  1.00  0.00     0.154 HD
BRANCH   9  11
HETATM   11  C3  UNL     1      63.526  82.929  16.460  1.00  0.00     0.077 A
HETATM   12  C4  UNL     1      62.775  83.436  17.597  1.00  0.00     0.027 A
HETATM   13  C5  UNL     1      62.901  81.956  17.485  1.00  0.00     0.027 A
ENDBRANCH   9  11
ENDBRANCH   2   9
BRANCH   3  14
HETATM   14  O1  UNL     1      63.324  85.550  14.671  1.00  0.00    -0.393 OA
ATOM     15  H1  UNL     1      63.956  85.512  15.380  1.00  0.00     0.210 HD
ENDBRANCH   3  14
TORSDOF 3
ENDMDL