MODEL 5
REMARK VINA RESULT: -4.838668522      2.346      4.102
REMARK  3 active torsions:
REMARK  status: ('A' for Active; 'I' for Inactive)
REMARK    1  A    between atoms: C8_11  and  N2_12
REMARK    2  A    between atoms: N2_12  and  C9_14
REMARK    3  A    between atoms: C9_14  and  C10_15
ROOT
HETATM    1  C1  UNL     1      64.101  86.051  14.988  1.00  0.00     0.019 C
HETATM    2  C2  UNL     1      62.867  85.108  15.193  1.00  0.00    -0.002 C
HETATM    3  C3  UNL     1      61.662  85.904  14.821  1.00  0.00     0.019 C
HETATM    4  C4  UNL     1      62.833  84.904  16.702  1.00  0.00     0.012 C
HETATM    5  C5  UNL     1      63.852  83.967  17.245  1.00  0.00     0.002 C
HETATM    6  C6  UNL     1      63.233  82.590  17.391  1.00  0.00     0.027 C
HETATM    7  C7  UNL     1      63.222  81.996  15.997  1.00  0.00     0.235 C
HETATM    8  N1  UNL     1      62.351  82.756  15.160  1.00  0.00    -0.054 N
ATOM      9  H11 UNL     1      61.554  83.126  15.678  1.00  0.00     0.279 HD
ATOM     10  H12 UNL     1      61.843  82.163  14.503  1.00  0.00     0.279 HD
HETATM   11  C8  UNL     1      63.118  83.850  14.452  1.00  0.00     0.287 C
ENDROOT
BRANCH  11  12
HETATM   12  N2  UNL     1      62.796  83.741  13.094  1.00  0.00    -0.393 N
ATOM     13  H2  UNL     1      63.278  84.314  12.402  1.00  0.00     0.155 HD
BRANCH  12  14
HETATM   14  C9  UNL     1      61.790  82.823  12.692  1.00  0.00     0.147 C
BRANCH  14  15
HETATM   15  C10 UNL     1      60.577  83.660  12.200  1.00  0.00     0.241 C
HETATM   16  F1  UNL     1      60.930  84.936  11.869  1.00  0.00    -0.254 F
ENDBRANCH  14  15
ENDBRANCH  12  14
ENDBRANCH  11  12
TORSDOF 3
ENDMDL