MODEL 5
REMARK VINA RESULT: -4.770537222      1.865      2.581
REMARK  2 active torsions:
REMARK  status: ('A' for Active; 'I' for Inactive)
REMARK    1  A    between atoms: C2_2  and  N1_4
REMARK    2  A    between atoms: C8_10  and  O1_11
ROOT
HETATM    1  N1  UNL     1      61.142  85.015  13.817  1.00  0.00    -0.392 N
ATOM      2  H1  UNL     1      60.346  85.652  13.853  1.00  0.00     0.159 HD
HETATM    3  C4  UNL     1      61.502  84.403  14.983  1.00  0.00    -0.005 C
HETATM    4  C5  UNL     1      61.351  82.838  14.954  1.00  0.00     0.132 C
HETATM    5  C6  UNL     1      62.138  82.374  16.026  1.00  0.00    -0.175 C
HETATM    6  C7  UNL     1      62.948  81.980  17.099  1.00  0.00     0.114 C
HETATM    7  C8  UNL     1      63.659  83.286  17.601  1.00  0.00     0.162 C
HETATM    8  C9  UNL     1      62.971  84.539  17.107  1.00  0.00     0.205 C
HETATM    9  F1  UNL     1      63.844  85.542  17.606  1.00  0.00    -0.246 F
HETATM   10  C10 UNL     1      62.773  84.827  15.692  1.00  0.00     0.092 C
ENDROOT
BRANCH   1  11
HETATM   11  C2  UNL     1      61.766  84.847  12.583  1.00  0.00     0.073 C
HETATM   12  C1  UNL     1      61.270  83.623  11.858  1.00  0.00     0.031 C
HETATM   13  C3  UNL     1      63.265  84.613  12.830  1.00  0.00     0.031 C
ENDBRANCH   1  11
BRANCH   7  14
HETATM   14  O1  UNL     1      64.936  83.273  17.001  1.00  0.00    -0.392 OA
ATOM     15  H1  UNL     1      65.462  82.690  17.535  1.00  0.00     0.210 HD
ENDBRANCH   7  14
TORSDOF 2
ENDMDL