MODEL 5
REMARK VINA RESULT: -4.571829317      0.916      1.233
REMARK  3 active torsions:
REMARK  status: ('A' for Active; 'I' for Inactive)
REMARK    1  A    between atoms: C2_2  and  C3_3
REMARK    2  A    between atoms: C2_2  and  N1_5
REMARK    3  A    between atoms: N1_5  and  C4_7
ROOT
HETATM    1  C4  UNL     1      61.660  84.375  14.918  1.00  0.00     0.081 C
HETATM    2  C5  UNL     1      61.627  85.439  13.888  1.00  0.00     0.025 C
HETATM    3  C6  UNL     1      60.931  85.069  12.592  1.00  0.00     0.002 C
HETATM    4  C7  UNL     1      61.325  83.703  12.098  1.00  0.00     0.000 C
HETATM    5  C8  UNL     1      60.868  82.743  13.214  1.00  0.00     0.002 C
HETATM    6  C9  UNL     1      61.846  82.956  14.322  1.00  0.00     0.025 C
ENDROOT
BRANCH   1   7
HETATM    7  N1  UNL     1      62.659  84.526  15.862  1.00  0.00    -0.391 N
ATOM      8  H1  UNL     1      62.444  85.174  16.620  1.00  0.00     0.159 HD
BRANCH   7   9
HETATM    9  C2  UNL     1      63.890  83.938  15.931  1.00  0.00    -0.012 C
HETATM   10  C1  UNL     1      64.919  84.193  14.866  1.00  0.00     0.064 C
BRANCH   9  11
HETATM   11  C3  UNL     1      63.994  82.624  16.626  1.00  0.00     0.137 C
HETATM   12  S1  UNL     1      62.715  82.216  17.797  1.00  0.00    -0.092 SA
ENDBRANCH   9  11
ENDBRANCH   7   9
ENDBRANCH   1   7
TORSDOF 3
ENDMDL