MODEL 2
REMARK VINA RESULT: -6.923622590      1.154      2.154
REMARK  2 active torsions:
REMARK  status: ('A' for Active; 'I' for Inactive)
REMARK    1  A    between atoms: N1_2  and  N2_3
REMARK    2  A    between atoms: N2_3  and  C2_5
ROOT
HETATM    1  C2  UNL     1      62.951  83.358  15.558  1.00  0.00     0.046 C
HETATM    2  C3  UNL     1      61.621  83.072  14.911  1.00  0.00     0.036 C
HETATM    3  C4  UNL     1      61.313  84.173  13.917  1.00  0.00    -0.009 C
HETATM    4  C5  UNL     1      61.171  85.473  14.652  1.00  0.00     0.009 C
HETATM    5  C6  UNL     1      62.479  85.791  15.351  1.00  0.00    -0.009 C
HETATM    6  C7  UNL     1      63.518  85.948  14.281  1.00  0.00     0.048 C
HETATM    7  C8  UNL     1      63.676  84.642  13.535  1.00  0.00     0.106 C
HETATM    8  F1  UNL     1      64.710  84.772  12.640  1.00  0.00    -0.243 F
HETATM    9  C9  UNL     1      62.397  84.199  12.875  1.00  0.00     0.048 C
HETATM   10  C10 UNL     1      64.048  83.581  14.526  1.00  0.00     0.075 C
HETATM   11  C11 UNL     1      62.787  84.671  16.311  1.00  0.00     0.036 C
ENDROOT
BRANCH   1  12
HETATM   12  N2  UNL     1      63.426  82.319  16.401  1.00  0.00    -0.330 N
ATOM     13  H2  UNL     1      63.688  81.407  16.026  1.00  0.00     0.176 HD
BRANCH  12  14
HETATM   14  N1  UNL     1      63.516  82.593  17.731  1.00  0.00    -0.150 NA
HETATM   15  C1  UNL     1      62.393  81.947  18.402  1.00  0.00     0.158 C
ENDBRANCH  12  14
ENDBRANCH   1  12
TORSDOF 2
ENDMDL