MODEL 4
REMARK VINA RESULT: -7.877877965      2.121      5.404
REMARK  9 active torsions:
REMARK  status: ('A' for Active; 'I' for Inactive)
REMARK    1  A    between atoms: N1_3  and  C3_4
REMARK    2  A    between atoms: C3_4  and  C4_5
REMARK    3  A    between atoms: C4_5  and  C5_6
REMARK    4  A    between atoms: C5_6  and  C6_7
REMARK    5  A    between atoms: C6_7  and  N2_8
REMARK    6  A    between atoms: N4_15  and  C10_16
REMARK    7  A    between atoms: C10_16  and  C11_17
REMARK    8  A    between atoms: C11_17  and  C12_18
REMARK    9  A    between atoms: C12_18  and  N5_19
ROOT
HETATM    1  C1  UNL     1      27.198  17.818  16.627  1.00  0.00     0.034 A
HETATM    2  C2  UNL     1      26.315  18.077  15.595  1.00  0.00     0.093 A
HETATM    3  N1  UNL     1      26.573  19.135  14.800  1.00  0.00    -0.353 N
HETATM    4  C9  UNL     1      27.651  19.900  15.014  1.00  0.00     0.184 A
HETATM    5  N4  UNL     1      28.536  19.689  16.004  1.00  0.00    -0.353 N
HETATM    6  C16 UNL     1      28.303  18.640  16.813  1.00  0.00     0.093 A
ENDROOT
BRANCH   3   7
HETATM    7  C3  UNL     1      25.628  19.382  13.724  1.00  0.00     0.129 C
BRANCH   7   8
HETATM    8  C4  UNL     1      26.161  20.483  12.804  1.00  0.00     0.022 C
BRANCH   8   9
HETATM    9  C5  UNL     1      26.839  19.897  11.613  1.00  0.00     0.022 C
BRANCH   9  10
HETATM   10  C6  UNL     1      28.243  20.398  11.423  1.00  0.00     0.131 C
BRANCH  10  11
HETATM   11  N2  UNL     1      29.149  19.270  11.667  1.00  0.00    -0.331 N
HETATM   12  C7  UNL     1      30.467  19.294  11.444  1.00  0.00     0.208 A
HETATM   13  N3  UNL     1      30.961  18.092  11.781  1.00  0.00    -0.256 N
HETATM   14  O1  UNL     1      29.961  17.374  12.192  1.00  0.00    -0.232 OA
ATOM     15  H3  UNL     1      31.936  17.799  11.724  1.00  0.00     0.195 HD
HETATM   16  C8  UNL     1      28.844  18.058  12.138  1.00  0.00     0.262 A
ENDBRANCH  10  11
ENDBRANCH   9  10
ENDBRANCH   8   9
ENDBRANCH   7   8
ENDBRANCH   3   7
BRANCH   5  17
HETATM   17  C10 UNL     1      29.689  20.525  16.234  1.00  0.00     0.130 C
BRANCH  17  18
HETATM   18  C11 UNL     1      30.292  21.142  15.027  1.00  0.00     0.040 C
BRANCH  18  19
HETATM   19  C12 UNL     1      30.306  22.648  15.144  1.00  0.00     0.131 C
BRANCH  19  20
HETATM   20  N5  UNL     1      31.574  23.081  15.683  1.00  0.00    -0.352 N
HETATM   21  C13 UNL     1      32.674  23.313  14.964  1.00  0.00     0.108 A
HETATM   22  C14 UNL     1      33.649  23.704  15.863  1.00  0.00     0.106 A
HETATM   23  N6  UNL     1      33.107  23.695  17.102  1.00  0.00    -0.361 N
HETATM   24  C15 UNL     1      31.831  23.309  16.974  1.00  0.00     0.182 A
ATOM     25  H6  UNL     1      33.581  23.937  17.972  1.00  0.00     0.166 HD
ENDBRANCH  19  20
ENDBRANCH  18  19
ENDBRANCH  17  18
ENDBRANCH   5  17
TORSDOF 9
ENDMDL