MODEL 3
REMARK VINA RESULT: -6.614350150      4.148      5.869
REMARK  8 active torsions:
REMARK  status: ('A' for Active; 'I' for Inactive)
REMARK    1  A    between atoms: C2_2  and  C3_3
REMARK    2  A    between atoms: C3_3  and  N1_4
REMARK    3  A    between atoms: N1_4  and  C4_5
REMARK    4  A    between atoms: N1_4  and  C7_8
REMARK    5  A    between atoms: C4_5  and  C5_6
REMARK    6  A    between atoms: C7_8  and  C8_9
REMARK    7  A    between atoms: C8_9  and  N2_10
REMARK    8  A    between atoms: N3_13  and  S1_14
ROOT
HETATM    1  N2  UNL     1      31.669  22.884   9.840  1.00  0.00    -0.342 N
HETATM    2  C9  UNL     1      31.053  22.088   8.871  1.00  0.00     0.113 C
HETATM    3  C10 UNL     1      31.927  20.893   8.619  1.00  0.00     0.126 C
HETATM    4  N3  UNL     1      33.217  21.264   8.231  1.00  0.00    -0.260 N
HETATM    5  C12 UNL     1      33.795  22.423   8.761  1.00  0.00     0.126 C
HETATM    6  C13 UNL     1      32.936  23.342   9.543  1.00  0.00     0.113 C
ENDROOT
BRANCH   1   7
HETATM    7  C8  UNL     1      31.031  23.175  11.055  1.00  0.00     0.099 C
BRANCH   7   8
HETATM    8  C7  UNL     1      29.771  22.340  11.145  1.00  0.00     0.318 C
BRANCH   8   9
HETATM    9  N1  UNL     1      29.783  21.339  12.208  1.00  0.00     0.099 N
BRANCH   9  10
HETATM   10  C3  UNL     1      28.775  21.694  13.205  1.00  0.00     0.299 C
BRANCH  10  11
HETATM   11  C2  UNL     1      27.526  20.922  13.115  1.00  0.00    -0.007 C
HETATM   12  C1  UNL     1      26.500  20.936  13.925  1.00  0.00     0.008 C
ENDBRANCH  10  11
ENDBRANCH   9  10
BRANCH   9  13
HETATM   13  C4  UNL     1      29.445  20.038  11.642  1.00  0.00     0.299 C
BRANCH  13  14
HETATM   14  C5  UNL     1      30.498  19.021  11.704  1.00  0.00    -0.007 C
HETATM   15  C6  UNL     1      30.422  17.728  11.552  1.00  0.00     0.008 C
ENDBRANCH  13  14
ENDBRANCH   9  13
ENDBRANCH   8   9
ENDBRANCH   7   8
ENDBRANCH   1   7
BRANCH   4  16
HETATM   16  S1  UNL     1      33.488  20.962   6.582  1.00  0.00     0.232 S
HETATM   17  C11 UNL     1      34.509  22.106   5.749  1.00  0.00     0.186 C
HETATM   18  O1  UNL     1      34.016  19.556   6.416  1.00  0.00    -0.206 OA
HETATM   19  O2  UNL     1      32.133  20.986   5.884  1.00  0.00    -0.206 OA
ENDBRANCH   4  16
TORSDOF 8
ENDMDL