MODEL 4
REMARK VINA RESULT: -7.910274245      1.157      1.284
REMARK  9 active torsions:
REMARK  status: ('A' for Active; 'I' for Inactive)
REMARK    1  A    between atoms: C1_2  and  C2_3
REMARK    2  A    between atoms: C3_4  and  C4_5
REMARK    3  A    between atoms: C5_6  and  C6_7
REMARK    4  A    between atoms: C7_8  and  N1_9
REMARK    5  A    between atoms: C11_15  and  O2_16
REMARK    6  A    between atoms: O2_16  and  C12_17
REMARK    7  A    between atoms: C12_17  and  C13_18
REMARK    8  A    between atoms: C13_18  and  C14_19
REMARK    9  A    between atoms: C14_19  and  S1_20
ROOT
HETATM    1  N1  UNL     1      29.613  20.200  11.286  1.00  0.00    -0.299 N
HETATM    2  C8  UNL     1      30.666  19.391  11.212  1.00  0.00     0.101 A
HETATM    3  C9  UNL     1      30.622  18.052  11.604  1.00  0.00     0.035 A
HETATM    4  C10 UNL     1      29.444  17.552  12.085  1.00  0.00     0.093 A
HETATM    5  N2  UNL     1      28.389  18.363  12.158  1.00  0.00    -0.332 N
ATOM      6  H2  UNL     1      27.510  17.989  12.517  1.00  0.00     0.168 HD
HETATM    7  C11 UNL     1      28.434  19.646  11.782  1.00  0.00     0.229 A
ENDROOT
BRANCH   1   8
HETATM    8  C7  UNL     1      29.551  21.554  10.921  1.00  0.00     0.100 C
HETATM    9  C6  UNL     1      30.087  22.250  10.001  1.00  0.00     0.018 C
BRANCH   9  10
HETATM   10  C5  UNL     1      30.975  21.964   8.950  1.00  0.00     0.001 C
HETATM   11  C4  UNL     1      32.304  22.247   9.116  1.00  0.00     0.000 C
BRANCH  11  12
HETATM   12  C3  UNL     1      33.273  21.980   8.077  1.00  0.00     0.003 C
HETATM   13  C2  UNL     1      34.235  21.112   8.293  1.00  0.00     0.041 C
BRANCH  13  14
HETATM   14  C1  UNL     1      35.196  20.857   7.240  1.00  0.00     0.258 C
HETATM   15  O1  UNL     1      36.095  21.701   6.975  1.00  0.00    -0.302 OA
ENDBRANCH  13  14
ENDBRANCH  11  12
ENDBRANCH   9  10
ENDBRANCH   1   8
BRANCH   7  16
HETATM   16  O2  UNL     1      27.324  20.443  11.876  1.00  0.00    -0.322 OA
BRANCH  16  17
HETATM   17  C12 UNL     1      26.147  20.117  12.518  1.00  0.00     0.180 C
BRANCH  17  18
HETATM   18  C13 UNL     1      26.191  20.424  13.984  1.00  0.00     0.043 C
BRANCH  18  19
HETATM   19  C14 UNL     1      25.816  19.123  14.720  1.00  0.00     0.159 C
BRANCH  19  20
HETATM   20  S1  UNL     1      27.263  18.569  15.578  1.00  0.00     0.250 S
HETATM   21  O3  UNL     1      27.633  17.026  15.002  1.00  0.00    -0.212 OA
HETATM   22  O4  UNL     1      28.531  19.603  15.146  1.00  0.00    -0.212 OA
ENDBRANCH  19  20
ENDBRANCH  18  19
ENDBRANCH  17  18
ENDBRANCH  16  17
ENDBRANCH   7  16
TORSDOF 9
ENDMDL