MODEL 5
REMARK VINA RESULT: -6.182570113      4.287      5.745
REMARK  9 active torsions:
REMARK  status: ('A' for Active; 'I' for Inactive)
REMARK    1  A    between atoms: C2_2  and  C3_3
REMARK    2  A    between atoms: C3_3  and  N1_4
REMARK    3  A    between atoms: N2_7  and  C6_8
REMARK    4  A    between atoms: C6_8  and  C7_9
REMARK    5  A    between atoms: C7_9  and  C8_10
REMARK    6  A    between atoms: C8_10  and  S1_11
REMARK    7  A    between atoms: S1_11  and  C9_13
REMARK    8  A    between atoms: C9_13  and  C10_14
REMARK    9  A    between atoms: C10_14  and  N3_15
ROOT
HETATM    1  C6  UNL     1      29.918  23.238  12.188  1.00  0.00     0.273 C
ENDROOT
BRANCH   1   2
HETATM    2  N2  UNL     1      29.936  22.027  12.983  1.00  0.00     0.091 N
HETATM    3  C5  UNL     1      29.506  20.854  12.304  1.00  0.00     0.292 C
HETATM    4  C4  UNL     1      27.984  20.759  12.344  1.00  0.00     0.152 C
HETATM    5  N1  UNL     1      27.530  20.545  13.662  1.00  0.00    -0.390 N
HETATM    6  C14 UNL     1      28.472  21.034  14.667  1.00  0.00     0.152 C
HETATM    7  C13 UNL     1      29.154  22.297  14.177  1.00  0.00     0.292 C
BRANCH   5   8
HETATM    8  C3  UNL     1      26.191  20.784  14.010  1.00  0.00     0.058 C
BRANCH   8   9
HETATM    9  C2  UNL     1      25.306  19.603  14.014  1.00  0.00     0.040 C
HETATM   10  C1  UNL     1      25.679  18.512  14.958  1.00  0.00     0.010 C
ENDBRANCH   8   9
ENDBRANCH   5   8
ENDBRANCH   1   2
BRANCH   1  11
HETATM   11  C7  UNL     1      30.192  22.864  10.769  1.00  0.00     0.043 C
BRANCH  11  12
HETATM   12  C8  UNL     1      31.563  23.234  10.324  1.00  0.00     0.110 C
BRANCH  12  13
HETATM   13  S1  UNL     1      32.230  22.153   9.143  1.00  0.00     0.016 S
HETATM   14  O1  UNL     1      31.991  20.562   9.514  1.00  0.00    -0.258 OA
BRANCH  13  15
HETATM   15  C9  UNL     1      33.961  22.456   8.843  1.00  0.00     0.139 C
BRANCH  15  16
HETATM   16  C10 UNL     1      34.699  21.159   8.875  1.00  0.00     0.285 C
BRANCH  16  17
HETATM   17  N3  UNL     1      35.230  20.777   7.585  1.00  0.00     0.092 N
HETATM   18  C11 UNL     1      34.333  20.206   6.601  1.00  0.00     0.302 A
HETATM   19  C12 UNL     1      34.923  21.588   6.420  1.00  0.00     0.302 A
ENDBRANCH  16  17
ENDBRANCH  15  16
ENDBRANCH  13  15
ENDBRANCH  12  13
ENDBRANCH  11  12
ENDBRANCH   1  11
TORSDOF 9
ENDMDL