MODEL 3
REMARK VINA RESULT: -7.511437943      1.352      2.578
REMARK  8 active torsions:
REMARK  status: ('A' for Active; 'I' for Inactive)
REMARK    1  A    between atoms: C2_2  and  C3_3
REMARK    2  A    between atoms: C3_3  and  N1_4
REMARK    3  A    between atoms: N1_4  and  C4_5
REMARK    4  A    between atoms: N1_4  and  C6_7
REMARK    5  A    between atoms: C6_7  and  C7_8
REMARK    6  A    between atoms: C7_8  and  C8_9
REMARK    7  A    between atoms: C8_9  and  N2_10
REMARK    8  A    between atoms: N3_13  and  N4_14
ROOT
HETATM    1  N2  UNL     1      29.775  22.095  11.276  1.00  0.00    -0.331 N
HETATM    2  C9  UNL     1      29.857  23.190  12.189  1.00  0.00     0.149 C
HETATM    3  C10 UNL     1      29.650  22.568  13.540  1.00  0.00     0.174 C
HETATM    4  N3  UNL     1      28.760  21.439  13.241  1.00  0.00    -0.239 N
HETATM    5  C15 UNL     1      29.170  21.009  11.957  1.00  0.00     0.339 C
HETATM    6  O2  UNL     1      28.996  19.829  11.546  1.00  0.00    -0.245 OA
ENDROOT
BRANCH   1   7
HETATM    7  C8  UNL     1      30.238  22.101   9.876  1.00  0.00     0.133 C
BRANCH   7   8
HETATM    8  C7  UNL     1      31.557  22.756   9.751  1.00  0.00     0.065 C
BRANCH   8   9
HETATM    9  C6  UNL     1      32.406  22.510   8.563  1.00  0.00     0.065 C
BRANCH   9  10
HETATM   10  N1  UNL     1      33.150  21.345   8.467  1.00  0.00    -0.370 N
BRANCH  10  11
HETATM   11  C3  UNL     1      34.345  21.123   9.160  1.00  0.00     0.089 C
BRANCH  11  12
HETATM   12  C2  UNL     1      35.231  22.307   9.251  1.00  0.00     0.007 C
HETATM   13  C1  UNL     1      35.608  22.913  10.299  1.00  0.00     0.012 C
ENDBRANCH  11  12
ENDBRANCH  10  11
BRANCH  10  14
HETATM   14  C4  UNL     1      33.009  20.658   7.218  1.00  0.00     0.123 C
HETATM   15  C5  UNL     1      32.140  21.424   6.285  1.00  0.00     0.027 C
ENDBRANCH  10  14
ENDBRANCH   9  10
ENDBRANCH   8   9
ENDBRANCH   7   8
ENDBRANCH   1   7
BRANCH   4  16
HETATM   16  N4  UNL     1      27.811  21.011  14.089  1.00  0.00    -0.297 N
HETATM   17  C11 UNL     1      28.157  20.203  15.187  1.00  0.00     0.109 C
HETATM   18  C12 UNL     1      27.345  18.926  15.315  1.00  0.00     0.213 C
HETATM   19  O1  UNL     1      25.991  19.131  15.161  1.00  0.00    -0.384 OA
HETATM   20  C13 UNL     1      25.809  19.609  13.849  1.00  0.00     0.189 C
HETATM   21  C14 UNL     1      26.454  21.006  13.785  1.00  0.00     0.174 C
ENDBRANCH   4  16
TORSDOF 8
ENDMDL