MODEL 4
REMARK VINA RESULT: -7.537293323      3.053      4.202
REMARK  13 active torsions:
REMARK  status: ('A' for Active; 'I' for Inactive)
REMARK    1  A    between atoms: C2_2  and  C3_3
REMARK    2  A    between atoms: C3_3  and  C4_4
REMARK    3  A    between atoms: C4_4  and  C5_5
REMARK    4  A    between atoms: C5_5  and  C6_6
REMARK    5  A    between atoms: C6_6  and  C7_7
REMARK    6  A    between atoms: C8_8  and  C9_9
REMARK    7  A    between atoms: C10_10  and  C11_11
REMARK    8  A    between atoms: C11_11  and  N1_12
REMARK    9  A    between atoms: C13_14  and  O1_15
REMARK   10  A    between atoms: N3_19  and  C14_20
REMARK   11  A    between atoms: C14_20  and  C15_21
REMARK   12  A    between atoms: C15_21  and  O2_22
REMARK   13  A    between atoms: O2_22  and  O3_24
ROOT
HETATM    1  N1  UNL     1      30.225  22.958  13.953  1.00  0.00    -0.279 N
HETATM    2  C12 UNL     1      30.624  23.813  14.944  1.00  0.00     0.169 A
HETATM    3  C13 UNL     1      31.083  23.091  16.013  1.00  0.00     0.173 A
HETATM    4  N2  UNL     1      30.957  21.811  15.653  1.00  0.00    -0.262 N
ATOM      5  H2  UNL     1      31.211  21.008  16.229  1.00  0.00     0.191 HD
HETATM    6  N3  UNL     1      30.436  21.747  14.403  1.00  0.00    -0.230 N
ENDROOT
BRANCH   1   7
HETATM    7  C11 UNL     1      29.662  23.419  12.704  1.00  0.00     0.178 C
BRANCH   7   8
HETATM    8  C10 UNL     1      30.626  23.196  11.605  1.00  0.00     0.004 C
HETATM    9  C9  UNL     1      30.295  22.589  10.495  1.00  0.00     0.062 C
BRANCH   9  10
HETATM   10  C8  UNL     1      31.187  22.345   9.398  1.00  0.00    -0.079 C
HETATM   11  C7  UNL     1      31.954  22.150   8.483  1.00  0.00    -0.102 C
BRANCH  11  12
HETATM   12  C6  UNL     1      32.895  21.934   7.384  1.00  0.00     0.094 C
BRANCH  12  13
HETATM   13  C5  UNL     1      33.990  20.950   7.784  1.00  0.00     0.012 C
BRANCH  13  14
HETATM   14  C4  UNL     1      34.578  21.315   9.113  1.00  0.00     0.005 C
BRANCH  14  15
HETATM   15  C3  UNL     1      35.638  22.379   8.979  1.00  0.00     0.026 C
BRANCH  15  16
HETATM   16  C2  UNL     1      35.583  23.188  10.252  1.00  0.00    -0.037 C
HETATM   17  C1  UNL     1      34.462  23.846  10.539  1.00  0.00     0.007 C
ENDBRANCH  15  16
ENDBRANCH  14  15
ENDBRANCH  13  14
ENDBRANCH  12  13
ENDBRANCH  11  12
ENDBRANCH   9  10
ENDBRANCH   7   8
ENDBRANCH   1   7
BRANCH   6  18
HETATM   18  C14 UNL     1      30.235  20.477  13.788  1.00  0.00     0.170 C
BRANCH  18  19
HETATM   19  C15 UNL     1      28.846  19.956  13.862  1.00  0.00     0.025 C
BRANCH  19  20
HETATM   20  O2  UNL     1      27.993  20.536  14.766  1.00  0.00     0.000 OA
HETATM   21  C16 UNL     1      26.834  21.030  14.069  1.00  0.00     0.000 C
BRANCH  20  22
HETATM   22  O3  UNL     1      27.499  19.592  15.600  1.00  0.00    -0.253 OA
ATOM     23  H3  UNL     1      27.199  18.843  15.096  1.00  0.00     0.253 HD
ENDBRANCH  20  22
ENDBRANCH  19  20
ENDBRANCH  18  19
ENDBRANCH   6  18
BRANCH   3  24
HETATM   24  O1  UNL     1      31.580  23.533  17.222  1.00  0.00    -0.344 OA
ATOM     25  H1  UNL     1      31.122  23.921  17.959  1.00  0.00     0.219 HD
ENDBRANCH   3  24
TORSDOF 13
ENDMDL