MODEL 2
REMARK VINA RESULT: -7.352746098      1.503      1.530
REMARK  10 active torsions:
REMARK  status: ('A' for Active; 'I' for Inactive)
REMARK    1  A    between atoms: C2_2  and  C3_3
REMARK    2  A    between atoms: C3_3  and  N1_4
REMARK    3  A    between atoms: C5_6  and  C6_7
REMARK    4  A    between atoms: C6_7  and  C7_8
REMARK    5  A    between atoms: C7_8  and  C8_9
REMARK    6  A    between atoms: C8_9  and  N2_10
REMARK    7  A    between atoms: N2_10  and  O1_12
REMARK    8  A    between atoms: N3_14  and  O2_15
REMARK    9  A    between atoms: C10_17  and  C11_18
REMARK   10  A    between atoms: C11_18  and  S1_19
ROOT
HETATM    1  N1  UNL     1      28.243  20.937  12.355  1.00  0.00    -0.359 N
HETATM    2  C4  UNL     1      28.800  21.057  11.132  1.00  0.00     0.118 A
HETATM    3  C5  UNL     1      29.785  21.944  10.843  1.00  0.00     0.056 A
HETATM    4  N3  UNL     1      30.200  22.734  11.868  1.00  0.00    -0.230 N
HETATM    5  C10 UNL     1      29.692  22.671  13.108  1.00  0.00     0.067 A
HETATM    6  C13 UNL     1      28.681  21.734  13.333  1.00  0.00     0.119 A
ENDROOT
BRANCH   3   7
HETATM    7  C6  UNL     1      30.399  22.092   9.515  1.00  0.00     0.063 C
BRANCH   7   8
HETATM    8  C7  UNL     1      31.558  21.222   9.225  1.00  0.00     0.028 C
BRANCH   8   9
HETATM    9  C8  UNL     1      32.717  21.778   8.495  1.00  0.00     0.154 C
BRANCH   9  10
HETATM   10  N2  UNL     1      33.807  22.245   9.315  1.00  0.00    -0.282 N
HETATM   11  C9  UNL     1      35.023  21.794   9.111  1.00  0.00     0.149 C
BRANCH  10  12
HETATM   12  O1  UNL     1      33.625  23.146  10.311  1.00  0.00    -0.289 OA
ATOM     13  H1  UNL     1      34.351  23.606  10.714  1.00  0.00     0.244 HD
ENDBRANCH  10  12
ENDBRANCH   9  10
ENDBRANCH   8   9
ENDBRANCH   7   8
ENDBRANCH   3   7
BRANCH   4  14
HETATM   14  O2  UNL     1      31.102  23.550  11.616  1.00  0.00    -0.283 OA
ATOM     15  H2  UNL     1      30.933  24.457  11.842  1.00  0.00     0.245 HD
ENDBRANCH   4  14
BRANCH   1  16
HETATM   16  C3  UNL     1      27.202  19.988  12.630  1.00  0.00     0.154 C
BRANCH  16  17
HETATM   17  C2  UNL     1      26.196  20.481  13.583  1.00  0.00    -0.017 C
HETATM   18  C1  UNL     1      25.336  19.650  14.161  1.00  0.00     0.008 C
ENDBRANCH  16  17
ENDBRANCH   1  16
BRANCH   5  19
HETATM   19  C11 UNL     1      30.188  23.559  14.186  1.00  0.00     0.169 C
BRANCH  19  20
HETATM   20  S1  UNL     1      31.677  22.951  14.932  1.00  0.00     0.016 S
HETATM   21  C12 UNL     1      31.603  23.389  16.667  1.00  0.00     0.127 C
HETATM   22  O3  UNL     1      33.027  23.593  14.208  1.00  0.00    -0.258 OA
ENDBRANCH  19  20
ENDBRANCH   5  19
TORSDOF 10
ENDMDL