MODEL 3
REMARK VINA RESULT: -6.972295815      3.130      5.383
REMARK  8 active torsions:
REMARK  status: ('A' for Active; 'I' for Inactive)
REMARK    1  A    between atoms: C3_3  and  N1_4
REMARK    2  A    between atoms: N2_6  and  C5_7
REMARK    3  A    between atoms: C5_7  and  C6_8
REMARK    4  A    between atoms: C6_8  and  N3_9
REMARK    5  A    between atoms: N3_9  and  C7_10
REMARK    6  A    between atoms: N3_9  and  C10_13
REMARK    7  A    between atoms: C7_10  and  C8_11
REMARK    8  A    between atoms: C10_13  and  C11_14
ROOT
HETATM    1  C1  UNL     1      28.931  19.375  18.043  1.00  0.00     0.013 C
HETATM    2  C2  UNL     1      28.416  18.931  17.036  1.00  0.00    -0.102 C
HETATM    3  C3  UNL     1      27.794  18.363  15.815  1.00  0.00     0.206 C
ENDROOT
BRANCH   3   4
HETATM    4  N1  UNL     1      28.718  18.489  14.745  1.00  0.00    -0.161 NA
HETATM    5  C4  UNL     1      29.194  19.805  14.465  1.00  0.00     0.165 C
HETATM    6  N2  UNL     1      28.429  20.620  13.608  1.00  0.00    -0.375 N
HETATM    7  C13 UNL     1      27.393  20.083  12.857  1.00  0.00     0.140 C
HETATM    8  C14 UNL     1      27.908  18.875  12.061  1.00  0.00     0.177 C
HETATM    9  S1  UNL     1      28.255  17.640  13.320  1.00  0.00     0.218 S
HETATM   10  O1  UNL     1      29.403  16.756  12.930  1.00  0.00    -0.211 OA
HETATM   11  O2  UNL     1      27.045  16.820  13.623  1.00  0.00    -0.211 OA
BRANCH   6  12
HETATM   12  C5  UNL     1      28.289  21.944  14.118  1.00  0.00     0.168 C
BRANCH  12  13
HETATM   13  C6  UNL     1      29.499  22.628  14.615  1.00  0.00     0.088 C
BRANCH  13  14
HETATM   14  N3  UNL     1      30.453  23.040  13.680  1.00  0.00    -0.345 N
BRANCH  14  15
HETATM   15  C7  UNL     1      29.962  23.593  12.487  1.00  0.00     0.094 C
BRANCH  15  16
HETATM   16  C8  UNL     1      30.541  23.125  11.227  1.00  0.00     0.007 C
HETATM   17  C9  UNL     1      30.021  22.065  10.621  1.00  0.00     0.012 C
ENDBRANCH  15  16
ENDBRANCH  14  15
BRANCH  14  18
HETATM   18  C10 UNL     1      31.715  23.490  14.065  1.00  0.00     0.094 C
BRANCH  18  19
HETATM   19  C11 UNL     1      32.303  22.879  15.280  1.00  0.00     0.007 C
HETATM   20  C12 UNL     1      33.293  23.497  15.921  1.00  0.00     0.012 C
ENDBRANCH  18  19
ENDBRANCH  14  18
ENDBRANCH  13  14
ENDBRANCH  12  13
ENDBRANCH   6  12
ENDBRANCH   3   4
TORSDOF 8
ENDMDL