MODEL 5
REMARK VINA RESULT: -7.803309948      3.276      8.871
REMARK  9 active torsions:
REMARK  status: ('A' for Active; 'I' for Inactive)
REMARK    1  A    between atoms: C2_3  and  C3_4
REMARK    2  A    between atoms: N2_7  and  C6_8
REMARK    3  A    between atoms: C6_8  and  C7_9
REMARK    4  A    between atoms: C7_9  and  C8_10
REMARK    5  A    between atoms: C8_10  and  C9_11
REMARK    6  A    between atoms: C9_11  and  N3_12
REMARK    7  A    between atoms: N4_15  and  C12_16
REMARK    8  A    between atoms: C12_16  and  C13_17
REMARK    9  A    between atoms: C13_17  and  O1_18
ROOT
HETATM    1  N1  UNL     1      27.171  17.284  17.084  1.00  0.00    -0.197 NA
HETATM    2  C1  UNL     1      26.769  17.942  16.204  1.00  0.00     0.063 C
HETATM    3  C2  UNL     1      26.285  18.779  15.109  1.00  0.00     0.163 C
ENDROOT
BRANCH   3   4
HETATM    4  C3  UNL     1      27.233  19.875  14.785  1.00  0.00    -0.027 A
HETATM    5  C4  UNL     1      28.527  19.852  15.279  1.00  0.00     0.028 A
HETATM    6  C5  UNL     1      29.425  20.881  14.978  1.00  0.00     0.110 A
HETATM    7  N2  UNL     1      29.030  21.904  14.199  1.00  0.00    -0.304 N
HETATM    8  N5  UNL     1      27.802  21.914  13.737  1.00  0.00    -0.310 N
HETATM    9  C15 UNL     1      26.900  20.956  13.994  1.00  0.00     0.115 A
ATOM     10  H5  UNL     1      27.516  22.696  13.148  1.00  0.00     0.186 HD
BRANCH   7  11
HETATM   11  C6  UNL     1      29.924  22.979  13.858  1.00  0.00     0.148 C
BRANCH  11  12
HETATM   12  C7  UNL     1      29.691  23.537  12.496  1.00  0.00     0.023 C
BRANCH  12  13
HETATM   13  C8  UNL     1      30.820  23.254  11.565  1.00  0.00     0.022 C
BRANCH  13  14
HETATM   14  C9  UNL     1      30.401  22.545  10.307  1.00  0.00     0.129 C
BRANCH  14  15
HETATM   15  N3  UNL     1      31.452  22.455   9.328  1.00  0.00    -0.352 N
HETATM   16  C10 UNL     1      32.693  23.010   9.428  1.00  0.00     0.109 A
HETATM   17  C11 UNL     1      33.379  22.676   8.279  1.00  0.00     0.109 A
HETATM   18  N4  UNL     1      32.541  21.935   7.523  1.00  0.00    -0.350 N
HETATM   19  C14 UNL     1      31.366  21.799   8.162  1.00  0.00     0.185 A
BRANCH  18  20
HETATM   20  C12 UNL     1      32.888  21.390   6.235  1.00  0.00     0.155 C
BRANCH  20  21
HETATM   21  C13 UNL     1      34.310  20.872   6.312  1.00  0.00     0.184 C
BRANCH  21  22
HETATM   22  O1  UNL     1      34.263  19.482   6.260  1.00  0.00    -0.399 OA
ATOM     23  H1  UNL     1      34.846  19.144   6.930  1.00  0.00     0.209 HD
ENDBRANCH  21  22
ENDBRANCH  20  21
ENDBRANCH  18  20
ENDBRANCH  14  15
ENDBRANCH  13  14
ENDBRANCH  12  13
ENDBRANCH  11  12
ENDBRANCH   7  11
ENDBRANCH   3   4
TORSDOF 9
ENDMDL