MODEL 3
REMARK VINA RESULT: -4.832471930      1.158      1.158
REMARK  2 active torsions:
REMARK  status: ('A' for Active; 'I' for Inactive)
REMARK    1  A    between atoms: C2_2  and  C3_3
REMARK    2  A    between atoms: C5_5  and  C6_6
ROOT
HETATM    1  C3  UNL     1      28.104  19.882  15.271  1.00  0.00     0.021 A
HETATM    2  C4  UNL     1      27.294  20.976  14.701  1.00  0.00     0.023 A
HETATM    3  C5  UNL     1      28.653  21.319  15.204  1.00  0.00     0.083 A
ENDROOT
BRANCH   3   4
HETATM    4  C6  UNL     1      29.778  21.546  14.275  1.00  0.00     0.235 C
HETATM    5  N1  UNL     1      31.073  21.100  14.658  1.00  0.00    -0.062 NA
HETATM    6  O1  UNL     1      29.673  22.107  13.170  1.00  0.00    -0.276 OA
ENDBRANCH   3   4
BRANCH   1   7
HETATM    7  C2  UNL     1      27.839  19.325  16.605  1.00  0.00    -0.031 C
HETATM    8  C1  UNL     1      27.032  18.285  16.767  1.00  0.00     0.007 C
ENDBRANCH   1   7
TORSDOF 2
ENDMDL