MODEL 4
REMARK VINA RESULT: -4.526872855      1.805      3.204
REMARK  1 active torsions:
REMARK  status: ('A' for Active; 'I' for Inactive)
REMARK    1  A    between atoms: C1_2  and  C2_4
ROOT
HETATM    1  C2  UNL     1      29.680  19.657  12.332  1.00  0.00     0.151 A
HETATM    2  C3  UNL     1      30.785  18.858  11.751  1.00  0.00     0.100 A
HETATM    3  C4  UNL     1      29.708  18.184  12.604  1.00  0.00     0.141 A
HETATM    4  O2  UNL     1      29.345  17.121  13.056  1.00  0.00    -0.297 OA
ENDROOT
BRANCH   1   5
HETATM    5  C1  UNL     1      29.933  20.559  13.468  1.00  0.00     0.242 C
HETATM    6  N1  UNL     1      29.022  21.586  13.797  1.00  0.00    -0.061 NA
HETATM    7  O1  UNL     1      30.964  20.442  14.177  1.00  0.00    -0.276 OA
ENDBRANCH   1   5
TORSDOF 1
ENDMDL