MODEL 5
REMARK VINA RESULT: -4.883193746      2.716      3.269
REMARK  1 active torsions:
REMARK  status: ('A' for Active; 'I' for Inactive)
REMARK    1  A    between atoms: N2_4  and  C1_6
ROOT
HETATM    1  C1  UNL     1      31.633  22.858  16.144  1.00  0.00     0.192 C
HETATM    2  C2  UNL     1      31.275  24.307  15.970  1.00  0.00     0.056 C
HETATM    3  C3  UNL     1      29.963  24.343  15.233  1.00  0.00     0.125 C
HETATM    4  N3  UNL     1      29.930  23.090  14.532  1.00  0.00    -0.359 N
ATOM      5  H3  UNL     1      29.303  22.873  13.758  1.00  0.00     0.162 HD
HETATM    6  C4  UNL     1      30.892  22.200  15.065  1.00  0.00     0.241 C
HETATM    7  O1  UNL     1      31.070  21.029  14.664  1.00  0.00    -0.271 OA
ENDROOT
BRANCH   1   8
HETATM    8  N2  UNL     1      31.324  22.372  17.437  1.00  0.00    -0.329 N
HETATM    9  N1  UNL     1      30.833  21.293  17.723  1.00  0.00    -0.349 N
ATOM     10  H12 UNL     1      30.629  20.686  16.929  1.00  0.00     0.176 HD
ATOM     11  H11 UNL     1      30.611  20.943  18.655  1.00  0.00     0.176 HD
ATOM     12  H2  UNL     1      31.536  22.993  18.218  1.00  0.00     0.180 HD
ENDBRANCH   1   8
TORSDOF 1
ENDMDL