MODEL 1
REMARK VINA RESULT: -4.889712873      0.000      0.000
REMARK  1 active torsions:
REMARK  status: ('A' for Active; 'I' for Inactive)
REMARK    1  A    between atoms: C1_2  and  C2_4
ROOT
HETATM    1  C2  UNL     1      25.994  19.208  15.694  1.00  0.00     0.084 A
HETATM    2  C3  UNL     1      25.665  19.343  14.247  1.00  0.00     0.004 A
HETATM    3  C4  UNL     1      25.447  20.812  13.827  1.00  0.00     0.011 A
HETATM    4  C5  UNL     1      26.487  20.418  14.836  1.00  0.00     0.004 A
ENDROOT
BRANCH   1   5
HETATM    5  C1  UNL     1      27.061  18.325  16.160  1.00  0.00     0.236 C
HETATM    6  N1  UNL     1      27.459  18.363  17.518  1.00  0.00    -0.062 NA
HETATM    7  O1  UNL     1      27.626  17.535  15.376  1.00  0.00    -0.276 OA
ENDBRANCH   1   5
TORSDOF 1
ENDMDL