MODEL 3
REMARK VINA RESULT: -4.773032258      1.988      4.340
REMARK  2 active torsions:
REMARK  status: ('A' for Active; 'I' for Inactive)
REMARK    1  A    between atoms: C2_2  and  C3_3
REMARK       I    between atoms: C3_3  and  N1_5
REMARK    2  A    between atoms: N1_5  and  C4_7
ROOT
HETATM    1  C3  UNL     1      28.258  20.884  14.086  1.00  0.00     0.241 C
HETATM    2  O1  UNL     1      28.895  21.960  14.067  1.00  0.00    -0.269 OA
HETATM    3  N1  UNL     1      28.860  19.731  13.541  1.00  0.00    -0.347 N
ATOM      4  H1  UNL     1      28.349  18.848  13.552  1.00  0.00     0.163 HD
ENDROOT
BRANCH   3   5
HETATM    5  C4  UNL     1      30.207  19.776  12.959  1.00  0.00     0.130 A
HETATM    6  C5  UNL     1      30.295  19.922  11.516  1.00  0.00     0.000 A
HETATM    7  C6  UNL     1      30.505  18.658  12.038  1.00  0.00     0.000 A
ENDBRANCH   3   5
BRANCH   1   8
HETATM    8  C2  UNL     1      26.929  20.854  14.662  1.00  0.00     0.064 C
HETATM    9  C1  UNL     1      25.835  20.781  13.930  1.00  0.00     0.017 C
ENDBRANCH   1   8
TORSDOF 2
ENDMDL