MODEL 4
REMARK VINA RESULT: -4.676916931      3.077      3.850
REMARK  3 active torsions:
REMARK  status: ('A' for Active; 'I' for Inactive)
REMARK    1  A    between atoms: C2_2  and  C3_3
REMARK    2  A    between atoms: C3_3  and  N1_4
REMARK    3  A    between atoms: C3_3  and  C4_8
ROOT
HETATM    1  C3  UNL     1      26.881  18.977  14.553  1.00  0.00     0.255 C
ENDROOT
BRANCH   1   2
HETATM    2  C2  UNL     1      26.578  20.446  14.467  1.00  0.00     0.002 C
HETATM    3  C1  UNL     1      25.433  20.865  13.961  1.00  0.00     0.009 C
ENDBRANCH   1   2
BRANCH   1   4
HETATM    4  N1  UNL     1      25.686  18.193  14.517  1.00  0.00    -0.066 N
ATOM      5  H13 UNL     1      25.645  17.539  15.299  1.00  0.00     0.275 HD
ATOM      6  H12 UNL     1      24.864  18.755  14.738  1.00  0.00     0.275 HD
ATOM      7  H11 UNL     1      25.581  17.713  13.623  1.00  0.00     0.275 HD
ENDBRANCH   1   4
BRANCH   1   8
HETATM    8  C4  UNL     1      27.839  18.614  13.466  1.00  0.00     0.044 A
HETATM    9  C5  UNL     1      28.335  19.156  12.373  1.00  0.00     0.044 A
HETATM   10  C6  UNL     1      29.122  17.961  12.131  1.00  0.00     0.090 A
HETATM   11  N2  UNL     1      28.619  17.461  13.202  1.00  0.00    -0.367 N
ATOM     12  H2  UNL     1      28.737  16.569  13.681  1.00  0.00     0.165 HD
ENDBRANCH   1   8
TORSDOF 3
ENDMDL