MODEL 1
REMARK VINA RESULT: -4.867957915      0.000      0.000
REMARK  2 active torsions:
REMARK  status: ('A' for Active; 'I' for Inactive)
REMARK    1  A    between atoms: C1_2  and  C2_3
REMARK       I    between atoms: C2_3  and  N1_5
REMARK    2  A    between atoms: N1_5  and  C3_7
ROOT
HETATM    1  C2  UNL     1      28.548  17.991  13.061  1.00  0.00     0.279 C
HETATM    2  O2  UNL     1      28.372  17.199  14.012  1.00  0.00    -0.265 OA
HETATM    3  N1  UNL     1      27.819  19.192  13.018  1.00  0.00    -0.350 N
ATOM      4  H1  UNL     1      27.980  19.820  12.231  1.00  0.00     0.163 HD
ENDROOT
BRANCH   3   5
HETATM    5  C3  UNL     1      26.855  19.591  14.020  1.00  0.00     0.085 A
HETATM    6  C4  UNL     1      26.768  20.980  14.496  1.00  0.00     0.027 A
HETATM    7  C5  UNL     1      25.754  20.489  13.472  1.00  0.00     0.027 A
ENDBRANCH   3   5
BRANCH   1   8
HETATM    8  C1  UNL     1      29.491  17.685  12.005  1.00  0.00     0.332 C
HETATM    9  O1  UNL     1      29.996  16.543  11.849  1.00  0.00    -0.297 OA
ENDBRANCH   1   8
TORSDOF 2
ENDMDL