MODEL 5
REMARK VINA RESULT: -5.277801648      5.625      6.414
REMARK  1 active torsions:
REMARK  status: ('A' for Active; 'I' for Inactive)
REMARK    1  A    between atoms: N2_4  and  N3_6
ROOT
HETATM    1  N3  UNL     1      31.880  24.186  17.087  1.00  0.00    -0.272 N
ATOM      2  H3  UNL     1      31.888  25.172  16.823  1.00  0.00     0.190 HD
HETATM    3  C1  UNL     1      31.199  23.353  16.356  1.00  0.00     0.116 A
HETATM    4  C2  UNL     1      30.430  23.674  15.177  1.00  0.00     0.047 A
HETATM    5  C3  UNL     1      29.872  22.592  14.689  1.00  0.00    -0.004 A
HETATM    6  C4  UNL     1      30.240  21.449  15.528  1.00  0.00     0.148 A
HETATM    7  N4  UNL     1      31.075  21.966  16.566  1.00  0.00    -0.372 N
ATOM      8  H4  UNL     1      31.503  21.429  17.320  1.00  0.00     0.161 HD
ENDROOT
BRANCH   1   9
HETATM    9  N2  UNL     1      32.589  23.799  18.200  1.00  0.00    -0.248 N
HETATM   10  N1  UNL     1      33.819  24.066  18.395  1.00  0.00    -0.331 N
ATOM     11  H12 UNL     1      34.293  24.603  17.670  1.00  0.00     0.178 HD
ATOM     12  H11 UNL     1      34.345  23.778  19.221  1.00  0.00     0.178 HD
ATOM     13  H2  UNL     1      32.098  23.262  18.915  1.00  0.00     0.207 HD
ENDBRANCH   1   9
TORSDOF 1
ENDMDL