MODEL 4
REMARK VINA RESULT: -5.050896567      1.399      1.743
REMARK  5 active torsions:
REMARK  status: ('A' for Active; 'I' for Inactive)
REMARK    1  A    between atoms: C2_2  and  C3_3
REMARK    2  A    between atoms: C3_3  and  C4_4
REMARK    3  A    between atoms: C4_4  and  C5_5
REMARK    4  A    between atoms: C5_5  and  N2_7
REMARK    5  A    between atoms: N2_7  and  N3_8
ROOT
HETATM    1  C5  UNL     1      27.081  18.267  16.275  1.00  0.00     0.212 C
HETATM    2  N1  UNL     1      27.734  17.499  15.292  1.00  0.00    -0.065 NA
ENDROOT
BRANCH   1   3
HETATM    3  C4  UNL     1      25.743  18.761  16.060  1.00  0.00     0.062 C
BRANCH   3   4
HETATM    4  C3  UNL     1      25.344  19.094  14.840  1.00  0.00     0.004 C
BRANCH   4   5
HETATM    5  C2  UNL     1      25.485  20.416  14.290  1.00  0.00    -0.010 C
HETATM    6  C1  UNL     1      26.645  21.035  14.290  1.00  0.00     0.011 C
ENDBRANCH   4   5
ENDBRANCH   3   4
ENDBRANCH   1   3
BRANCH   1   7
HETATM    7  N2  UNL     1      27.663  18.521  17.338  1.00  0.00    -0.318 NA
BRANCH   7   8
HETATM    8  N3  UNL     1      28.255  18.769  18.413  1.00  0.00    -0.279 N
ATOM      9  H32 UNL     1      27.763  18.935  17.536  1.00  0.00     0.191 HD
ATOM     10  H31 UNL     1      28.737  18.963  19.290  1.00  0.00     0.191 HD
ENDBRANCH   7   8
ENDBRANCH   1   7
TORSDOF 5
ENDMDL