MODEL 5
REMARK VINA RESULT: -4.426070860      1.235      3.348
REMARK  3 active torsions:
REMARK  status: ('A' for Active; 'I' for Inactive)
REMARK    1  A    between atoms: C2_2  and  C3_3
REMARK    2  A    between atoms: C3_3  and  N1_4
REMARK    3  A    between atoms: C3_3  and  N2_8
ROOT
HETATM    1  C3  UNL     1      26.903  19.060  14.523  1.00  0.00     0.439 C
ENDROOT
BRANCH   1   2
HETATM    2  C2  UNL     1      26.421  20.159  13.657  1.00  0.00     0.027 C
HETATM    3  C1  UNL     1      25.361  20.873  13.896  1.00  0.00     0.011 C
ENDBRANCH   1   2
BRANCH   1   4
HETATM    4  N1  UNL     1      25.963  17.982  14.431  1.00  0.00    -0.044 N
ATOM      5  H13 UNL     1      25.301  17.968  15.207  1.00  0.00     0.277 HD
ATOM      6  H12 UNL     1      25.288  18.110  13.678  1.00  0.00     0.277 HD
ATOM      7  H11 UNL     1      26.490  17.112  14.347  1.00  0.00     0.277 HD
ENDBRANCH   1   4
BRANCH   1   8
HETATM    8  N2  UNL     1      27.118  19.559  15.832  1.00  0.00     0.123 N
HETATM    9  C4  UNL     1      28.314  20.357  15.977  1.00  0.00     0.277 C
HETATM   10  C5  UNL     1      28.610  19.575  17.245  1.00  0.00     0.060 C
HETATM   11  C6  UNL     1      27.436  18.661  16.890  1.00  0.00     0.277 C
ENDBRANCH   1   8
TORSDOF 3
ENDMDL