MODEL 5
REMARK VINA RESULT: -7.408790800      3.216      5.294
REMARK  8 active torsions:
REMARK  status: ('A' for Active; 'I' for Inactive)
REMARK    1  A    between atoms: C2_2  and  C3_3
REMARK    2  A    between atoms: C3_3  and  N1_4
REMARK    3  A    between atoms: N1_4  and  C5_6
REMARK    4  A    between atoms: C5_6  and  C6_7
REMARK    5  A    between atoms: C6_7  and  N2_8
REMARK    6  A    between atoms: N3_12  and  C10_13
REMARK    7  A    between atoms: C10_13  and  C11_14
REMARK    8  A    between atoms: C16_20  and  N4_21
ROOT
HETATM    1  N2  UNL     1      28.119  18.012  12.379  1.00  0.00     0.098 N
HETATM    2  C7  UNL     1      29.327  17.537  11.805  1.00  0.00     0.285 C
HETATM    3  C8  UNL     1      30.376  18.638  12.040  1.00  0.00     0.079 C
HETATM    4  C9  UNL     1      30.705  19.369  10.814  1.00  0.00     0.071 C
HETATM    5  N3  UNL     1      30.234  20.632  10.541  1.00  0.00    -0.371 N
HETATM    6  C13 UNL     1      29.023  21.148  11.009  1.00  0.00     0.065 C
HETATM    7  C14 UNL     1      27.999  20.147  11.455  1.00  0.00     0.082 C
HETATM    8  C15 UNL     1      28.297  19.416  12.708  1.00  0.00     0.252 C
HETATM    9  C16 UNL     1      29.734  19.392  13.147  1.00  0.00     0.143 C
ENDROOT
BRANCH   1  10
HETATM   10  C6  UNL     1      27.443  17.228  13.326  1.00  0.00     0.303 C
BRANCH  10  11
HETATM   11  C5  UNL     1      26.798  18.172  14.340  1.00  0.00     0.302 C
BRANCH  11  12
HETATM   12  N1  UNL     1      27.404  18.029  15.648  1.00  0.00     0.085 N
HETATM   13  C4  UNL     1      26.513  17.342  16.567  1.00  0.00     0.309 C
BRANCH  12  14
HETATM   14  C3  UNL     1      27.889  19.266  16.179  1.00  0.00     0.271 C
BRANCH  14  15
HETATM   15  C2  UNL     1      28.324  19.034  17.611  1.00  0.00     0.026 C
HETATM   16  C1  UNL     1      29.603  19.795  17.907  1.00  0.00     0.007 C
ENDBRANCH  14  15
ENDBRANCH  12  14
ENDBRANCH  11  12
ENDBRANCH  10  11
ENDBRANCH   1  10
BRANCH   9  17
HETATM   17  N4  UNL     1      30.308  20.580  13.562  1.00  0.00    -0.335 N
HETATM   18  N5  UNL     1      30.794  20.829  14.670  1.00  0.00    -0.349 N
ATOM     19  H52 UNL     1      30.761  20.062  15.341  1.00  0.00     0.176 HD
ATOM     20  H51 UNL     1      31.217  21.706  14.976  1.00  0.00     0.176 HD
ATOM     21  H4  UNL     1      30.331  21.336  12.877  1.00  0.00     0.180 HD
ENDBRANCH   9  17
BRANCH   5  22
HETATM   22  C10 UNL     1      30.404  20.962   9.142  1.00  0.00     0.161 C
BRANCH  22  23
HETATM   23  C11 UNL     1      31.794  21.051   8.649  1.00  0.00     0.163 A
HETATM   24  C12 UNL     1      31.959  21.447   7.206  1.00  0.00     0.201 A
HETATM   25  O1  UNL     1      31.894  20.089   7.491  1.00  0.00    -0.380 OA
ENDBRANCH  22  23
ENDBRANCH   5  22
TORSDOF 8
ENDMDL