MODEL 2
REMARK VINA RESULT: -7.555374971      1.320      1.368
REMARK  9 active torsions:
REMARK  status: ('A' for Active; 'I' for Inactive)
REMARK    1  A    between atoms: C3_3  and  N1_4
REMARK    2  A    between atoms: N1_4  and  C4_5
REMARK    3  A    between atoms: N1_4  and  C7_8
REMARK    4  A    between atoms: C7_8  and  C8_9
REMARK    5  A    between atoms: C8_9  and  C9_10
REMARK    6  A    between atoms: C9_10  and  N2_11
REMARK    7  A    between atoms: N3_15  and  C12_16
REMARK    8  A    between atoms: C12_16  and  C13_17
REMARK    9  A    between atoms: C13_17  and  C14_18
ROOT
HETATM    1  C1  UNL     1      29.258  15.717  11.176  1.00  0.00     0.013 C
HETATM    2  C2  UNL     1      29.520  16.823  11.544  1.00  0.00    -0.087 C
HETATM    3  C3  UNL     1      29.825  18.156  11.966  1.00  0.00     0.366 C
ENDROOT
BRANCH   3   4
HETATM    4  N1  UNL     1      29.118  19.189  11.148  1.00  0.00     0.109 N
BRANCH   4   5
HETATM    5  C4  UNL     1      29.593  20.491  11.546  1.00  0.00     0.353 C
HETATM    6  C5  UNL     1      29.965  21.273  10.386  1.00  0.00    -0.158 C
HETATM    7  C6  UNL     1      30.318  21.947   9.419  1.00  0.00     0.098 C
ENDBRANCH   4   5
BRANCH   4   8
HETATM    8  C7  UNL     1      27.725  18.933  11.603  1.00  0.00     0.279 C
BRANCH   8   9
HETATM    9  C8  UNL     1      26.800  20.057  11.531  1.00  0.00     0.075 C
BRANCH   9  10
HETATM   10  C9  UNL     1      25.668  19.929  12.513  1.00  0.00     0.067 C
BRANCH  10  11
HETATM   11  N2  UNL     1      25.871  20.149  13.868  1.00  0.00    -0.348 N
HETATM   12  C10 UNL     1      25.741  19.136  14.823  1.00  0.00     0.166 C
HETATM   13  C11 UNL     1      27.172  18.919  15.280  1.00  0.00     0.260 C
HETATM   14  O1  UNL     1      27.636  17.869  15.843  1.00  0.00    -0.267 OA
HETATM   15  N3  UNL     1      27.880  20.098  14.959  1.00  0.00    -0.331 N
HETATM   16  C16 UNL     1      27.027  20.951  14.193  1.00  0.00     0.256 C
BRANCH  15  17
HETATM   17  C12 UNL     1      29.254  20.369  15.350  1.00  0.00     0.129 C
BRANCH  17  18
HETATM   18  C13 UNL     1      29.630  21.786  15.041  1.00  0.00     0.034 C
BRANCH  18  19
HETATM   19  C14 UNL     1      30.656  22.337  16.001  1.00  0.00     0.125 C
HETATM   20  C15 UNL     1      31.720  22.944  15.186  1.00  0.00     0.059 C
HETATM   21  N4  UNL     1      32.569  23.431  14.552  1.00  0.00    -0.197 NA
ENDBRANCH  18  19
ENDBRANCH  17  18
ENDBRANCH  15  17
ENDBRANCH  10  11
ENDBRANCH   9  10
ENDBRANCH   8   9
ENDBRANCH   4   8
ENDBRANCH   3   4
TORSDOF 9
ENDMDL