MODEL 4
REMARK VINA RESULT: -7.588540378      1.106      1.395
REMARK  8 active torsions:
REMARK  status: ('A' for Active; 'I' for Inactive)
REMARK    1  A    between atoms: C2_2  and  C3_3
REMARK    2  A    between atoms: C3_3  and  C4_4
REMARK    3  A    between atoms: C4_4  and  C5_5
REMARK    4  A    between atoms: C4_4  and  C10_14
REMARK    5  A    between atoms: N2_10  and  C8_11
REMARK    6  A    between atoms: C8_11  and  C9_12
REMARK    7  A    between atoms: C10_14  and  C11_15
REMARK    8  A    between atoms: C11_15  and  N3_16
ROOT
HETATM    1  C4  UNL     1      28.655  21.398  12.456  1.00  0.00     0.033 C
ENDROOT
BRANCH   1   2
HETATM    2  C3  UNL     1      27.731  20.286  12.817  1.00  0.00     0.036 C
BRANCH   2   3
HETATM    3  C2  UNL     1      26.642  20.777  13.673  1.00  0.00    -0.036 C
HETATM    4  C1  UNL     1      25.432  20.249  13.655  1.00  0.00     0.007 C
ENDBRANCH   2   3
ENDBRANCH   1   2
BRANCH   1   5
HETATM    5  C5  UNL     1      29.593  21.740  13.560  1.00  0.00     0.121 C
HETATM    6  N1  UNL     1      29.480  22.848  14.227  1.00  0.00    -0.178 N
HETATM    7  O1  UNL     1      28.499  23.792  13.981  1.00  0.00    -0.257 OA
HETATM    8  N2  UNL     1      30.279  23.293  15.269  1.00  0.00    -0.294 N
HETATM    9  C6  UNL     1      28.842  24.995  14.604  1.00  0.00     0.225 C
HETATM   10  C7  UNL     1      29.882  24.642  15.615  1.00  0.00     0.174 C
BRANCH   8  11
HETATM   11  C8  UNL     1      31.331  22.488  15.871  1.00  0.00     0.214 C
BRANCH  11  12
HETATM   12  C9  UNL     1      32.676  23.050  15.614  1.00  0.00     0.252 C
HETATM   13  O2  UNL     1      32.981  23.520  14.543  1.00  0.00    -0.305 OA
ENDBRANCH  11  12
ENDBRANCH   8  11
ENDBRANCH   1   5
BRANCH   1  14
HETATM   14  C10 UNL     1      29.397  21.150  11.161  1.00  0.00     0.030 C
BRANCH  14  15
HETATM   15  C11 UNL     1      29.915  22.442  10.567  1.00  0.00     0.126 C
BRANCH  15  16
HETATM   16  N3  UNL     1      31.041  22.201   9.695  1.00  0.00    -0.352 N
HETATM   17  C12 UNL     1      31.085  21.237   8.602  1.00  0.00     0.126 C
HETATM   18  C13 UNL     1      32.065  21.869   7.638  1.00  0.00     0.029 C
HETATM   19  C14 UNL     1      33.049  22.623   8.515  1.00  0.00     0.104 C
HETATM   20  C15 UNL     1      32.293  22.871   9.764  1.00  0.00     0.219 C
HETATM   21  O3  UNL     1      32.713  23.569  10.722  1.00  0.00    -0.273 OA
ENDBRANCH  15  16
ENDBRANCH  14  15
ENDBRANCH   1  14
TORSDOF 8
ENDMDL