MODEL 4
REMARK VINA RESULT: -7.003593477      3.398      5.578
REMARK  9 active torsions:
REMARK  status: ('A' for Active; 'I' for Inactive)
REMARK    1  A    between atoms: S1_2  and  C2_3
REMARK    2  A    between atoms: C2_3  and  C3_4
REMARK    3  A    between atoms: C3_4  and  N1_5
REMARK    4  A    between atoms: N3_8  and  C4_9
REMARK    5  A    between atoms: C4_9  and  C5_10
REMARK    6  A    between atoms: C5_10  and  C6_11
REMARK    7  A    between atoms: C6_11  and  C7_12
REMARK    8  A    between atoms: C7_12  and  C8_13
REMARK    9  A    between atoms: C8_13  and  N4_14
ROOT
HETATM    1  C4  UNL     1      28.780  19.627  11.512  1.00  0.00     0.150 C
ENDROOT
BRANCH   1   2
HETATM    2  N3  UNL     1      29.671  20.504  10.770  1.00  0.00    -0.288 N
HETATM    3  N2  UNL     1      30.870  20.075  10.136  1.00  0.00    -0.239 N
HETATM    4  N1  UNL     1      31.457  21.041   9.568  1.00  0.00    -0.287 N
ATOM      5  H2  UNL     1      31.212  19.114  10.139  1.00  0.00     0.208 HD
HETATM    6  C14 UNL     1      30.669  22.192   9.793  1.00  0.00     0.130 A
HETATM    7  C13 UNL     1      29.592  21.885  10.515  1.00  0.00     0.130 A
BRANCH   4   8
HETATM    8  C3  UNL     1      32.714  20.918   8.829  1.00  0.00     0.160 C
BRANCH   8   9
HETATM    9  C2  UNL     1      32.504  20.178   7.557  1.00  0.00     0.095 C
BRANCH   9  10
HETATM   10  S1  UNL     1      32.118  21.275   6.201  1.00  0.00    -0.172 SA
HETATM   11  C1  UNL     1      33.610  21.977   5.450  1.00  0.00     0.089 C
ENDBRANCH   9  10
ENDBRANCH   8   9
ENDBRANCH   4   8
ENDBRANCH   1   2
BRANCH   1  12
HETATM   12  C5  UNL     1      27.361  20.049  11.490  1.00  0.00     0.022 C
BRANCH  12  13
HETATM   13  C6  UNL     1      26.565  19.722  12.690  1.00  0.00     0.003 C
BRANCH  13  14
HETATM   14  C7  UNL     1      26.623  20.765  13.777  1.00  0.00     0.020 C
BRANCH  14  15
HETATM   15  C8  UNL     1      27.752  20.468  14.736  1.00  0.00     0.129 C
BRANCH  15  16
HETATM   16  N4  UNL     1      28.845  21.381  14.671  1.00  0.00    -0.353 N
HETATM   17  C9  UNL     1      28.721  22.633  14.177  1.00  0.00     0.093 A
HETATM   18  C10 UNL     1      29.809  23.477  14.134  1.00  0.00     0.034 A
HETATM   19  C11 UNL     1      31.029  23.054  14.590  1.00  0.00     0.090 A
HETATM   20  N5  UNL     1      31.123  21.799  15.079  1.00  0.00    -0.362 N
HETATM   21  C12 UNL     1      30.049  20.985  15.114  1.00  0.00     0.182 A
ATOM     22  H5  UNL     1      32.020  21.462  15.426  1.00  0.00     0.165 HD
ENDBRANCH  15  16
ENDBRANCH  14  15
ENDBRANCH  13  14
ENDBRANCH  12  13
ENDBRANCH   1  12
TORSDOF 9
ENDMDL