MODEL 2
REMARK VINA RESULT: -7.793794589      3.606      5.065
REMARK  9 active torsions:
REMARK  status: ('A' for Active; 'I' for Inactive)
REMARK    1  A    between atoms: C3_4  and  C4_5
REMARK    2  A    between atoms: C4_5  and  N1_6
REMARK    3  A    between atoms: N2_8  and  C6_9
REMARK    4  A    between atoms: C6_9  and  C7_10
REMARK    5  A    between atoms: C7_10  and  C8_11
REMARK    6  A    between atoms: C8_11  and  C9_12
REMARK    7  A    between atoms: C9_12  and  C10_13
REMARK    8  A    between atoms: C10_13  and  C11_14
REMARK    9  A    between atoms: C11_14  and  N3_15
ROOT
HETATM    1  C7  UNL     1      29.299  19.296  12.205  1.00  0.00     0.022 C
ENDROOT
BRANCH   1   2
HETATM    2  C6  UNL     1      30.397  18.882  11.269  1.00  0.00     0.159 C
BRANCH   2   3
HETATM    3  N2  UNL     1      30.801  19.906  10.361  1.00  0.00    -0.227 N
HETATM    4  C5  UNL     1      30.312  21.018   9.805  1.00  0.00     0.238 A
HETATM    5  N1  UNL     1      31.466  21.162   9.174  1.00  0.00    -0.226 N
HETATM    6  O2  UNL     1      31.905  20.097   9.721  1.00  0.00    -0.150 OA
BRANCH   5   7
HETATM    7  C4  UNL     1      32.107  22.080   8.234  1.00  0.00     0.172 C
BRANCH   7   8
HETATM    8  C3  UNL     1      31.924  21.484   6.857  1.00  0.00     0.083 A
HETATM    9  C1  UNL     1      32.894  20.425   6.423  1.00  0.00     0.134 A
HETATM   10  O1  UNL     1      33.381  19.323   6.418  1.00  0.00    -0.297 OA
HETATM   11  C2  UNL     1      32.962  21.812   5.848  1.00  0.00     0.092 A
ENDBRANCH   7   8
ENDBRANCH   5   7
ENDBRANCH   2   3
ENDBRANCH   1   2
BRANCH   1  12
HETATM   12  C8  UNL     1      27.939  18.905  11.758  1.00  0.00     0.002 C
BRANCH  12  13
HETATM   13  C9  UNL     1      26.984  20.046  11.587  1.00  0.00     0.002 C
BRANCH  13  14
HETATM   14  C10 UNL     1      25.691  19.904  12.285  1.00  0.00     0.020 C
BRANCH  14  15
HETATM   15  C11 UNL     1      25.855  20.473  13.693  1.00  0.00     0.129 C
BRANCH  15  16
HETATM   16  N3  UNL     1      26.123  19.439  14.663  1.00  0.00    -0.353 N
HETATM   17  C12 UNL     1      27.294  19.497  15.350  1.00  0.00     0.093 A
HETATM   18  C13 UNL     1      27.587  18.521  16.290  1.00  0.00     0.034 A
HETATM   19  C14 UNL     1      26.679  17.511  16.505  1.00  0.00     0.090 A
HETATM   20  N4  UNL     1      25.543  17.485  15.815  1.00  0.00    -0.362 N
HETATM   21  C15 UNL     1      25.267  18.444  14.898  1.00  0.00     0.182 A
ATOM     22  H4  UNL     1      24.871  16.735  15.978  1.00  0.00     0.165 HD
ENDBRANCH  15  16
ENDBRANCH  14  15
ENDBRANCH  13  14
ENDBRANCH  12  13
ENDBRANCH   1  12
TORSDOF 9
ENDMDL