MODEL 1
REMARK VINA RESULT: -7.773218031      0.000      0.000
REMARK  10 active torsions:
REMARK  status: ('A' for Active; 'I' for Inactive)
REMARK    1  A    between atoms: C2_3  and  N2_4
REMARK    2  A    between atoms: N2_4  and  C3_5
REMARK    3  A    between atoms: N2_4  and  C10_17
REMARK    4  A    between atoms: C3_5  and  C4_6
REMARK    5  A    between atoms: C4_6  and  C5_7
REMARK    6  A    between atoms: C5_7  and  C6_8
REMARK    7  A    between atoms: C6_8  and  C7_9
REMARK    8  A    between atoms: C7_9  and  N3_10
REMARK    9  A    between atoms: C10_17  and  C11_18
REMARK   10  A    between atoms: C11_18  and  N6_19
ROOT
HETATM    1  N1  UNL     1      28.145  16.849  12.110  1.00  0.00    -0.191 NA
HETATM    2  C1  UNL     1      28.544  17.942  12.315  1.00  0.00     0.105 C
HETATM    3  C2  UNL     1      29.061  19.276  12.526  1.00  0.00     0.184 C
ENDROOT
BRANCH   3   4
HETATM    4  N2  UNL     1      28.102  20.212  12.872  1.00  0.00    -0.360 N
BRANCH   4   5
HETATM    5  C3  UNL     1      26.756  20.124  12.538  1.00  0.00     0.064 C
BRANCH   5   6
HETATM    6  C4  UNL     1      25.826  20.213  13.711  1.00  0.00     0.045 C
BRANCH   6   7
HETATM    7  C5  UNL     1      25.063  18.888  13.873  1.00  0.00     0.007 C
BRANCH   7   8
HETATM    8  C6  UNL     1      25.347  18.283  15.213  1.00  0.00     0.022 C
BRANCH   8   9
HETATM    9  C7  UNL     1      26.714  17.713  15.351  1.00  0.00     0.150 C
BRANCH   9  10
HETATM   10  N3  UNL     1      27.483  18.288  16.436  1.00  0.00    -0.288 N
HETATM   11  C8  UNL     1      28.352  19.285  16.450  1.00  0.00     0.130 A
HETATM   12  C9  UNL     1      28.790  19.428  17.754  1.00  0.00     0.127 A
HETATM   13  N4  UNL     1      28.162  18.505  18.470  1.00  0.00    -0.296 N
HETATM   14  N5  UNL     1      27.372  17.815  17.678  1.00  0.00    -0.241 N
ATOM     15  H4  UNL     1      28.274  18.356  19.472  1.00  0.00     0.187 HD
ATOM     16  H5  UNL     1      26.772  17.043  17.967  1.00  0.00     0.208 HD
ENDBRANCH   9  10
ENDBRANCH   8   9
ENDBRANCH   7   8
ENDBRANCH   6   7
ENDBRANCH   5   6
ENDBRANCH   4   5
BRANCH   4  17
HETATM   17  C10 UNL     1      28.592  21.577  12.994  1.00  0.00     0.158 C
BRANCH  17  18
HETATM   18  C11 UNL     1      29.219  21.908  14.291  1.00  0.00     0.293 C
BRANCH  18  19
HETATM   19  N6  UNL     1      30.175  22.981  14.124  1.00  0.00     0.097 N
HETATM   20  C12 UNL     1      29.630  24.235  14.653  1.00  0.00     0.280 C
HETATM   21  C13 UNL     1      29.966  24.231  16.128  1.00  0.00     0.110 C
HETATM   22  C14 UNL     1      31.117  23.328  16.240  1.00  0.00     0.156 C
HETATM   23  O1  UNL     1      31.756  23.044  17.233  1.00  0.00    -0.296 OA
HETATM   24  C15 UNL     1      31.396  22.783  14.880  1.00  0.00     0.350 C
ENDBRANCH  18  19
ENDBRANCH  17  18
ENDBRANCH   4  17
ENDBRANCH   3   4
TORSDOF 10
ENDMDL