MODEL 3
REMARK VINA RESULT: -6.625852215      0.547      2.707
REMARK  8 active torsions:
REMARK  status: ('A' for Active; 'I' for Inactive)
REMARK    1  A    between atoms: C2_2  and  C3_3
REMARK    2  A    between atoms: C3_3  and  N1_4
REMARK    3  A    between atoms: N1_4  and  C4_5
REMARK    4  A    between atoms: N1_4  and  C7_8
REMARK    5  A    between atoms: C4_5  and  C5_6
REMARK    6  A    between atoms: C7_8  and  C8_9
REMARK    7  A    between atoms: C8_9  and  S1_10
REMARK    8  A    between atoms: S1_10  and  N2_13
ROOT
HETATM    1  S1  UNL     1      26.670  18.268  14.603  1.00  0.00     0.234 S
HETATM    2  O1  UNL     1      27.377  17.210  15.388  1.00  0.00    -0.205 OA
HETATM    3  O2  UNL     1      25.180  18.030  14.801  1.00  0.00    -0.205 OA
ENDROOT
BRANCH   1   4
HETATM    4  C8  UNL     1      26.996  17.978  12.878  1.00  0.00     0.194 C
BRANCH   4   5
HETATM    5  C7  UNL     1      28.367  17.354  12.806  1.00  0.00     0.290 C
BRANCH   5   6
HETATM    6  N1  UNL     1      29.096  17.644  11.589  1.00  0.00     0.096 N
BRANCH   6   7
HETATM    7  C3  UNL     1      29.810  16.410  11.217  1.00  0.00     0.299 C
BRANCH   7   8
HETATM    8  C2  UNL     1      28.861  15.355  10.857  1.00  0.00    -0.007 C
HETATM    9  C1  UNL     1      29.282  14.068  10.880  1.00  0.00     0.008 C
ENDBRANCH   7   8
ENDBRANCH   6   7
BRANCH   6  10
HETATM   10  C4  UNL     1      30.101  18.651  11.919  1.00  0.00     0.299 C
BRANCH  10  11
HETATM   11  C5  UNL     1      30.519  19.413  10.722  1.00  0.00    -0.007 C
HETATM   12  C6  UNL     1      29.996  20.605  10.505  1.00  0.00     0.008 C
ENDBRANCH  10  11
ENDBRANCH   6  10
ENDBRANCH   5   6
ENDBRANCH   4   5
ENDBRANCH   1   4
BRANCH   1  13
HETATM   13  N2  UNL     1      27.021  19.839  15.103  1.00  0.00    -0.284 N
HETATM   14  C9  UNL     1      26.890  20.859  14.139  1.00  0.00     0.119 C
HETATM   15  C10 UNL     1      28.138  21.414  13.572  1.00  0.00     0.103 C
HETATM   16  N3  UNL     1      29.312  21.272  14.332  1.00  0.00    -0.391 N
HETATM   17  C11 UNL     1      29.889  22.462  14.853  1.00  0.00     0.148 C
HETATM   18  C12 UNL     1      29.437  20.115  15.132  1.00  0.00     0.142 C
HETATM   19  C13 UNL     1      28.179  19.875  15.925  1.00  0.00     0.160 C
ENDBRANCH   1  13
TORSDOF 8
ENDMDL