MODEL 2
REMARK VINA RESULT: -7.051323429      1.966      2.398
REMARK  4 active torsions:
REMARK  status: ('A' for Active; 'I' for Inactive)
REMARK    1  A    between atoms: N1_1  and  C1_4
REMARK    2  A    between atoms: C3_10  and  N4_11
REMARK    3  A    between atoms: N4_11  and  N5_13
REMARK    4  A    between atoms: N5_13  and  N6_14
ROOT
HETATM    1  C1  UNL     1      -8.826  -1.180 125.749  1.00  0.00     0.225 A
HETATM    2  N2  UNL     1      -9.932  -0.835 126.431  1.00  0.00    -0.305 N
ATOM      3  H2  UNL     1     -10.285   0.118 126.524  1.00  0.00     0.171 HD
HETATM    4  C2  UNL     1     -10.508  -1.924 126.975  1.00  0.00     0.162 A
HETATM    5  N3  UNL     1     -11.588  -2.142 127.725  1.00  0.00    -0.320 N
ATOM      6  H3  UNL     1     -12.160  -1.337 127.982  1.00  0.00     0.169 HD
HETATM    7  C3  UNL     1     -11.971  -3.343 128.162  1.00  0.00     0.189 A
HETATM    8  C4  UNL     1     -11.137  -4.401 127.774  1.00  0.00     0.292 A
HETATM    9  O1  UNL     1     -11.481  -5.544 128.178  1.00  0.00    -0.264 OA
HETATM   10  N7  UNL     1     -10.046  -4.202 127.021  1.00  0.00    -0.297 N
ATOM     11  H7  UNL     1      -9.476  -5.010 126.769  1.00  0.00     0.171 HD
HETATM   12  C5  UNL     1      -9.665  -2.995 126.583  1.00  0.00     0.199 A
HETATM   13  O2  UNL     1      -8.715  -2.463 125.871  1.00  0.00    -0.258 OA
ENDROOT
BRANCH   7  14
HETATM   14  N4  UNL     1     -13.134  -3.552 128.947  1.00  0.00    -0.265 N
ATOM     15  H4  UNL     1     -14.033  -3.629 128.472  1.00  0.00     0.186 HD
BRANCH  14  16
HETATM   16  N5  UNL     1     -13.105  -3.657 130.338  1.00  0.00    -0.028 NA
BRANCH  16  17
HETATM   17  N6  UNL     1     -12.897  -4.986 130.747  1.00  0.00    -0.329 N
ATOM     18  H62 UNL     1     -13.551  -5.744 130.550  1.00  0.00     0.174 HD
ATOM     19  H61 UNL     1     -12.019  -5.085 131.258  1.00  0.00     0.174 HD
ENDBRANCH  16  17
ENDBRANCH  14  16
ENDBRANCH   7  14
BRANCH   1  20
HETATM   20  N1  UNL     1      -8.027  -0.365 125.097  1.00  0.00    -0.365 N
ATOM     21  H12 UNL     1      -8.158   0.633 124.930  1.00  0.00     0.159 HD
ATOM     22  H11 UNL     1      -7.144  -0.612 124.653  1.00  0.00     0.159 HD
ENDBRANCH   1  20
TORSDOF 4
ENDMDL