MODEL 5
REMARK VINA RESULT: -6.750543390      1.534      1.650
REMARK  5 active torsions:
REMARK  status: ('A' for Active; 'I' for Inactive)
REMARK    1  A    between atoms: N1_1  and  C1_4
REMARK    2  A    between atoms: C3_11  and  N4_12
REMARK    3  A    between atoms: N4_12  and  C4_14
REMARK    4  A    between atoms: C4_14  and  N5_15
REMARK    5  A    between atoms: N5_15  and  N6_16
ROOT
HETATM    1  C1  UNL     1     -10.243  -1.400 126.657  1.00  0.00     0.195 A
HETATM    2  O1  UNL     1     -10.964  -0.398 126.255  1.00  0.00    -0.216 OA
HETATM    3  N2  UNL     1     -12.113  -0.389 126.868  1.00  0.00    -0.240 N
ATOM      4  H2  UNL     1     -12.854   0.297 126.726  1.00  0.00     0.196 HD
HETATM    5  C2  UNL     1     -12.164  -1.425 127.715  1.00  0.00     0.173 A
HETATM    6  N3  UNL     1     -12.932  -2.066 128.636  1.00  0.00    -0.173 N
ATOM      7  H3  UNL     1     -13.871  -1.795 128.928  1.00  0.00     0.186 HD
HETATM    8  C3  UNL     1     -12.241  -3.109 129.089  1.00  0.00     0.681 A
HETATM    9  N7  UNL     1     -11.053  -3.134 128.465  1.00  0.00    -0.184 N
ATOM     10  H7  UNL     1     -10.321  -3.828 128.619  1.00  0.00     0.184 HD
HETATM   11  C5  UNL     1     -10.974  -2.091 127.598  1.00  0.00     0.148 A
ENDROOT
BRANCH   8  12
HETATM   12  N4  UNL     1     -12.731  -4.027 130.078  1.00  0.00    -0.211 N
ATOM     13  H4  UNL     1     -12.968  -3.678 131.007  1.00  0.00     0.179 HD
BRANCH  12  14
HETATM   14  C4  UNL     1     -12.896  -5.434 129.790  1.00  0.00     0.273 C
BRANCH  14  15
HETATM   15  N5  UNL     1     -11.638  -5.977 129.314  1.00  0.00    -0.128 NA
BRANCH  15  16
HETATM   16  N6  UNL     1     -10.964  -6.584 130.372  1.00  0.00    -0.347 N
ATOM     17  H62 UNL     1     -11.419  -6.977 131.197  1.00  0.00     0.172 HD
ATOM     18  H61 UNL     1      -9.961  -6.571 130.188  1.00  0.00     0.172 HD
ENDBRANCH  15  16
ENDBRANCH  14  15
ENDBRANCH  12  14
ENDBRANCH   8  12
BRANCH   1  19
HETATM   19  N1  UNL     1      -9.067  -1.700 126.259  1.00  0.00    -0.376 N
ATOM     20  H12 UNL     1      -8.220  -1.665 126.825  1.00  0.00     0.158 HD
ATOM     21  H11 UNL     1      -8.804  -2.017 125.326  1.00  0.00     0.158 HD
ENDBRANCH   1  19
TORSDOF 5
ENDMDL