MODEL 3
REMARK VINA RESULT: -7.372154269      0.650      1.175
REMARK  2 active torsions:
REMARK  status: ('A' for Active; 'I' for Inactive)
REMARK       I    between atoms: N1_1  and  C1_5
REMARK       I    between atoms: C1_5  and  N2_6
REMARK       I    between atoms: C1_5  and  N3_10
REMARK    1  A    between atoms: N3_10  and  C2_12
REMARK    2  A    between atoms: C2_12  and  C3_13
ROOT
HETATM    1  C3  UNL     1     -11.119  -1.536 126.955  1.00  0.00     0.074 A
HETATM    2  N4  UNL     1     -11.815  -0.750 126.109  1.00  0.00    -0.299 N
ATOM      3  H4  UNL     1     -12.691  -0.281 126.337  1.00  0.00     0.186 HD
HETATM    4  N5  UNL     1     -11.199  -0.674 124.938  1.00  0.00    -0.282 N
ATOM      5  H5  UNL     1     -11.534  -0.139 124.137  1.00  0.00     0.188 HD
HETATM    6  C4  UNL     1     -10.062  -1.411 124.959  1.00  0.00     0.163 A
HETATM    7  C5  UNL     1     -10.016  -1.948 126.224  1.00  0.00     0.118 A
HETATM    8  N6  UNL     1      -8.819  -2.730 126.258  1.00  0.00    -0.279 N
ATOM      9  H6  UNL     1      -8.320  -3.039 127.093  1.00  0.00     0.184 HD
HETATM   10  N7  UNL     1      -8.455  -2.995 124.913  1.00  0.00    -0.020 NA
HETATM   11  N8  UNL     1      -8.919  -1.855 124.249  1.00  0.00    -0.266 N
ATOM     12  H8  UNL     1      -8.514  -1.427 123.416  1.00  0.00     0.186 HD
ENDROOT
BRANCH   1  13
HETATM   13  C2  UNL     1     -11.422  -1.907 128.363  1.00  0.00     0.179 C
BRANCH  13  14
HETATM   14  N3  UNL     1     -11.631  -3.311 128.428  1.00  0.00    -0.369 N
HETATM   15  C1  UNL     1     -12.963  -3.716 128.753  1.00  0.00     0.476 C
HETATM   16  N1  UNL     1     -13.971  -3.288 127.849  1.00  0.00    -0.033 N
HETATM   17  N2  UNL     1     -13.232  -3.293 130.135  1.00  0.00    -0.033 N
ATOM     18  H13 UNL     1     -14.893  -3.596 128.155  1.00  0.00     0.278 HD
ATOM     19  H12 UNL     1     -14.109  -2.279 127.905  1.00  0.00     0.278 HD
ATOM     20  H11 UNL     1     -13.783  -3.582 126.890  1.00  0.00     0.278 HD
ATOM     21  H23 UNL     1     -13.371  -2.283 130.190  1.00  0.00     0.278 HD
ATOM     22  H22 UNL     1     -14.155  -3.601 130.441  1.00  0.00     0.278 HD
ATOM     23  H21 UNL     1     -12.508  -3.601 130.784  1.00  0.00     0.278 HD
ATOM     24  H3  UNL     1     -10.884  -3.984 128.257  1.00  0.00     0.157 HD
ENDBRANCH  13  14
ENDBRANCH   1  13
TORSDOF 2
ENDMDL