MODEL 4
REMARK VINA RESULT: -6.867254257      1.833      5.224
REMARK  4 active torsions:
REMARK  status: ('A' for Active; 'I' for Inactive)
REMARK    1  A    between atoms: N1_1  and  C1_4
REMARK    2  A    between atoms: C2_7  and  N3_8
REMARK    3  A    between atoms: N3_8  and  N4_10
REMARK    4  A    between atoms: N4_10  and  N5_12
ROOT
HETATM    1  C1  UNL     1     -13.386  -4.184 127.243  1.00  0.00     0.147 A
HETATM    2  N2  UNL     1     -13.085  -3.022 126.638  1.00  0.00    -0.173 N
ATOM      3  H2  UNL     1     -13.271  -2.898 125.643  1.00  0.00     0.186 HD
HETATM    4  C2  UNL     1     -12.536  -2.022 127.355  1.00  0.00     0.701 A
HETATM    5  N6  UNL     1     -12.294  -2.192 128.664  1.00  0.00    -0.171 N
ATOM      6  H6  UNL     1     -11.878  -1.425 129.191  1.00  0.00     0.186 HD
HETATM    7  C3  UNL     1     -12.580  -3.336 129.306  1.00  0.00     0.169 A
HETATM    8  N7  UNL     1     -12.463  -3.800 130.561  1.00  0.00    -0.268 N
ATOM      9  H7  UNL     1     -12.076  -3.264 131.339  1.00  0.00     0.190 HD
HETATM   10  N8  UNL     1     -12.911  -5.039 130.659  1.00  0.00    -0.240 N
ATOM     11  H8  UNL     1     -12.934  -5.615 131.501  1.00  0.00     0.208 HD
HETATM   12  N9  UNL     1     -13.324  -5.382 129.458  1.00  0.00    -0.279 N
ATOM     13  H9  UNL     1     -13.725  -6.289 129.223  1.00  0.00     0.189 HD
HETATM   14  C4  UNL     1     -13.148  -4.378 128.579  1.00  0.00     0.139 A
ENDROOT
BRANCH   4  15
HETATM   15  N3  UNL     1     -12.223  -0.797 126.678  1.00  0.00    -0.118 N
ATOM     16  H3  UNL     1     -12.079   0.069 127.198  1.00  0.00     0.207 HD
BRANCH  15  17
HETATM   17  N4  UNL     1     -12.126  -0.823 125.318  1.00  0.00    -0.235 N
ATOM     18  H4  UNL     1     -12.931  -1.037 124.730  1.00  0.00     0.208 HD
BRANCH  17  19
HETATM   19  N5  UNL     1     -10.901  -0.550 124.780  1.00  0.00    -0.330 N
ATOM     20  H52 UNL     1     -10.267  -1.307 124.520  1.00  0.00     0.178 HD
ATOM     21  H51 UNL     1     -10.659   0.433 124.653  1.00  0.00     0.178 HD
ENDBRANCH  17  19
ENDBRANCH  15  17
ENDBRANCH   4  15
BRANCH   1  22
HETATM   22  N1  UNL     1     -13.908  -5.116 126.532  1.00  0.00    -0.383 N
ATOM     23  H12 UNL     1     -13.384  -5.968 126.330  1.00  0.00     0.157 HD
ATOM     24  H11 UNL     1     -14.855  -4.978 126.179  1.00  0.00     0.157 HD
ENDBRANCH   1  22
TORSDOF 4
ENDMDL