MODEL 5
REMARK VINA RESULT: -6.409054046      1.219      4.818
REMARK  3 active torsions:
REMARK  status: ('A' for Active; 'I' for Inactive)
REMARK    1  A    between atoms: N1_1  and  C1_4
REMARK    2  A    between atoms: C5_14  and  C6_15
REMARK    3  A    between atoms: C6_15  and  N5_16
ROOT
HETATM    1  C1  UNL     1      -9.181  -2.187 125.638  1.00  0.00     0.130 A
HETATM    2  N2  UNL     1      -8.854  -1.678 124.405  1.00  0.00    -0.337 N
ATOM      3  H2  UNL     1      -7.997  -1.979 123.941  1.00  0.00     0.168 HD
HETATM    4  C2  UNL     1      -9.658  -0.785 123.808  1.00  0.00     0.183 A
HETATM    5  N3  UNL     1     -10.789  -0.380 124.408  1.00  0.00    -0.336 N
ATOM      6  H3  UNL     1     -11.395   0.299 123.947  1.00  0.00     0.168 HD
HETATM    7  C3  UNL     1     -11.129  -0.876 125.633  1.00  0.00     0.148 A
HETATM    8  C4  UNL     1     -10.329  -1.794 126.277  1.00  0.00     0.119 A
HETATM    9  N4  UNL     1     -10.745  -2.260 127.554  1.00  0.00    -0.363 N
ATOM     10  H4  UNL     1     -10.082  -2.623 128.239  1.00  0.00     0.161 HD
HETATM   11  C5  UNL     1     -12.167  -2.188 127.823  1.00  0.00     0.222 C
HETATM   12  N6  UNL     1     -12.528  -0.783 127.650  1.00  0.00    -0.112 NA
HETATM   13  N7  UNL     1     -12.319  -0.475 126.302  1.00  0.00    -0.285 N
ATOM     14  H7  UNL     1     -13.031   0.045 125.791  1.00  0.00     0.184 HD
ENDROOT
BRANCH  11  15
HETATM   15  C6  UNL     1     -12.529  -2.697 129.187  1.00  0.00     0.273 C
BRANCH  15  16
HETATM   16  N5  UNL     1     -12.168  -4.101 129.242  1.00  0.00    -0.076 N
ATOM     17  H53 UNL     1     -11.652  -4.346 130.086  1.00  0.00     0.274 HD
ATOM     18  H52 UNL     1     -12.972  -4.712 129.394  1.00  0.00     0.274 HD
ATOM     19  H51 UNL     1     -11.658  -4.322 128.387  1.00  0.00     0.274 HD
ENDBRANCH  15  16
ENDBRANCH  11  15
BRANCH   1  20
HETATM   20  N1  UNL     1      -8.415  -3.041 126.208  1.00  0.00    -0.383 N
ATOM     21  H12 UNL     1      -8.698  -4.020 126.231  1.00  0.00     0.157 HD
ATOM     22  H11 UNL     1      -7.536  -2.743 126.631  1.00  0.00     0.157 HD
ENDBRANCH   1  20
TORSDOF 3
ENDMDL