MODEL 1
REMARK VINA RESULT: -6.679178715      0.000      0.000
REMARK  3 active torsions:
REMARK  status: ('A' for Active; 'I' for Inactive)
REMARK    1  A    between atoms: N1_1  and  C1_4
REMARK    2  A    between atoms: C2_7  and  N3_8
REMARK       I    between atoms: N4_11  and  C3_12
REMARK       I    between atoms: C3_12  and  N5_13
REMARK       I    between atoms: C3_12  and  N6_17
REMARK    3  A    between atoms: N6_17  and  C4_20
ROOT
HETATM    1  C1  UNL     1     -12.255  -2.052 127.172  1.00  0.00     0.705 A
HETATM    2  N2  UNL     1     -11.145  -2.816 127.222  1.00  0.00    -0.020 N
ATOM      3  H2  UNL     1     -10.211  -2.528 126.933  1.00  0.00     0.203 HD
HETATM    4  C2  UNL     1     -11.486  -4.049 127.728  1.00  0.00     0.711 A
HETATM    5  N4  UNL     1     -12.821  -4.003 127.979  1.00  0.00    -0.051 N
HETATM    6  C3  UNL     1     -13.640  -5.088 128.521  1.00  0.00     0.521 C
HETATM    7  N5  UNL     1     -13.260  -5.438 129.877  1.00  0.00    -0.030 N
ATOM      8  H51 UNL     1     -13.830  -6.194 130.255  1.00  0.00     0.279 HD
ATOM      9  H52 UNL     1     -13.278  -4.621 130.488  1.00  0.00     0.279 HD
ATOM     10  H53 UNL     1     -12.266  -5.661 129.935  1.00  0.00     0.279 HD
HETATM   11  N6  UNL     1     -13.372  -6.245 127.706  1.00  0.00    -0.006 N
ATOM     12  H61 UNL     1     -13.855  -7.061 128.080  1.00  0.00     0.283 HD
ATOM     13  H62 UNL     1     -12.404  -6.544 127.823  1.00  0.00     0.283 HD
HETATM   14  N9  UNL     1     -13.253  -2.802 127.638  1.00  0.00    -0.112 N
ATOM     15  H9  UNL     1     -14.221  -2.490 127.720  1.00  0.00     0.206 HD
ENDROOT
BRANCH   4  16
HETATM   16  N3  UNL     1     -10.739  -4.980 127.914  1.00  0.00    -0.233 N
ATOM     17  H32 UNL     1     -10.717  -5.865 127.408  1.00  0.00     0.174 HD
ATOM     18  H31 UNL     1     -10.004  -5.036 128.619  1.00  0.00     0.174 HD
ENDBRANCH   4  16
BRANCH  11  19
HETATM   19  C4  UNL     1     -13.676  -6.078 126.329  1.00  0.00     0.314 C
HETATM   20  C5  UNL     1     -12.699  -6.878 125.459  1.00  0.00     0.182 C
HETATM   21  N7  UNL     1     -13.589  -7.993 125.723  1.00  0.00    -0.143 NA
HETATM   22  N8  UNL     1     -14.638  -7.039 125.819  1.00  0.00    -0.113 NA
ENDBRANCH  11  19
BRANCH   1  23
HETATM   23  N1  UNL     1     -12.324  -0.819 126.748  1.00  0.00    -0.233 N
ATOM     24  H12 UNL     1     -11.548  -0.213 126.483  1.00  0.00     0.174 HD
ATOM     25  H11 UNL     1     -13.177  -0.275 126.616  1.00  0.00     0.174 HD
ENDBRANCH   1  23
TORSDOF 3
ENDMDL