MODEL 5
REMARK VINA RESULT: -7.115287611      1.636      2.750
REMARK  4 active torsions:
REMARK  status: ('A' for Active; 'I' for Inactive)
REMARK    1  A    between atoms: N1_1  and  C1_4
REMARK    2  A    between atoms: C4_14  and  N5_15
REMARK    3  A    between atoms: N5_15  and  N6_17
REMARK    4  A    between atoms: N6_17  and  N7_18
ROOT
HETATM    1  C1  UNL     1      -9.658  -1.339 126.432  1.00  0.00     0.679 A
HETATM    2  N2  UNL     1     -10.598  -0.412 126.612  1.00  0.00    -0.175 N
ATOM      3  H2  UNL     1     -10.425   0.557 126.345  1.00  0.00     0.186 HD
HETATM    4  C2  UNL     1     -11.802  -0.778 127.162  1.00  0.00     0.146 A
HETATM    5  N3  UNL     1     -12.678   0.040 127.334  1.00  0.00    -0.383 N
ATOM      6  H31 UNL     1     -13.572  -0.232 127.742  1.00  0.00     0.157 HD
ATOM      7  H32 UNL     1     -12.530   1.015 127.076  1.00  0.00     0.157 HD
HETATM    8  C3  UNL     1     -12.005  -2.121 127.518  1.00  0.00     0.138 A
HETATM    9  N4  UNL     1     -13.031  -2.783 128.061  1.00  0.00    -0.183 N
ATOM     10  H4  UNL     1     -13.917  -2.349 128.319  1.00  0.00     0.184 HD
HETATM   11  C4  UNL     1     -12.758  -4.092 128.227  1.00  0.00     0.697 A
HETATM   12  N8  UNL     1     -11.487  -4.240 127.755  1.00  0.00    -0.172 N
ATOM     13  H8  UNL     1     -10.969  -5.119 127.732  1.00  0.00     0.186 HD
HETATM   14  C5  UNL     1     -11.014  -3.053 127.321  1.00  0.00     0.167 A
HETATM   15  N9  UNL     1      -9.868  -2.623 126.781  1.00  0.00    -0.174 N
ATOM     16  H9  UNL     1      -9.120  -3.298 126.626  1.00  0.00     0.186 HD
ENDROOT
BRANCH  11  17
HETATM   17  N5  UNL     1     -13.590  -5.115 128.769  1.00  0.00    -0.116 N
ATOM     18  H5  UNL     1     -14.542  -5.214 128.416  1.00  0.00     0.203 HD
BRANCH  17  19
HETATM   19  N6  UNL     1     -13.146  -5.989 129.770  1.00  0.00    -0.015 NA
BRANCH  19  20
HETATM   20  N7  UNL     1     -12.478  -5.267 130.787  1.00  0.00    -0.328 N
ATOM     21  H72 UNL     1     -12.953  -4.776 131.544  1.00  0.00     0.174 HD
ATOM     22  H71 UNL     1     -11.469  -5.314 130.647  1.00  0.00     0.174 HD
ENDBRANCH  19  20
ENDBRANCH  17  19
ENDBRANCH  11  17
BRANCH   1  23
HETATM   23  N1  UNL     1      -8.522  -0.959 125.900  1.00  0.00    -0.234 N
ATOM     24  H12 UNL     1      -8.255   0.025 125.877  1.00  0.00     0.174 HD
ATOM     25  H11 UNL     1      -7.915  -1.681 125.514  1.00  0.00     0.174 HD
ENDBRANCH   1  23
TORSDOF 4
ENDMDL