MODEL 4
REMARK VINA RESULT: -6.601639730      1.280      4.235
REMARK  4 active torsions:
REMARK  status: ('A' for Active; 'I' for Inactive)
REMARK    1  A    between atoms: N1_1  and  C1_4
REMARK    2  A    between atoms: C2_7  and  N3_8
REMARK    3  A    between atoms: N3_8  and  N4_10
REMARK    4  A    between atoms: N4_10  and  N5_11
ROOT
HETATM    1  C1  UNL     1     -11.831  -0.891 127.341  1.00  0.00     0.145 A
HETATM    2  N2  UNL     1     -10.717  -0.906 126.583  1.00  0.00    -0.173 N
ATOM      3  H2  UNL     1     -10.499  -0.082 126.023  1.00  0.00     0.186 HD
HETATM    4  C2  UNL     1      -9.891  -1.944 126.531  1.00  0.00     0.698 A
HETATM    5  N6  UNL     1     -10.178  -3.026 127.269  1.00  0.00    -0.173 N
ATOM      6  H6  UNL     1      -9.548  -3.827 127.237  1.00  0.00     0.186 HD
HETATM    7  C3  UNL     1     -11.280  -3.088 128.058  1.00  0.00     0.152 A
HETATM    8  N7  UNL     1     -11.813  -4.007 128.884  1.00  0.00    -0.336 N
ATOM      9  H7  UNL     1     -11.424  -4.930 129.076  1.00  0.00     0.168 HD
HETATM   10  C4  UNL     1     -12.960  -3.502 129.422  1.00  0.00     0.182 A
HETATM   11  N8  UNL     1     -13.141  -2.266 128.930  1.00  0.00    -0.346 N
ATOM     12  H8  UNL     1     -13.914  -1.637 129.147  1.00  0.00     0.167 HD
HETATM   13  C5  UNL     1     -12.109  -2.009 128.091  1.00  0.00     0.122 A
ENDROOT
BRANCH   4  14
HETATM   14  N3  UNL     1      -8.710  -1.978 125.735  1.00  0.00    -0.116 N
ATOM     15  H3  UNL     1      -7.980  -1.277 125.866  1.00  0.00     0.203 HD
BRANCH  14  16
HETATM   16  N4  UNL     1      -8.561  -2.981 124.771  1.00  0.00    -0.015 NA
BRANCH  16  17
HETATM   17  N5  UNL     1      -9.633  -2.916 123.847  1.00  0.00    -0.328 N
ATOM     18  H52 UNL     1     -10.561  -2.551 124.065  1.00  0.00     0.174 HD
ATOM     19  H51 UNL     1      -9.332  -3.285 122.945  1.00  0.00     0.174 HD
ENDBRANCH  16  17
ENDBRANCH  14  16
ENDBRANCH   4  14
BRANCH   1  20
HETATM   20  N1  UNL     1     -12.613   0.134 127.367  1.00  0.00    -0.383 N
ATOM     21  H12 UNL     1     -13.034   0.494 126.510  1.00  0.00     0.157 HD
ATOM     22  H11 UNL     1     -12.833   0.613 128.241  1.00  0.00     0.157 HD
ENDBRANCH   1  20
TORSDOF 4
ENDMDL