MODEL 4
REMARK VINA RESULT: -7.228413901      2.108      4.970
REMARK  3 active torsions:
REMARK  status: ('A' for Active; 'I' for Inactive)
REMARK    1  A    between atoms: N1_1  and  C1_4
REMARK    2  A    between atoms: C4_13  and  N6_14
REMARK    3  A    between atoms: N6_14  and  N7_16
REMARK       I    between atoms: N7_16  and  C5_18
ROOT
HETATM    1  C1  UNL     1     -12.815  -3.266 129.193  1.00  0.00     0.133 A
HETATM    2  N2  UNL     1     -13.682  -4.335 129.160  1.00  0.00    -0.315 N
ATOM      3  H2  UNL     1     -14.544  -4.296 129.703  1.00  0.00     0.170 HD
HETATM    4  C2  UNL     1     -13.418  -5.426 128.429  1.00  0.00     0.195 A
HETATM    5  N3  UNL     1     -14.343  -6.509 128.426  1.00  0.00    -0.063 NA
HETATM    6  N4  UNL     1     -12.289  -5.497 127.706  1.00  0.00    -0.317 N
ATOM      7  H4  UNL     1     -12.084  -6.324 127.146  1.00  0.00     0.169 HD
HETATM    8  C3  UNL     1     -11.431  -4.456 127.732  1.00  0.00     0.150 A
HETATM    9  N5  UNL     1     -10.272  -4.586 126.948  1.00  0.00    -0.080 NA
HETATM   10  C4  UNL     1     -11.636  -3.300 128.462  1.00  0.00     0.133 A
ENDROOT
BRANCH  10  11
HETATM   11  N6  UNL     1     -10.722  -2.216 128.481  1.00  0.00    -0.291 N
ATOM     12  H6  UNL     1     -10.538  -1.780 129.385  1.00  0.00     0.187 HD
BRANCH  11  13
HETATM   13  N7  UNL     1     -10.052  -1.693 127.376  1.00  0.00    -0.253 N
HETATM   14  C5  UNL     1     -10.715  -0.968 126.349  1.00  0.00     0.347 C
HETATM   15  N8  UNL     1      -9.998  -0.451 125.242  1.00  0.00    -0.038 NA
HETATM   16  O1  UNL     1     -11.953  -0.783 126.422  1.00  0.00    -0.249 OA
ATOM     17  H7  UNL     1      -9.045  -1.836 127.302  1.00  0.00     0.191 HD
ENDBRANCH  11  13
ENDBRANCH  10  11
BRANCH   1  18
HETATM   18  N1  UNL     1     -13.128  -2.259 129.905  1.00  0.00    -0.383 N
ATOM     19  H12 UNL     1     -13.919  -2.286 130.548  1.00  0.00     0.157 HD
ATOM     20  H11 UNL     1     -12.563  -1.414 129.821  1.00  0.00     0.157 HD
ENDBRANCH   1  18
TORSDOF 3
ENDMDL