MODEL 1
REMARK VINA RESULT: -6.595978921      0.000      0.000
REMARK  4 active torsions:
REMARK  status: ('A' for Active; 'I' for Inactive)
REMARK    1  A    between atoms: C2_2  and  S1_4
REMARK    2  A    between atoms: S1_4  and  C4_5
REMARK    3  A    between atoms: N2_9  and  C6_11
REMARK    4  A    between atoms: C6_11  and  C7_12
ROOT
HETATM    1  C4  UNL     1      46.904   9.757   0.857  1.00  0.00     0.145 A
HETATM    2  N1  UNL     1      47.334  10.571   1.849  1.00  0.00    -0.323 N
ATOM      3  H1  UNL     1      48.257  10.402   2.248  1.00  0.00     0.169 HD
HETATM    4  C5  UNL     1      46.607  11.584   2.330  1.00  0.00     0.104 A
HETATM    5  N2  UNL     1      47.095  12.312   3.279  1.00  0.00    -0.376 N
ATOM      6  H2  UNL     1      48.025  12.086   3.632  1.00  0.00     0.161 HD
HETATM    7  C12 UNL     1      45.367  11.796   1.783  1.00  0.00     0.065 A
HETATM    8  C13 UNL     1      44.910  10.972   0.764  1.00  0.00     0.094 A
HETATM    9  N4  UNL     1      45.704   9.991   0.352  1.00  0.00    -0.347 N
ATOM     10  H4  UNL     1      45.370   9.383  -0.396  1.00  0.00     0.167 HD
ENDROOT
BRANCH   5  11
HETATM   11  C6  UNL     1      46.395  13.426   3.867  1.00  0.00     0.128 C
BRANCH  11  12
HETATM   12  C7  UNL     1      46.856  14.750   3.291  1.00  0.00     0.041 C
HETATM   13  C8  UNL     1      45.697  15.599   2.872  1.00  0.00     0.036 C
HETATM   14  C9  UNL     1      46.025  17.089   2.978  1.00  0.00     0.233 C
HETATM   15  N3  UNL     1      46.285  17.446   4.359  1.00  0.00    -0.072 N
HETATM   16  C10 UNL     1      46.639  16.299   5.161  1.00  0.00     0.269 C
ATOM     17  H32 UNL     1      46.995  18.176   4.424  1.00  0.00     0.277 HD
ATOM     18  H31 UNL     1      45.497  17.951   4.764  1.00  0.00     0.277 HD
HETATM   19  C11 UNL     1      47.641  15.479   4.373  1.00  0.00     0.201 C
HETATM   20  F1  UNL     1      48.572  16.283   3.757  1.00  0.00    -0.247 F
ENDBRANCH  11  12
ENDBRANCH   5  11
BRANCH   1  21
HETATM   21  S1  UNL     1      48.011   8.473   0.350  1.00  0.00    -0.090 SA
BRANCH  21  22
HETATM   22  C2  UNL     1      49.154   7.960   1.631  1.00  0.00     0.047 C
HETATM   23  C1  UNL     1      50.296   7.124   1.082  1.00  0.00     0.021 C
HETATM   24  C3  UNL     1      48.469   7.264   2.792  1.00  0.00     0.021 C
ENDBRANCH  21  22
ENDBRANCH   1  21
TORSDOF 4
ENDMDL