MODEL 3
REMARK VINA RESULT: -6.750340219      1.732      7.382
REMARK  4 active torsions:
REMARK  status: ('A' for Active; 'I' for Inactive)
REMARK    1  A    between atoms: C3_3  and  C4_4
REMARK    2  A    between atoms: C6_6  and  N1_7
REMARK    3  A    between atoms: N1_7  and  C7_9
REMARK    4  A    between atoms: C7_9  and  C8_10
ROOT
HETATM    1  C4  UNL     1      44.901  13.620   1.998  1.00  0.00     0.028 C
HETATM    2  C5  UNL     1      44.658  13.366   0.502  1.00  0.00     0.034 C
HETATM    3  C6  UNL     1      44.827  11.890   0.960  1.00  0.00     0.077 C
HETATM    4  C12 UNL     1      45.940  12.490   1.830  1.00  0.00     0.034 C
ENDROOT
BRANCH   3   5
HETATM    5  N1  UNL     1      45.079  10.922   0.029  1.00  0.00    -0.417 N
ATOM      6  H1  UNL     1      45.719  11.143  -0.733  1.00  0.00     0.153 HD
BRANCH   5   7
HETATM    7  C7  UNL     1      44.504   9.637   0.060  1.00  0.00     0.120 C
BRANCH   7   8
HETATM    8  C8  UNL     1      44.313   9.147  -1.378  1.00  0.00     0.030 C
HETATM    9  C9  UNL     1      44.451  10.333  -2.335  1.00  0.00     0.035 C
HETATM   10  C10 UNL     1      43.039  10.435  -2.877  1.00  0.00     0.232 C
HETATM   11  N2  UNL     1      42.662   9.028  -2.983  1.00  0.00    -0.075 N
HETATM   12  C11 UNL     1      42.967   8.565  -1.629  1.00  0.00     0.238 C
ATOM     13  H22 UNL     1      41.711   8.849  -3.306  1.00  0.00     0.277 HD
ATOM     14  H21 UNL     1      43.109   8.508  -3.738  1.00  0.00     0.277 HD
ENDBRANCH   7   8
ENDBRANCH   5   7
ENDBRANCH   3   5
BRANCH   1  15
HETATM   15  C3  UNL     1      45.329  14.903   2.436  1.00  0.00     0.010 A
HETATM   16  C2  UNL     1      46.206  15.061   3.533  1.00  0.00     0.034 A
HETATM   17  C1  UNL     1      46.791  13.967   4.366  1.00  0.00     0.070 C
HETATM   18  N4  UNL     1      46.447  16.341   3.741  1.00  0.00    -0.299 N
HETATM   19  N3  UNL     1      45.765  17.031   2.828  1.00  0.00    -0.287 N
HETATM   20  C14 UNL     1      47.278  16.993   4.743  1.00  0.00     0.177 C
HETATM   21  C13 UNL     1      45.077  16.171   2.024  1.00  0.00     0.126 A
ATOM     22  H3  UNL     1      45.759  18.047   2.742  1.00  0.00     0.188 HD
HETATM   23 CL1  UNL     1      44.047  16.620   0.701  1.00  0.00    -0.062 Cl
ENDBRANCH   1  15
TORSDOF 4
ENDMDL