MODEL 4
REMARK VINA RESULT: -6.759739715      1.155      1.497
REMARK  4 active torsions:
REMARK  status: ('A' for Active; 'I' for Inactive)
REMARK    1  A    between atoms: C6_7  and  C7_8
REMARK    2  A    between atoms: C7_8  and  N1_9
REMARK    3  A    between atoms: N1_9  and  C8_12
REMARK    4  A    between atoms: C8_12  and  C9_13
ROOT
HETATM    1  C9  UNL     1      45.078  11.820  -0.338  1.00  0.00     0.154 C
HETATM    2  C10 UNL     1      46.638  11.607  -0.225  1.00  0.00     0.102 C
HETATM    3  C11 UNL     1      46.818  10.144  -0.048  1.00  0.00     0.230 C
HETATM    4  C12 UNL     1      48.112   9.576  -0.543  1.00  0.00     0.070 C
HETATM    5  C13 UNL     1      48.002   8.147  -0.023  1.00  0.00     0.032 C
HETATM    6  C14 UNL     1      47.360   8.370   1.311  1.00  0.00     0.236 C
HETATM    7  N2  UNL     1      46.798   9.707   1.315  1.00  0.00    -0.043 N
ATOM      8  H21 UNL     1      45.875   9.760   1.747  1.00  0.00     0.280 HD
ATOM      9  H22 UNL     1      47.270  10.346   1.956  1.00  0.00     0.280 HD
HETATM   10  O1  UNL     1      45.757   9.496  -0.722  1.00  0.00    -0.329 OA
HETATM   11  C15 UNL     1      44.590   9.651   0.032  1.00  0.00     0.341 C
HETATM   12  O2  UNL     1      44.646  10.919   0.664  1.00  0.00    -0.360 OA
ENDROOT
BRANCH   1  13
HETATM   13  C8  UNL     1      44.764  13.259   0.041  1.00  0.00     0.264 C
BRANCH  13  14
HETATM   14  N1  UNL     1      44.776  13.392   1.463  1.00  0.00    -0.069 N
ATOM     15  H12 UNL     1      45.691  13.149   1.845  1.00  0.00     0.277 HD
ATOM     16  H11 UNL     1      44.214  12.664   1.903  1.00  0.00     0.277 HD
BRANCH  14  17
HETATM   17  C7  UNL     1      44.371  14.677   1.898  1.00  0.00     0.274 C
BRANCH  17  18
HETATM   18  C6  UNL     1      45.412  15.297   2.819  1.00  0.00     0.006 A
HETATM   19  C1  UNL     1      45.568  16.634   2.964  1.00  0.00     0.124 A
HETATM   20  F1  UNL     1      44.743  17.477   2.371  1.00  0.00    -0.206 F
HETATM   21  C2  UNL     1      46.683  17.177   3.605  1.00  0.00     0.043 A
HETATM   22  C3  UNL     1      47.672  16.320   4.094  1.00  0.00     0.003 A
HETATM   23  C4  UNL     1      47.501  14.924   3.960  1.00  0.00     0.001 A
HETATM   24  C5  UNL     1      46.402  14.436   3.362  1.00  0.00     0.012 A
ENDBRANCH  17  18
ENDBRANCH  14  17
ENDBRANCH  13  14
ENDBRANCH   1  13
TORSDOF 4
ENDMDL