MODEL 1
REMARK VINA RESULT: -5.670822428      0.000      0.000
REMARK  7 active torsions:
REMARK  status: ('A' for Active; 'I' for Inactive)
REMARK    1  A    between atoms: N1_2  and  C2_4
REMARK    2  A    between atoms: C2_4  and  N2_6
REMARK    3  A    between atoms: N2_6  and  N3_8
REMARK    4  A    between atoms: C3_10  and  C4_11
REMARK    5  A    between atoms: C3_10  and  C6_14
REMARK    6  A    between atoms: C6_14  and  C7_15
REMARK    7  A    between atoms: C7_15  and  C9_18
ROOT
HETATM    1  C4  UNL     1      44.982  13.699  -0.136  1.00  0.00     0.177 C
HETATM    2  C5  UNL     1      44.122  14.831  -0.565  1.00  0.00     0.065 C
HETATM    3  N4  UNL     1      43.462  15.720  -0.895  1.00  0.00    -0.197 NA
ENDROOT
BRANCH   1   4
HETATM    4  C3  UNL     1      44.686  13.302   1.241  1.00  0.00     0.018 C
HETATM    5  N3  UNL     1      44.622  12.056   1.535  1.00  0.00    -0.306 N
ATOM      6  H3  UNL     1      44.412  11.824   2.506  1.00  0.00     0.186 HD
BRANCH   5   7
HETATM    7  N2  UNL     1      44.808  10.995   0.667  1.00  0.00    -0.277 N
ATOM      8  H2  UNL     1      44.073  10.739   0.009  1.00  0.00     0.189 HD
BRANCH   7   9
HETATM    9  C2  UNL     1      46.019  10.266   0.692  1.00  0.00     0.186 C
HETATM   10  S1  UNL     1      46.274   9.232  -0.583  1.00  0.00    -0.040 SA
BRANCH   9  11
HETATM   11  N1  UNL     1      46.992  10.357   1.696  1.00  0.00    -0.370 N
HETATM   12  C1  UNL     1      47.751   9.250   2.172  1.00  0.00     0.148 C
ATOM     13  H1  UNL     1      47.168  11.272   2.111  1.00  0.00     0.161 HD
ENDBRANCH   9  11
ENDBRANCH   7   9
ENDBRANCH   5   7
BRANCH   4  14
HETATM   14  C6  UNL     1      44.452  14.298   2.341  1.00  0.00     0.076 C
BRANCH  14  15
HETATM   15  C7  UNL     1      45.728  15.028   2.680  1.00  0.00     0.120 C
HETATM   16  C8  UNL     1      46.376  14.283   3.761  1.00  0.00     0.066 C
HETATM   17  N5  UNL     1      46.890  13.700   4.632  1.00  0.00    -0.197 NA
BRANCH  15  18
HETATM   18  C9  UNL     1      45.517  16.425   3.138  1.00  0.00     0.046 C
HETATM   19  C10 UNL     1      46.872  17.097   3.245  1.00  0.00     0.033 C
HETATM   20  C11 UNL     1      44.677  17.255   2.205  1.00  0.00     0.033 C
HETATM   21 CL1  UNL     1      44.737  16.438   4.740  1.00  0.00    -0.119 Cl
ENDBRANCH  15  18
ENDBRANCH  14  15
ENDBRANCH   4  14
ENDBRANCH   1   4
TORSDOF 7
ENDMDL