MODEL 1
REMARK VINA RESULT: -6.114250980      0.000      0.000
REMARK  5 active torsions:
REMARK  status: ('A' for Active; 'I' for Inactive)
REMARK    1  A    between atoms: C2_2  and  N1_3
REMARK    2  A    between atoms: C2_2  and  C7_10
REMARK    3  A    between atoms: N1_3  and  C3_5
REMARK    4  A    between atoms: C7_10  and  O2_11
REMARK    5  A    between atoms: C7_10  and  C9_15
ROOT
HETATM    1  C7  UNL     1      44.917  13.785   1.847  1.00  0.00     0.194 C
HETATM    2  C8  UNL     1      44.048  14.775   2.473  1.00  0.00     0.105 C
HETATM    3  N2  UNL     1      43.353  15.573   2.953  1.00  0.00    -0.194 NA
ENDROOT
BRANCH   1   4
HETATM    4  C2  UNL     1      46.326  13.863   2.417  1.00  0.00     0.127 C
HETATM    5  C1  UNL     1      46.550  12.439   2.998  1.00  0.00     0.036 C
BRANCH   4   6
HETATM    6  N1  UNL     1      46.593  14.738   3.433  1.00  0.00    -0.407 N
ATOM      7  H1  UNL     1      46.102  14.545   4.306  1.00  0.00     0.154 HD
BRANCH   6   8
HETATM    8  C3  UNL     1      47.416  15.835   3.465  1.00  0.00     0.103 C
HETATM    9  C4  UNL     1      48.027  16.300   4.742  1.00  0.00     0.053 C
HETATM   10  C5  UNL     1      46.937  17.130   5.385  1.00  0.00     0.169 C
HETATM   11  O1  UNL     1      45.978  17.364   4.432  1.00  0.00    -0.389 OA
HETATM   12  C6  UNL     1      46.506  17.072   3.187  1.00  0.00     0.192 C
ENDBRANCH   6   8
ENDBRANCH   4   6
ENDBRANCH   1   4
BRANCH   1  13
HETATM   13  O2  UNL     1      44.424  12.451   2.074  1.00  0.00    -0.370 OA
ATOM     14  H2  UNL     1      43.584  12.522   2.514  1.00  0.00     0.212 HD
ENDBRANCH   1  13
BRANCH   1  15
HETATM   15  C9  UNL     1      44.853  13.895   0.376  1.00  0.00    -0.006 A
HETATM   16  C10 UNL     1      45.251  12.844  -0.404  1.00  0.00     0.011 A
HETATM   17  C11 UNL     1      45.222  12.926  -1.803  1.00  0.00     0.002 A
HETATM   18  C12 UNL     1      44.788  14.079  -2.397  1.00  0.00     0.024 A
HETATM   19  C13 UNL     1      44.381  15.156  -1.620  1.00  0.00     0.034 A
HETATM   20 CL1  UNL     1      43.833  16.619  -2.415  1.00  0.00    -0.084 Cl
HETATM   21  C14 UNL     1      44.419  15.045  -0.235  1.00  0.00     0.035 A
ENDBRANCH   1  15
TORSDOF 5
ENDMDL