MODEL 1
REMARK VINA RESULT: -6.864619368      0.000      0.000
REMARK  5 active torsions:
REMARK  status: ('A' for Active; 'I' for Inactive)
REMARK    1  A    between atoms: C7_8  and  N1_9
REMARK    2  A    between atoms: N1_9  and  N2_11
REMARK    3  A    between atoms: N2_11  and  N3_13
REMARK    4  A    between atoms: C8_15  and  C9_16
REMARK    5  A    between atoms: N4_19  and  O1_20
ROOT
HETATM    1  N2  UNL     1      44.287  14.543   0.734  1.00  0.00    -0.243 N
ATOM      2  H2  UNL     1      43.827  15.269   0.185  1.00  0.00     0.208 HD
ENDROOT
BRANCH   1   3
HETATM    3  N1  UNL     1      44.416  14.675   2.098  1.00  0.00    -0.286 N
ATOM      4  H1  UNL     1      43.637  14.314   2.649  1.00  0.00     0.188 HD
BRANCH   3   5
HETATM    5  C7  UNL     1      45.470  15.237   2.833  1.00  0.00     0.055 A
HETATM    6  C2  UNL     1      46.505  14.532   3.384  1.00  0.00    -0.032 A
HETATM    7  C1  UNL     1      46.577  13.062   3.233  1.00  0.00     0.050 C
HETATM    8  C3  UNL     1      47.508  15.196   4.098  1.00  0.00     0.033 A
HETATM    9  C4  UNL     1      47.494  16.547   4.271  1.00  0.00     0.034 A
HETATM   10 CL1  UNL     1      48.732  17.402   5.157  1.00  0.00    -0.084 Cl
HETATM   11  C5  UNL     1      46.467  17.270   3.728  1.00  0.00     0.026 A
HETATM   12  C6  UNL     1      45.489  16.614   3.030  1.00  0.00     0.033 A
ENDBRANCH   3   5
ENDBRANCH   1   3
BRANCH   1  13
HETATM   13  N3  UNL     1      44.801  13.391   0.110  1.00  0.00    -0.297 N
HETATM   14  C8  UNL     1      44.695  12.218   0.575  1.00  0.00     0.120 C
ATOM     15  H3  UNL     1      45.292  13.509  -0.776  1.00  0.00     0.187 HD
BRANCH  14  16
HETATM   16  C9  UNL     1      45.266  11.097  -0.156  1.00  0.00    -0.017 A
HETATM   17  C10 UNL     1      44.491  10.102  -0.719  1.00  0.00     0.032 A
HETATM   18  C11 UNL     1      45.052   9.049  -1.408  1.00  0.00     0.123 A
HETATM   19  N4  UNL     1      46.376   8.982  -1.539  1.00  0.00    -0.247 N
HETATM   20  C12 UNL     1      47.154   9.928  -1.006  1.00  0.00     0.123 A
HETATM   21  C13 UNL     1      46.626  10.989  -0.315  1.00  0.00     0.032 A
BRANCH  19  22
HETATM   22  O1  UNL     1      46.962   7.944  -2.221  1.00  0.00    -0.284 OA
ATOM     23  H1  UNL     1      47.760   8.078  -2.718  1.00  0.00     0.245 HD
ENDBRANCH  19  22
ENDBRANCH  14  16
ENDBRANCH   1  13
TORSDOF 5
ENDMDL