MODEL 1
REMARK VINA RESULT: -6.854304981      0.000      0.000
REMARK  4 active torsions:
REMARK  status: ('A' for Active; 'I' for Inactive)
REMARK    1  A    between atoms: C5_7  and  N1_8
REMARK    2  A    between atoms: N1_8  and  C6_11
REMARK    3  A    between atoms: C6_11  and  C7_12
REMARK    4  A    between atoms: C9_16  and  N3_17
ROOT
HETATM    1  C7  UNL     1      44.391  15.069   0.568  1.00  0.00     0.068 A
HETATM    2  C8  UNL     1      44.301  15.300  -0.777  1.00  0.00     0.133 A
HETATM    3  N2  UNL     1      44.437  14.108  -1.379  1.00  0.00    -0.200 N
ATOM      4  H2  UNL     1      44.413  13.964  -2.388  1.00  0.00     0.183 HD
HETATM    5  C9  UNL     1      44.609  13.118  -0.464  1.00  0.00     0.680 A
HETATM    6  N4  UNL     1      44.575  13.753   0.729  1.00  0.00    -0.192 N
ATOM      7  H4  UNL     1      44.675  13.290   1.632  1.00  0.00     0.184 HD
ENDROOT
BRANCH   1   8
HETATM    8  C6  UNL     1      44.296  16.116   1.639  1.00  0.00     0.291 C
BRANCH   8   9
HETATM    9  N1  UNL     1      44.443  15.466   2.907  1.00  0.00    -0.061 N
ATOM     10  H12 UNL     1      44.143  14.491   2.885  1.00  0.00     0.278 HD
ATOM     11  H11 UNL     1      43.774  15.802   3.600  1.00  0.00     0.278 HD
BRANCH   9  12
HETATM   12  C5  UNL     1      45.816  15.615   3.341  1.00  0.00     0.243 C
HETATM   13  C1  UNL     1      45.875  15.327   4.825  1.00  0.00     0.204 C
HETATM   14  F1  UNL     1      46.574  14.179   5.120  1.00  0.00    -0.247 F
HETATM   15  C2  UNL     1      46.483  16.540   5.498  1.00  0.00     0.065 C
HETATM   16  C3  UNL     1      47.754  16.961   4.846  1.00  0.00     0.170 C
HETATM   17  O1  UNL     1      47.674  17.015   3.477  1.00  0.00    -0.389 OA
HETATM   18  C4  UNL     1      46.344  17.005   3.083  1.00  0.00     0.203 C
ENDBRANCH   9  12
ENDBRANCH   8   9
ENDBRANCH   1   8
BRANCH   5  19
HETATM   19  N3  UNL     1      44.788  11.716  -0.718  1.00  0.00    -0.218 N
HETATM   20  C10 UNL     1      44.841  11.296  -2.105  1.00  0.00     0.141 C
HETATM   21  C11 UNL     1      44.723   9.820  -2.291  1.00  0.00     0.020 C
HETATM   22  C12 UNL     1      45.483   9.115  -1.186  1.00  0.00     0.003 C
HETATM   23  C13 UNL     1      44.694   9.396   0.097  1.00  0.00     0.020 C
HETATM   24  C14 UNL     1      44.898  10.850   0.414  1.00  0.00     0.141 C
ENDBRANCH   5  19
TORSDOF 4
ENDMDL