MODEL 2
REMARK VINA RESULT: -6.356590425      1.051      1.491
REMARK  4 active torsions:
REMARK  status: ('A' for Active; 'I' for Inactive)
REMARK    1  A    between atoms: C5_6  and  C6_7
REMARK    2  A    between atoms: C6_7  and  N1_8
REMARK    3  A    between atoms: C6_7  and  C12_15
REMARK    4  A    between atoms: N1_8  and  N2_9
ROOT
HETATM    1  C6  UNL     1      46.116  11.075   1.263  1.00  0.00     0.150 C
ENDROOT
BRANCH   1   2
HETATM    2  C5  UNL     1      45.994  12.392   1.943  1.00  0.00    -0.033 A
HETATM    3  C4  UNL     1      46.792  12.757   2.996  1.00  0.00     0.009 A
HETATM    4  C3  UNL     1      46.680  13.994   3.637  1.00  0.00     0.004 A
HETATM    5  C2  UNL     1      45.730  14.858   3.180  1.00  0.00     0.042 A
HETATM    6  C1  UNL     1      44.915  14.521   2.126  1.00  0.00     0.117 A
HETATM    7  F1  UNL     1      43.953  15.369   1.649  1.00  0.00    -0.206 F
HETATM    8  C15 UNL     1      45.048  13.306   1.521  1.00  0.00     0.051 A
ENDBRANCH   1   2
BRANCH   1   9
HETATM    9  N1  UNL     1      45.921  11.263  -0.171  1.00  0.00    -0.153 NA
BRANCH   9  10
HETATM   10  N2  UNL     1      44.714  10.724  -0.596  1.00  0.00    -0.234 NA
HETATM   11  C7  UNL     1      44.930   9.306  -0.833  1.00  0.00     0.109 C
HETATM   12  C8  UNL     1      43.551   8.692  -1.025  1.00  0.00     0.016 C
HETATM   13  C9  UNL     1      43.054   9.178  -2.373  1.00  0.00     0.002 C
HETATM   14  C10 UNL     1      43.836  10.368  -2.868  1.00  0.00     0.016 C
HETATM   15  C11 UNL     1      44.178  11.341  -1.769  1.00  0.00     0.109 C
ENDBRANCH   9  10
ENDBRANCH   1   9
BRANCH   1  16
HETATM   16  C12 UNL     1      47.481  10.543   1.575  1.00  0.00     0.125 C
HETATM   17  C13 UNL     1      47.323   9.093   1.982  1.00  0.00     0.147 C
HETATM   18  N3  UNL     1      48.564   8.530   1.548  1.00  0.00    -0.384 N
HETATM   19  C14 UNL     1      48.964   9.314   0.432  1.00  0.00     0.171 C
ATOM     20  H3  UNL     1      49.058   7.735   1.954  1.00  0.00     0.160 HD
HETATM   21  N4  UNL     1      48.349  10.455   0.447  1.00  0.00    -0.378 N
ATOM     22  H4  UNL     1      48.470  11.190  -0.251  1.00  0.00     0.160 HD
ENDBRANCH   1  16
TORSDOF 4
ENDMDL