MODEL 4
REMARK VINA RESULT: -5.810924617      2.709      3.766
REMARK  4 active torsions:
REMARK  status: ('A' for Active; 'I' for Inactive)
REMARK    1  A    between atoms: C2_2  and  C3_3
REMARK    2  A    between atoms: C3_3  and  C4_4
REMARK    3  A    between atoms: C4_4  and  C5_5
REMARK    4  A    between atoms: C8_14  and  N3_15
ROOT
HETATM    1  C5  UNL     1      46.606  12.262   2.479  1.00  0.00     0.084 A
HETATM    2  N1  UNL     1      45.636  12.267   1.562  1.00  0.00    -0.331 N
ATOM      3  H1  UNL     1      45.009  13.071   1.528  1.00  0.00     0.168 HD
HETATM    4  C6  UNL     1      45.437  11.274   0.683  1.00  0.00     0.126 A
HETATM    5  N2  UNL     1      44.515  11.283  -0.187  1.00  0.00    -0.384 N
ATOM      6  H21 UNL     1      44.364  10.528  -0.856  1.00  0.00     0.157 HD
ATOM      7  H22 UNL     1      43.875  12.074  -0.251  1.00  0.00     0.157 HD
HETATM    8  C7  UNL     1      46.319  10.187   0.772  1.00  0.00     0.121 A
HETATM    9 CL1  UNL     1      46.087   8.891  -0.356  1.00  0.00    -0.076 Cl
HETATM   10  C8  UNL     1      47.319  10.159   1.706  1.00  0.00     0.130 A
HETATM   11  N5  UNL     1      47.423  11.205   2.525  1.00  0.00    -0.331 N
ATOM     12  H5  UNL     1      48.166  11.198   3.225  1.00  0.00     0.168 HD
ENDROOT
BRANCH  10  13
HETATM   13  N3  UNL     1      48.147   9.008   1.778  1.00  0.00    -0.362 N
HETATM   14  C9  UNL     1      47.863   7.976   2.715  1.00  0.00     0.154 C
HETATM   15  C10 UNL     1      48.379   6.660   2.166  1.00  0.00     0.291 C
HETATM   16  N4  UNL     1      49.793   6.804   1.884  1.00  0.00     0.087 N
HETATM   17  C11 UNL     1      50.588   6.982   3.078  1.00  0.00     0.310 C
HETATM   18  C12 UNL     1      50.066   7.743   0.854  1.00  0.00     0.291 C
HETATM   19  C13 UNL     1      49.254   8.981   0.839  1.00  0.00     0.154 C
ENDBRANCH  10  13
BRANCH   1  20
HETATM   20  C4  UNL     1      46.695  13.407   3.409  1.00  0.00     0.076 C
BRANCH  20  21
HETATM   21  C3  UNL     1      45.883  14.587   2.997  1.00  0.00     0.007 C
BRANCH  21  22
HETATM   22  C2  UNL     1      46.555  15.902   3.349  1.00  0.00    -0.004 C
HETATM   23  C1  UNL     1      47.872  15.733   4.055  1.00  0.00     0.005 C
ENDBRANCH  21  22
ENDBRANCH  20  21
ENDBRANCH   1  20
TORSDOF 4
ENDMDL