MODEL 3
REMARK VINA RESULT: -9.587888574      3.735      6.913
REMARK  13 active torsions:
REMARK  status: ('A' for Active; 'I' for Inactive)
REMARK    1  A    between atoms: C5_5  and  C6_6
REMARK    2  A    between atoms: C17_22  and  C18_23
REMARK    3  A    between atoms: C18_23  and  N3_24
REMARK    4  A    between atoms: C23_29  and  N4_30
REMARK    5  A    between atoms: N5_36  and  C26_37
REMARK    6  A    between atoms: C26_37  and  C27_38
REMARK    7  A    between atoms: C27_38  and  O2_39
REMARK    8  A    between atoms: O2_39  and  C28_40
REMARK    9  A    between atoms: C28_40  and  C29_41
REMARK   10  A    between atoms: C29_41  and  O3_42
REMARK   11  A    between atoms: O3_42  and  C30_43
REMARK   12  A    between atoms: C30_43  and  C31_44
REMARK   13  A    between atoms: C31_44  and  O4_45
ROOT
HETATM    1  C1  UNL     1      10.121  21.341  20.997  1.00  0.00     0.018 C
HETATM    2  C2  UNL     1      10.532  20.982  19.923  1.00  0.00    -0.077 C
HETATM    3  C3  UNL     1      11.011  20.569  18.632  1.00  0.00     0.026 A
HETATM    4  C4  UNL     1      10.496  19.451  17.978  1.00  0.00     0.033 A
HETATM    5  C5  UNL     1      10.975  19.078  16.742  1.00  0.00    -0.022 A
HETATM    6  C13 UNL     1      11.978  19.786  16.097  1.00  0.00     0.042 A
HETATM    7  C14 UNL     1      12.488  20.894  16.748  1.00  0.00     0.038 A
HETATM    8  C15 UNL     1      12.006  21.260  17.980  1.00  0.00    -0.012 A
HETATM    9  C16 UNL     1      12.628  22.475  18.594  1.00  0.00     0.050 C
HETATM   10  C17 UNL     1      14.108  22.435  18.390  1.00  0.00     0.036 C
HETATM   11  C25 UNL     1      14.491  22.339  16.939  1.00  0.00     0.130 C
HETATM   12  N5  UNL     1      13.520  21.656  16.130  1.00  0.00    -0.378 N
ENDROOT
BRANCH   5  13
HETATM   13  C6  UNL     1      10.432  17.910  16.070  1.00  0.00    -0.024 A
HETATM   14  C7  UNL     1      11.008  17.494  14.897  1.00  0.00     0.014 A
HETATM   15  C8  UNL     1      10.503  16.381  14.239  1.00  0.00     0.033 A
HETATM   16  C9  UNL     1       9.422  15.728  14.803  1.00  0.00     0.063 A
HETATM   17  N1  UNL     1       8.751  14.648  14.383  1.00  0.00    -0.307 N
HETATM   18  C11 UNL     1       8.833  16.128  15.976  1.00  0.00     0.064 A
HETATM   19  C10 UNL     1       7.763  14.390  15.287  1.00  0.00     0.325 A
ATOM     20  H1  UNL     1       8.945  14.113  13.537  1.00  0.00     0.170 HD
HETATM   21  O1  UNL     1       6.969  13.422  15.143  1.00  0.00    -0.247 OA
HETATM   22  N2  UNL     1       7.808  15.302  16.275  1.00  0.00    -0.306 N
ATOM     23  H2  UNL     1       7.192  15.358  17.086  1.00  0.00     0.170 HD
HETATM   24  C12 UNL     1       9.365  17.239  16.597  1.00  0.00     0.044 A
ENDBRANCH   5  13
BRANCH  12  25
HETATM   25  C26 UNL     1      13.579  21.735  14.677  1.00  0.00     0.149 C
BRANCH  25  26
HETATM   26  C27 UNL     1      14.967  21.896  14.142  1.00  0.00     0.187 C
BRANCH  26  27
HETATM   27  O2  UNL     1      14.975  23.060  13.373  1.00  0.00    -0.387 OA
BRANCH  27  28
HETATM   28  C28 UNL     1      16.260  23.231  12.805  1.00  0.00     0.193 C
BRANCH  28  29
HETATM   29  C29 UNL     1      17.330  22.942  13.821  1.00  0.00     0.193 C
BRANCH  29  30
HETATM   30  O3  UNL     1      18.461  23.690  13.687  1.00  0.00    -0.387 OA
BRANCH  30  31
HETATM   31  C30 UNL     1      18.359  24.641  12.691  1.00  0.00     0.193 C
BRANCH  31  32
HETATM   32  C31 UNL     1      18.585  26.053  13.152  1.00  0.00     0.193 C
BRANCH  32  33
HETATM   33  O4  UNL     1      19.018  26.175  14.444  1.00  0.00    -0.394 OA
HETATM   34  C32 UNL     1      18.513  27.293  15.078  1.00  0.00     0.201 C
ENDBRANCH  32  33
ENDBRANCH  31  32
ENDBRANCH  30  31
ENDBRANCH  29  30
ENDBRANCH  28  29
ENDBRANCH  27  28
ENDBRANCH  26  27
ENDBRANCH  25  26
ENDBRANCH  12  25
BRANCH  10  35
HETATM   35  C18 UNL     1      14.774  23.653  18.992  1.00  0.00     0.279 C
BRANCH  35  36
HETATM   36  N3  UNL     1      16.188  23.537  19.166  1.00  0.00     0.090 N
HETATM   37  C19 UNL     1      16.644  24.345  20.229  1.00  0.00     0.272 C
HETATM   38  C20 UNL     1      16.315  25.793  20.009  1.00  0.00     0.030 C
HETATM   39  C21 UNL     1      16.883  26.214  18.677  1.00  0.00     0.004 C
HETATM   40  C22 UNL     1      18.266  25.623  18.565  1.00  0.00     0.034 C
HETATM   41  C23 UNL     1      18.265  24.224  18.033  1.00  0.00     0.211 C
HETATM   42  C24 UNL     1      16.909  23.596  17.961  1.00  0.00     0.305 C
BRANCH  41  43
HETATM   43  N4  UNL     1      18.828  24.224  16.695  1.00  0.00    -0.073 N
ATOM     44  H43 UNL     1      18.117  24.099  15.974  1.00  0.00     0.274 HD
ATOM     45  H42 UNL     1      19.157  25.148  16.413  1.00  0.00     0.274 HD
ATOM     46  H41 UNL     1      19.562  23.518  16.642  1.00  0.00     0.274 HD
ENDBRANCH  41  43
ENDBRANCH  35  36
ENDBRANCH  10  35
TORSDOF 13
ENDMDL