MODEL 2
REMARK VINA RESULT: -8.149013919      3.058     10.189
REMARK  14 active torsions:
REMARK  status: ('A' for Active; 'I' for Inactive)
REMARK    1  A    between atoms: C2_2  and  C3_3
REMARK    2  A    between atoms: C3_3  and  C4_4
REMARK    3  A    between atoms: C4_4  and  C5_5
REMARK    4  A    between atoms: C4_4  and  C24_37
REMARK       I    between atoms: C5_5  and  N1_7
REMARK    5  A    between atoms: N1_7  and  C6_9
REMARK    6  A    between atoms: C6_9  and  C7_10
REMARK    7  A    between atoms: C6_9  and  C11_18
REMARK    8  A    between atoms: C7_10  and  C8_11
REMARK       I    between atoms: C11_18  and  N4_20
REMARK    9  A    between atoms: C15_25  and  C16_26
REMARK       I    between atoms: C16_26  and  N5_28
REMARK   10  A    between atoms: N5_28  and  C17_30
REMARK   11  A    between atoms: C17_30  and  C18_31
REMARK   12  A    between atoms: C17_30  and  C21_34
REMARK   13  A    between atoms: C24_37  and  O5_39
REMARK   14  A    between atoms: O5_39  and  C25_40
ROOT
HETATM    1  C6  UNL     1      13.176  21.904  18.204  1.00  0.00     0.183 C
ENDROOT
BRANCH   1   2
HETATM    2  N1  UNL     1      12.730  20.875  17.273  1.00  0.00    -0.347 N
HETATM    3  C5  UNL     1      11.576  21.048  16.474  1.00  0.00     0.232 C
HETATM    4  O1  UNL     1      10.958  22.152  16.627  1.00  0.00    -0.273 OA
ATOM      5  H1  UNL     1      13.263  20.010  17.195  1.00  0.00     0.163 HD
BRANCH   3   6
HETATM    6  C4  UNL     1      11.047  20.072  15.505  1.00  0.00     0.180 C
BRANCH   6   7
HETATM    7  C3  UNL     1      12.140  19.628  14.588  1.00  0.00     0.050 C
BRANCH   7   8
HETATM    8  C2  UNL     1      13.119  20.706  14.284  1.00  0.00    -0.036 C
HETATM    9  C1  UNL     1      13.459  21.043  13.047  1.00  0.00     0.007 C
ENDBRANCH   7   8
ENDBRANCH   6   7
BRANCH   6  10
HETATM   10  C24 UNL     1      10.403  18.928  16.184  1.00  0.00     0.273 C
HETATM   11  O4  UNL     1      10.961  18.299  17.094  1.00  0.00    -0.264 OA
BRANCH  10  12
HETATM   12  O5  UNL     1       9.116  18.517  15.797  1.00  0.00    -0.311 OA
BRANCH  12  13
HETATM   13  C25 UNL     1       8.953  17.154  15.400  1.00  0.00     0.060 C
HETATM   14  C26 UNL     1       7.666  16.946  14.655  1.00  0.00     0.045 C
HETATM   15  C27 UNL     1       8.924  16.264  16.621  1.00  0.00     0.045 C
HETATM   16  C28 UNL     1      10.108  16.751  14.495  1.00  0.00     0.045 C
ENDBRANCH  12  13
ENDBRANCH  10  12
ENDBRANCH   6  10
ENDBRANCH   3   6
ENDBRANCH   1   2
BRANCH   1  17
HETATM   17  C7  UNL     1      13.138  21.420  19.619  1.00  0.00     0.093 C
BRANCH  17  18
HETATM   18  C8  UNL     1      11.908  20.710  20.004  1.00  0.00     0.028 A
HETATM   19  C9  UNL     1      10.709  21.286  20.364  1.00  0.00     0.114 A
HETATM   20  N2  UNL     1       9.854  20.282  20.639  1.00  0.00    -0.360 N
HETATM   21  C10 UNL     1      10.503  19.140  20.454  1.00  0.00     0.180 A
ATOM     22  H2  UNL     1       8.883  20.382  20.935  1.00  0.00     0.166 HD
HETATM   23  N3  UNL     1      11.790  19.371  20.058  1.00  0.00    -0.354 N
ATOM     24  H3  UNL     1      12.507  18.677  19.848  1.00  0.00     0.166 HD
ENDBRANCH  17  18
ENDBRANCH   1  17
BRANCH   1  25
HETATM   25  C11 UNL     1      14.628  22.221  17.927  1.00  0.00     0.253 C
HETATM   26  O2  UNL     1      15.166  21.548  16.992  1.00  0.00    -0.270 OA
HETATM   27  N4  UNL     1      15.323  23.204  18.665  1.00  0.00    -0.274 N
HETATM   28  S1  UNL     1      14.686  24.242  19.998  1.00  0.00    -0.038 SA
HETATM   29  C15 UNL     1      16.593  23.865  18.825  1.00  0.00     0.211 C
HETATM   30  C12 UNL     1      16.018  25.201  19.254  1.00  0.00     0.051 C
HETATM   31  C13 UNL     1      15.541  26.052  18.110  1.00  0.00     0.031 C
HETATM   32  C14 UNL     1      16.805  25.941  20.310  1.00  0.00     0.031 C
BRANCH  29  33
HETATM   33  C16 UNL     1      17.508  23.889  17.700  1.00  0.00     0.243 C
HETATM   34  O3  UNL     1      18.719  23.634  17.833  1.00  0.00    -0.271 OA
HETATM   35  N5  UNL     1      17.107  24.204  16.352  1.00  0.00    -0.354 N
ATOM     36  H5  UNL     1      16.127  24.415  16.162  1.00  0.00     0.162 HD
BRANCH  35  37
HETATM   37  C17 UNL     1      18.052  24.229  15.269  1.00  0.00     0.091 C
BRANCH  37  38
HETATM   38  C18 UNL     1      17.709  23.146  14.291  1.00  0.00     0.001 C
HETATM   39  C19 UNL     1      16.241  23.024  14.010  1.00  0.00     0.011 C
HETATM   40  C20 UNL     1      18.244  21.791  14.581  1.00  0.00     0.011 C
ENDBRANCH  37  38
BRANCH  37  41
HETATM   41  C21 UNL     1      18.146  25.602  14.748  1.00  0.00     0.001 C
HETATM   42  C22 UNL     1      18.573  25.714  13.313  1.00  0.00     0.011 C
HETATM   43  C23 UNL     1      18.833  26.617  15.601  1.00  0.00     0.011 C
ENDBRANCH  37  41
ENDBRANCH  35  37
ENDBRANCH  29  33
ENDBRANCH   1  25
TORSDOF 14
ENDMDL