MODEL 5
REMARK VINA RESULT: -8.593188110      1.936      3.323
REMARK  14 active torsions:
REMARK  status: ('A' for Active; 'I' for Inactive)
REMARK    1  A    between atoms: C2_2  and  C3_3
REMARK    2  A    between atoms: C3_3  and  C4_4
REMARK    3  A    between atoms: C3_3  and  N2_14
REMARK    4  A    between atoms: C4_4  and  N1_5
REMARK    5  A    between atoms: C4_4  and  C7_10
REMARK       I    between atoms: N1_5  and  C5_7
REMARK    6  A    between atoms: C7_10  and  O2_12
REMARK    7  A    between atoms: C11_17  and  C13_19
REMARK    8  A    between atoms: C13_19  and  C14_20
REMARK       I    between atoms: C14_20  and  N3_22
REMARK    9  A    between atoms: N3_22  and  C15_24
REMARK   10  A    between atoms: C15_24  and  O4_25
REMARK   11  A    between atoms: C15_24  and  C28_40
REMARK   12  A    between atoms: O4_25  and  C16_26
REMARK   13  A    between atoms: C16_26  and  C17_27
REMARK   14  A    between atoms: C17_27  and  N4_28
ROOT
HETATM    1  C14 UNL     1      10.682  19.402  20.226  1.00  0.00     0.220 C
HETATM    2  O3  UNL     1      11.130  18.380  20.769  1.00  0.00    -0.274 OA
HETATM    3  N3  UNL     1       9.436  19.346  19.552  1.00  0.00    -0.334 N
ATOM      4  H3  UNL     1       9.075  20.191  19.110  1.00  0.00     0.165 HD
ENDROOT
BRANCH   1   5
HETATM    5  C13 UNL     1      11.420  20.672  20.283  1.00  0.00     0.113 C
BRANCH   5   6
HETATM    6  C11 UNL     1      12.171  21.047  19.060  1.00  0.00    -0.018 C
HETATM    7  C10 UNL     1      11.515  22.121  18.267  1.00  0.00     0.031 C
HETATM    8  C9  UNL     1      12.751  22.650  17.443  1.00  0.00     0.123 C
HETATM    9  N2  UNL     1      13.715  22.712  18.420  1.00  0.00    -0.385 N
HETATM   10  C31 UNL     1      13.516  21.676  19.384  1.00  0.00     0.132 C
HETATM   11  C12 UNL     1      12.370  19.837  18.140  1.00  0.00     0.017 C
BRANCH   9  12
HETATM   12  C3  UNL     1      14.956  23.322  18.353  1.00  0.00     0.009 C
BRANCH  12  13
HETATM   13  C2  UNL     1      15.191  24.617  19.063  1.00  0.00     0.050 C
HETATM   14  C1  UNL     1      14.430  25.758  18.365  1.00  0.00     0.011 C
ENDBRANCH  12  13
BRANCH  12  15
HETATM   15  C4  UNL     1      15.721  23.081  17.111  1.00  0.00     0.158 C
BRANCH  15  16
HETATM   16  N1  UNL     1      15.830  21.655  16.787  1.00  0.00    -0.349 N
HETATM   17  C5  UNL     1      15.419  21.076  15.595  1.00  0.00     0.214 C
HETATM   18  C6  UNL     1      15.547  19.637  15.284  1.00  0.00     0.117 C
HETATM   19  O1  UNL     1      14.895  21.811  14.697  1.00  0.00    -0.274 OA
ATOM     20  H1  UNL     1      16.239  21.042  17.492  1.00  0.00     0.163 HD
ENDBRANCH  15  16
BRANCH  15  21
HETATM   21  C7  UNL     1      17.122  23.600  17.027  1.00  0.00     0.142 C
HETATM   22  C8  UNL     1      17.584  24.009  15.669  1.00  0.00     0.042 C
BRANCH  21  23
HETATM   23  O2  UNL     1      18.083  22.909  17.707  1.00  0.00    -0.394 OA
ATOM     24  H2  UNL     1      18.586  23.390  18.354  1.00  0.00     0.210 HD
ENDBRANCH  21  23
ENDBRANCH  15  21
ENDBRANCH  12  15
ENDBRANCH   9  12
ENDBRANCH   5   6
ENDBRANCH   1   5
BRANCH   3  25
HETATM   25  C15 UNL     1       8.650  18.107  19.469  1.00  0.00     0.226 C
BRANCH  25  26
HETATM   26  O4  UNL     1       8.100  17.995  18.257  1.00  0.00    -0.365 OA
BRANCH  26  27
HETATM   27  C16 UNL     1       8.814  17.883  17.125  1.00  0.00     0.200 C
BRANCH  27  28
HETATM   28  C17 UNL     1       9.324  16.548  16.717  1.00  0.00     0.298 C
BRANCH  28  29
HETATM   29  N4  UNL     1       8.373  15.981  15.758  1.00  0.00     0.091 N
HETATM   30  C18 UNL     1       9.051  15.162  14.782  1.00  0.00     0.272 C
HETATM   31  C19 UNL     1       8.042  14.311  14.054  1.00  0.00     0.031 C
HETATM   32  C20 UNL     1       6.696  15.000  14.088  1.00  0.00     0.013 C
HETATM   33  C21 UNL     1       6.207  14.951  15.527  1.00  0.00    -0.011 C
HETATM   34  C22 UNL     1       5.199  16.056  15.732  1.00  0.00     0.041 C
HETATM   35  C26 UNL     1       5.531  13.642  15.774  1.00  0.00     0.041 C
HETATM   36  C27 UNL     1       7.369  15.199  16.475  1.00  0.00     0.282 C
HETATM   37  C23 UNL     1       4.011  15.593  16.554  1.00  0.00     0.272 C
HETATM   38  N5  UNL     1       3.268  14.590  15.828  1.00  0.00     0.084 N
HETATM   39  C24 UNL     1       2.347  13.889  16.704  1.00  0.00     0.309 C
HETATM   40  C25 UNL     1       4.122  13.617  15.183  1.00  0.00     0.272 C
ENDBRANCH  28  29
ENDBRANCH  27  28
ENDBRANCH  26  27
ENDBRANCH  25  26
BRANCH  25  41
HETATM   41  C28 UNL     1       7.511  18.302  20.543  1.00  0.00     0.026 C
HETATM   42  C29 UNL     1       6.207  18.214  19.825  1.00  0.00     0.014 C
HETATM   43  C30 UNL     1       7.681  17.298  21.643  1.00  0.00     0.014 C
ENDBRANCH  25  41
ENDBRANCH   3  25
TORSDOF 14
ENDMDL