MODEL 3
REMARK VINA RESULT: -8.445647858      1.068      1.313
REMARK  14 active torsions:
REMARK  status: ('A' for Active; 'I' for Inactive)
REMARK    1  A    between atoms: C2_2  and  C3_3
REMARK    2  A    between atoms: C3_3  and  C4_4
REMARK    3  A    between atoms: C4_4  and  C5_5
REMARK    4  A    between atoms: C5_5  and  C18_28
REMARK    5  A    between atoms: N1_6  and  C6_8
REMARK    6  A    between atoms: C7_11  and  N3_12
REMARK    7  A    between atoms: C13_21  and  C14_22
REMARK    8  A    between atoms: C18_28  and  N5_30
REMARK    9  A    between atoms: N5_30  and  C20_33
REMARK   10  A    between atoms: C20_33  and  C21_34
REMARK   11  A    between atoms: C20_33  and  C24_38
REMARK   12  A    between atoms: C21_34  and  N6_35
REMARK       I    between atoms: C24_38  and  N7_40
REMARK   13  A    between atoms: N7_40  and  C25_42
REMARK   14  A    between atoms: C25_42  and  C26_43
ROOT
HETATM    1  C5  UNL     1      13.811  20.486  18.275  1.00  0.00     0.034 C
HETATM    2  N1  UNL     1      14.557  21.514  18.760  1.00  0.00    -0.197 N
ATOM      3  H1  UNL     1      14.348  21.500  19.758  1.00  0.00     0.183 HD
ENDROOT
BRANCH   1   4
HETATM    4  C4  UNL     1      13.980  19.939  16.908  1.00  0.00     0.055 C
BRANCH   4   5
HETATM    5  C3  UNL     1      13.685  20.920  15.796  1.00  0.00     0.005 C
BRANCH   5   6
HETATM    6  C2  UNL     1      14.547  20.641  14.597  1.00  0.00    -0.004 C
HETATM    7  C1  UNL     1      15.780  19.882  14.994  1.00  0.00     0.005 C
ENDBRANCH   5   6
ENDBRANCH   4   5
ENDBRANCH   1   4
BRANCH   1   8
HETATM    8  C18 UNL     1      12.327  20.571  18.719  1.00  0.00     0.228 C
HETATM    9  C19 UNL     1      11.773  21.911  18.217  1.00  0.00     0.046 C
BRANCH   8  10
HETATM   10  N5  UNL     1      11.531  19.477  18.300  1.00  0.00    -0.052 N
ATOM     11  H52 UNL     1      11.988  18.935  17.567  1.00  0.00     0.279 HD
ATOM     12  H51 UNL     1      11.478  18.753  19.016  1.00  0.00     0.279 HD
BRANCH  10  13
HETATM   13  C20 UNL     1      10.195  19.933  17.886  1.00  0.00     0.305 C
BRANCH  13  14
HETATM   14  C21 UNL     1       9.108  19.507  18.814  1.00  0.00     0.314 C
BRANCH  14  15
HETATM   15  N6  UNL     1       9.483  18.560  19.828  1.00  0.00     0.082 N
HETATM   16  C22 UNL     1       8.379  17.575  19.895  1.00  0.00     0.309 C
HETATM   17  C23 UNL     1       9.464  19.175  21.159  1.00  0.00     0.309 C
ENDBRANCH  14  15
ENDBRANCH  13  14
BRANCH  13  18
HETATM   18  C24 UNL     1       9.842  19.320  16.549  1.00  0.00     0.250 C
HETATM   19  O4  UNL     1      10.630  19.527  15.626  1.00  0.00    -0.271 OA
HETATM   20  N7  UNL     1       8.676  18.568  16.412  1.00  0.00    -0.359 N
ATOM     21  H7  UNL     1       8.121  18.497  17.265  1.00  0.00     0.162 HD
BRANCH  20  22
HETATM   22  C25 UNL     1       8.124  17.887  15.304  1.00  0.00     0.131 C
BRANCH  22  23
HETATM   23  C26 UNL     1       8.439  16.454  15.086  1.00  0.00    -0.035 C
HETATM   24  C27 UNL     1       8.563  15.835  16.511  1.00  0.00     0.016 C
HETATM   25  C28 UNL     1       7.451  15.604  14.375  1.00  0.00     0.016 C
HETATM   26  C29 UNL     1       9.782  16.266  14.396  1.00  0.00     0.016 C
ENDBRANCH  22  23
ENDBRANCH  20  22
ENDBRANCH  13  18
ENDBRANCH  10  13
ENDBRANCH   8  10
ENDBRANCH   1   8
BRANCH   2  27
HETATM   27  C6  UNL     1      15.335  22.441  18.657  1.00  0.00     0.684 A
HETATM   28  N2  UNL     1      16.098  22.499  17.551  1.00  0.00    -0.175 N
HETATM   29  C7  UNL     1      17.015  23.482  17.309  1.00  0.00     0.136 A
ATOM     30  H2  UNL     1      15.985  21.766  16.851  1.00  0.00     0.186 HD
HETATM   31  C13 UNL     1      17.172  24.472  18.249  1.00  0.00     0.009 A
HETATM   32  C16 UNL     1      16.380  24.404  19.386  1.00  0.00     0.032 A
HETATM   33  C17 UNL     1      16.478  25.477  20.456  1.00  0.00     0.069 C
HETATM   34  N4  UNL     1      15.497  23.407  19.565  1.00  0.00    -0.195 N
ATOM     35  H4  UNL     1      14.935  23.388  20.416  1.00  0.00     0.184 HD
BRANCH  29  36
HETATM   36  N3  UNL     1      17.783  23.458  16.137  1.00  0.00    -0.273 N
HETATM   37  C8  UNL     1      17.638  24.262  14.956  1.00  0.00     0.176 C
HETATM   38  C9  UNL     1      17.617  23.469  13.675  1.00  0.00     0.106 C
HETATM   39  C10 UNL     1      16.217  23.235  13.141  1.00  0.00     0.050 C
HETATM   40  C11 UNL     1      18.351  24.294  12.619  1.00  0.00     0.050 C
HETATM   41  O1  UNL     1      18.307  22.265  13.737  1.00  0.00    -0.219 OA
HETATM   42  O2  UNL     1      19.238  22.261  14.700  1.00  0.00    -0.137 OA
HETATM   43  C12 UNL     1      18.851  22.484  16.044  1.00  0.00     0.396 C
HETATM   44  O3  UNL     1      19.372  21.910  16.992  1.00  0.00    -0.235 OA
ENDBRANCH  29  36
BRANCH  31  45
HETATM   45  C14 UNL     1      18.150  25.564  18.064  1.00  0.00     0.040 C
HETATM   46  C15 UNL     1      17.403  26.753  17.440  1.00  0.00     0.010 C
ENDBRANCH  31  45
ENDBRANCH   2  27
TORSDOF 14
ENDMDL