MODEL 2
REMARK VINA RESULT: -8.632866492      1.274      1.688
REMARK  13 active torsions:
REMARK  status: ('A' for Active; 'I' for Inactive)
REMARK    1  A    between atoms: C2_2  and  C3_3
REMARK    2  A    between atoms: C3_3  and  C4_4
REMARK    3  A    between atoms: C4_4  and  C5_5
REMARK    4  A    between atoms: C5_5  and  C6_6
REMARK       I    between atoms: C6_6  and  N1_8
REMARK    5  A    between atoms: N1_8  and  C7_10
REMARK    6  A    between atoms: C7_10  and  C8_11
REMARK    7  A    between atoms: C9_12  and  O2_13
REMARK    8  A    between atoms: C11_15  and  C12_16
REMARK    9  A    between atoms: C12_16  and  C13_17
REMARK   10  A    between atoms: C13_17  and  C15_19
REMARK       I    between atoms: C15_19  and  N2_21
REMARK   11  A    between atoms: N2_21  and  C16_23
REMARK   12  A    between atoms: C23_31  and  O5_32
REMARK   13  A    between atoms: N3_36  and  C26_37
ROOT
HETATM    1  C8  UNL     1      12.472  21.903  17.901  1.00  0.00     0.104 C
HETATM    2  C9  UNL     1      11.062  21.517  18.360  1.00  0.00     0.160 C
HETATM    3  C11 UNL     1      10.644  20.339  17.464  1.00  0.00     0.152 C
HETATM    4  O4  UNL     1      11.397  19.212  17.722  1.00  0.00    -0.370 OA
HETATM    5  C22 UNL     1      12.633  19.500  18.194  1.00  0.00     0.220 C
HETATM    6  C23 UNL     1      13.714  18.473  17.849  1.00  0.00     0.182 C
HETATM    7  C24 UNL     1      14.904  19.393  17.761  1.00  0.00     0.184 C
HETATM    8  C25 UNL     1      14.952  19.814  16.280  1.00  0.00     0.311 C
HETATM    9  N3  UNL     1      13.683  20.508  16.220  1.00  0.00     0.134 N
HETATM   10  C31 UNL     1      13.277  20.741  17.549  1.00  0.00     0.298 C
HETATM   11  O6  UNL     1      14.502  20.645  18.275  1.00  0.00    -0.340 OA
ENDROOT
BRANCH   3  12
HETATM   12  C12 UNL     1       9.194  20.070  17.542  1.00  0.00     0.048 C
BRANCH  12  13
HETATM   13  C13 UNL     1       8.808  18.772  18.182  1.00  0.00     0.076 C
HETATM   14  C14 UNL     1       7.653  19.057  19.189  1.00  0.00     0.020 C
BRANCH  13  15
HETATM   15  C15 UNL     1       8.355  17.766  17.228  1.00  0.00     0.221 C
HETATM   16  O3  UNL     1       8.199  16.575  17.522  1.00  0.00    -0.273 OA
HETATM   17  N2  UNL     1       8.070  18.157  15.866  1.00  0.00    -0.356 N
ATOM     18  H2  UNL     1       8.196  19.133  15.598  1.00  0.00     0.162 HD
BRANCH  17  19
HETATM   19  C16 UNL     1       7.617  17.221  14.875  1.00  0.00     0.084 C
HETATM   20  C17 UNL     1       8.773  16.525  14.176  1.00  0.00     0.025 C
HETATM   21  C18 UNL     1       9.049  15.153  14.788  1.00  0.00     0.002 C
HETATM   22  C19 UNL     1       7.850  14.234  14.584  1.00  0.00     0.000 C
HETATM   23  C20 UNL     1       6.580  15.061  14.475  1.00  0.00     0.002 C
HETATM   24  C21 UNL     1       6.723  16.166  15.520  1.00  0.00     0.025 C
ENDBRANCH  17  19
ENDBRANCH  13  15
ENDBRANCH  12  13
ENDBRANCH   3  12
BRANCH   2  25
HETATM   25  O2  UNL     1      10.969  21.213  19.682  1.00  0.00    -0.388 OA
HETATM   26  C10 UNL     1       9.983  21.789  20.422  1.00  0.00     0.202 C
ENDBRANCH   2  25
BRANCH   1  27
HETATM   27  C7  UNL     1      13.204  22.777  18.887  1.00  0.00     0.135 C
BRANCH  27  28
HETATM   28  N1  UNL     1      13.879  23.852  18.231  1.00  0.00    -0.360 N
HETATM   29  C6  UNL     1      14.819  24.674  18.882  1.00  0.00     0.217 C
HETATM   30  O1  UNL     1      15.060  24.434  20.102  1.00  0.00    -0.274 OA
ATOM     31  H1  UNL     1      13.671  24.030  17.249  1.00  0.00     0.162 HD
BRANCH  29  32
HETATM   32  C5  UNL     1      15.523  25.779  18.216  1.00  0.00     0.103 C
BRANCH  32  33
HETATM   33  C4  UNL     1      16.940  25.884  18.738  1.00  0.00     0.009 C
BRANCH  33  34
HETATM   34  C3  UNL     1      17.931  25.444  17.702  1.00  0.00     0.000 C
BRANCH  34  35
HETATM   35  C2  UNL     1      18.079  23.940  17.767  1.00  0.00    -0.005 C
HETATM   36  C1  UNL     1      18.461  23.362  16.421  1.00  0.00     0.005 C
ENDBRANCH  34  35
ENDBRANCH  33  34
ENDBRANCH  32  33
ENDBRANCH  29  32
ENDBRANCH  27  28
ENDBRANCH   1  27
BRANCH   6  37
HETATM   37  O5  UNL     1      13.846  17.532  18.863  1.00  0.00    -0.390 OA
ATOM     38  H5  UNL     1      14.179  16.710  18.521  1.00  0.00     0.210 HD
ENDBRANCH   6  37
BRANCH   9  39
HETATM   39  C26 UNL     1      13.677  21.528  15.270  1.00  0.00     0.227 C
HETATM   40  C27 UNL     1      13.573  20.893  13.876  1.00  0.00     0.036 C
HETATM   41  C28 UNL     1      13.916  21.989  12.923  1.00  0.00     0.002 C
HETATM   42  C29 UNL     1      14.738  22.974  13.698  1.00  0.00     0.002 C
HETATM   43  C30 UNL     1      14.906  22.372  15.107  1.00  0.00     0.036 C
ENDBRANCH   9  39
TORSDOF 13
ENDMDL