MODEL 2
REMARK VINA RESULT: -8.465868066      2.707     10.793
REMARK  16 active torsions:
REMARK  status: ('A' for Active; 'I' for Inactive)
REMARK    1  A    between atoms: C2_2  and  C3_3
REMARK    2  A    between atoms: C3_3  and  N1_4
REMARK    3  A    between atoms: C3_3  and  C17_27
REMARK       I    between atoms: N1_4  and  C4_6
REMARK    4  A    between atoms: C4_6  and  C5_8
REMARK    5  A    between atoms: C5_8  and  O2_10
REMARK    6  A    between atoms: O2_10  and  C7_11
REMARK       I    between atoms: C7_11  and  N2_13
REMARK    7  A    between atoms: C10_16  and  N3_17
REMARK       I    between atoms: N3_17  and  C11_19
REMARK    8  A    between atoms: C11_19  and  O5_21
REMARK    9  A    between atoms: O5_21  and  C12_22
REMARK       I    between atoms: C17_27  and  N4_29
REMARK   10  A    between atoms: N4_29  and  C18_31
REMARK   11  A    between atoms: C18_31  and  C19_32
REMARK   12  A    between atoms: C18_31  and  C26_39
REMARK   13  A    between atoms: C19_32  and  C20_33
REMARK   14  A    between atoms: C20_33  and  C22_35
REMARK   15  A    between atoms: C22_35  and  C23_36
REMARK   16  A    between atoms: C26_39  and  O8_41
ROOT
HETATM    1  N1  UNL     1      13.568  21.984  16.749  1.00  0.00    -0.346 N
ATOM      2  H1  UNL     1      14.373  21.840  17.358  1.00  0.00     0.163 HD
HETATM    3  C4  UNL     1      12.294  22.230  17.308  1.00  0.00     0.247 C
HETATM    4  O1  UNL     1      11.306  22.391  16.576  1.00  0.00    -0.271 OA
ENDROOT
BRANCH   1   5
HETATM    5  C3  UNL     1      13.733  21.935  15.295  1.00  0.00     0.176 C
BRANCH   5   6
HETATM    6  C2  UNL     1      13.798  20.511  14.772  1.00  0.00     0.030 C
HETATM    7  C1  UNL     1      14.765  19.643  15.521  1.00  0.00     0.007 C
ENDBRANCH   5   6
BRANCH   5   8
HETATM    8  C17 UNL     1      14.920  22.674  14.853  1.00  0.00     0.241 C
HETATM    9  O6  UNL     1      14.974  23.144  13.704  1.00  0.00    -0.271 OA
HETATM   10  N4  UNL     1      16.043  22.872  15.722  1.00  0.00    -0.345 N
ATOM     11  H4  UNL     1      16.005  22.480  16.663  1.00  0.00     0.163 HD
BRANCH  10  12
HETATM   12  C18 UNL     1      17.202  23.587  15.336  1.00  0.00     0.184 C
BRANCH  12  13
HETATM   13  C19 UNL     1      17.780  24.604  16.259  1.00  0.00     0.040 C
BRANCH  13  14
HETATM   14  C20 UNL     1      17.803  24.299  17.703  1.00  0.00    -0.016 C
HETATM   15  C21 UNL     1      18.356  25.483  18.544  1.00  0.00     0.010 C
BRANCH  14  16
HETATM   16  C22 UNL     1      16.513  23.928  18.364  1.00  0.00     0.008 C
BRANCH  16  17
HETATM   17  C23 UNL     1      15.761  24.948  19.108  1.00  0.00    -0.023 C
HETATM   18  C24 UNL     1      15.354  24.666  20.521  1.00  0.00     0.009 C
HETATM   19  C25 UNL     1      14.471  25.338  18.337  1.00  0.00     0.009 C
ENDBRANCH  16  17
ENDBRANCH  14  16
ENDBRANCH  13  14
ENDBRANCH  12  13
BRANCH  12  20
HETATM   20  C26 UNL     1      18.280  22.681  14.821  1.00  0.00     0.281 C
HETATM   21  O7  UNL     1      19.103  22.171  15.611  1.00  0.00    -0.263 OA
BRANCH  20  22
HETATM   22  O8  UNL     1      18.381  22.400  13.478  1.00  0.00    -0.325 OA
HETATM   23  C27 UNL     1      18.130  23.400  12.521  1.00  0.00     0.213 C
ENDBRANCH  20  22
ENDBRANCH  12  20
ENDBRANCH  10  12
ENDBRANCH   5   8
ENDBRANCH   1   5
BRANCH   3  24
HETATM   24  C5  UNL     1      12.119  22.305  18.776  1.00  0.00     0.221 C
HETATM   25  C6  UNL     1      13.130  21.592  19.580  1.00  0.00     0.050 C
BRANCH  24  26
HETATM   26  O2  UNL     1      10.821  21.889  19.134  1.00  0.00    -0.289 OA
BRANCH  26  27
HETATM   27  C7  UNL     1      10.439  21.139  20.220  1.00  0.00     0.363 C
HETATM   28  O3  UNL     1      10.244  21.800  21.306  1.00  0.00    -0.238 OA
HETATM   29  N2  UNL     1      10.259  19.745  20.161  1.00  0.00    -0.326 N
HETATM   30  C8  UNL     1       9.805  18.847  21.175  1.00  0.00     0.130 C
HETATM   31  C16 UNL     1      10.527  18.922  19.012  1.00  0.00     0.153 C
HETATM   32  C9  UNL     1       8.935  17.854  20.361  1.00  0.00     0.047 C
HETATM   33  C10 UNL     1       9.133  18.231  18.920  1.00  0.00     0.106 C
BRANCH  33  34
HETATM   34  N3  UNL     1       9.223  17.120  18.010  1.00  0.00    -0.331 N
HETATM   35  C11 UNL     1       8.097  16.345  17.620  1.00  0.00     0.361 C
HETATM   36  O4  UNL     1       6.947  16.617  18.072  1.00  0.00    -0.238 OA
ATOM     37  H3  UNL     1      10.137  16.878  17.626  1.00  0.00     0.165 HD
BRANCH  35  38
HETATM   38  O5  UNL     1       8.182  15.295  16.757  1.00  0.00    -0.294 OA
BRANCH  38  39
HETATM   39  C12 UNL     1       8.023  15.270  15.377  1.00  0.00     0.061 C
HETATM   40  C13 UNL     1       9.447  15.343  14.793  1.00  0.00     0.046 C
HETATM   41  C14 UNL     1       7.341  14.091  14.795  1.00  0.00     0.046 C
HETATM   42  C15 UNL     1       7.294  16.537  14.891  1.00  0.00     0.046 C
ENDBRANCH  38  39
ENDBRANCH  35  38
ENDBRANCH  33  34
ENDBRANCH  26  27
ENDBRANCH  24  26
ENDBRANCH   3  24
TORSDOF 16
ENDMDL