MODEL 2
REMARK VINA RESULT: -8.887932327      2.067      2.705
REMARK  16 active torsions:
REMARK  status: ('A' for Active; 'I' for Inactive)
REMARK    1  A    between atoms: N1_2  and  C3_4
REMARK    2  A    between atoms: C3_4  and  O1_5
REMARK    3  A    between atoms: C3_4  and  C4_7
REMARK    4  A    between atoms: C5_10  and  N3_11
REMARK       I    between atoms: N3_11  and  C6_13
REMARK    5  A    between atoms: C6_13  and  C7_15
REMARK    6  A    between atoms: C14_23  and  C15_24
REMARK    7  A    between atoms: C15_24  and  C16_26
REMARK    8  A    between atoms: C16_26  and  C17_27
REMARK    9  A    between atoms: C17_27  and  C18_28
REMARK   10  A    between atoms: C18_28  and  C19_29
REMARK   11  A    between atoms: C19_29  and  C20_30
REMARK   12  A    between atoms: C20_30  and  C21_31
REMARK   13  A    between atoms: C21_31  and  C22_32
REMARK   14  A    between atoms: C22_32  and  C23_33
REMARK   15  A    between atoms: C23_33  and  C24_34
REMARK       I    between atoms: C24_34  and  N4_36
REMARK   16  A    between atoms: N4_36  and  C25_38
ROOT
HETATM    1  C4  UNL     1       9.130  17.799  17.639  1.00  0.00     0.096 A
HETATM    2  N2  UNL     1       8.779  16.650  17.096  1.00  0.00    -0.338 N
ATOM      3  H2  UNL     1       8.097  16.101  17.620  1.00  0.00     0.167 HD
HETATM    4  C5  UNL     1       9.207  16.102  15.926  1.00  0.00     0.109 A
HETATM    5  C12 UNL     1      10.117  16.843  15.229  1.00  0.00     0.068 A
HETATM    6  C13 UNL     1      10.534  18.073  15.747  1.00  0.00     0.022 A
HETATM    7  S1  UNL     1      11.631  19.236  15.161  1.00  0.00    -0.086 SA
HETATM    8  C14 UNL     1      11.508  20.374  16.418  1.00  0.00     0.052 A
HETATM    9  C26 UNL     1      10.595  19.797  17.272  1.00  0.00     0.038 A
HETATM   10  C27 UNL     1      10.089  18.605  16.928  1.00  0.00     0.014 A
ENDROOT
BRANCH   8  11
HETATM   11  C15 UNL     1      12.222  21.663  16.536  1.00  0.00     0.166 C
HETATM   12  O3  UNL     1      12.943  22.008  15.601  1.00  0.00    -0.292 OA
BRANCH  11  13
HETATM   13  C16 UNL     1      12.003  22.452  17.799  1.00  0.00     0.084 C
BRANCH  13  14
HETATM   14  C17 UNL     1      13.176  22.390  18.699  1.00  0.00     0.008 C
BRANCH  14  15
HETATM   15  C18 UNL     1      14.233  23.409  18.527  1.00  0.00     0.000 C
BRANCH  15  16
HETATM   16  C19 UNL     1      15.086  23.648  19.740  1.00  0.00     0.000 C
BRANCH  16  17
HETATM   17  C20 UNL     1      15.311  25.141  19.866  1.00  0.00     0.000 C
BRANCH  17  18
HETATM   18  C21 UNL     1      15.586  25.803  18.558  1.00  0.00     0.000 C
BRANCH  18  19
HETATM   19  C22 UNL     1      17.047  26.147  18.377  1.00  0.00     0.009 C
BRANCH  19  20
HETATM   20  C23 UNL     1      17.476  25.494  17.055  1.00  0.00     0.103 C
BRANCH  20  21
HETATM   21  C24 UNL     1      17.774  24.073  17.236  1.00  0.00     0.235 C
HETATM   22  O4  UNL     1      18.396  23.655  18.266  1.00  0.00    -0.273 OA
HETATM   23  N4  UNL     1      17.394  23.112  16.290  1.00  0.00    -0.157 N
ATOM     24  H4  UNL     1      17.630  22.140  16.487  1.00  0.00     0.187 HD
BRANCH  23  25
HETATM   25  C25 UNL     1      16.774  23.359  15.195  1.00  0.00     0.716 A
HETATM   26  N5  UNL     1      17.224  23.836  14.021  1.00  0.00    -0.115 N
HETATM   27  N6  UNL     1      16.183  23.904  13.212  1.00  0.00    -0.213 N
ATOM     28  H5  UNL     1      18.185  24.094  13.797  1.00  0.00     0.207 HD
HETATM   29  N7  UNL     1      15.093  23.492  13.825  1.00  0.00    -0.213 N
ATOM     30  H6  UNL     1      16.218  24.231  12.247  1.00  0.00     0.210 HD
HETATM   31  N8  UNL     1      15.442  23.154  15.042  1.00  0.00    -0.115 N
ATOM     32  H7  UNL     1      14.155  23.445  13.428  1.00  0.00     0.210 HD
ATOM     33  H8  UNL     1      14.812  22.795  15.760  1.00  0.00     0.207 HD
ENDBRANCH  23  25
ENDBRANCH  20  21
ENDBRANCH  19  20
ENDBRANCH  18  19
ENDBRANCH  17  18
ENDBRANCH  16  17
ENDBRANCH  15  16
ENDBRANCH  14  15
ENDBRANCH  13  14
ENDBRANCH  11  13
ENDBRANCH   8  11
BRANCH   1  34
HETATM   34  C3  UNL     1       8.584  18.254  18.893  1.00  0.00     0.165 C
BRANCH  34  35
HETATM   35  N1  UNL     1       8.910  17.939  20.195  1.00  0.00    -0.369 N
HETATM   36  C1  UNL     1       8.308  17.068  21.148  1.00  0.00     0.151 C
HETATM   37  C2  UNL     1      10.151  18.628  20.764  1.00  0.00     0.151 C
ENDBRANCH  34  35
BRANCH  34  38
HETATM   38  O1  UNL     1       7.595  19.128  18.823  1.00  0.00    -0.344 OA
ATOM     39  H1  UNL     1       7.772  19.822  18.199  1.00  0.00     0.219 HD
ENDBRANCH  34  38
ENDBRANCH   1  34
BRANCH   4  40
HETATM   40  N3  UNL     1       8.776  14.963  15.512  1.00  0.00    -0.313 N
HETATM   41  C6  UNL     1       7.493  14.833  14.918  1.00  0.00     0.227 C
HETATM   42  O2  UNL     1       7.447  14.847  13.654  1.00  0.00    -0.273 OA
ATOM     43  H3  UNL     1       9.368  14.137  15.613  1.00  0.00     0.170 HD
BRANCH  41  44
HETATM   44  C7  UNL     1       6.257  14.686  15.731  1.00  0.00     0.078 C
HETATM   45  C8  UNL     1       5.496  15.982  15.689  1.00  0.00     0.014 C
HETATM   46  C9  UNL     1       4.035  15.656  15.697  1.00  0.00     0.001 C
HETATM   47  C10 UNL     1       3.948  14.142  15.573  1.00  0.00     0.001 C
HETATM   48  C11 UNL     1       5.308  13.686  15.121  1.00  0.00     0.014 C
ENDBRANCH  41  44
ENDBRANCH   4  40
TORSDOF 16
ENDMDL