MODEL 1
REMARK VINA RESULT: -8.478455349      0.000      0.000
REMARK  12 active torsions:
REMARK  status: ('A' for Active; 'I' for Inactive)
REMARK    1  A    between atoms: C2_2  and  C3_3
REMARK    2  A    between atoms: C3_3  and  C4_4
REMARK    3  A    between atoms: C4_4  and  C5_5
REMARK    4  A    between atoms: C5_5  and  N1_6
REMARK    5  A    between atoms: C5_5  and  C19_27
REMARK       I    between atoms: N1_6  and  C6_8
REMARK    6  A    between atoms: C6_8  and  C7_10
REMARK    7  A    between atoms: C11_15  and  C12_16
REMARK    8  A    between atoms: C12_16  and  C13_18
REMARK       I    between atoms: C13_18  and  N2_20
REMARK    9  A    between atoms: N2_20  and  C14_22
REMARK   10  A    between atoms: C19_27  and  C20_29
REMARK       I    between atoms: C20_29  and  N3_31
REMARK   11  A    between atoms: N3_31  and  C21_33
REMARK   12  A    between atoms: C21_33  and  C22_34
ROOT
HETATM    1  C5  UNL     1       6.374  15.285  16.506  1.00  0.00     0.165 C
ENDROOT
BRANCH   1   2
HETATM    2  C4  UNL     1       5.180  15.361  15.656  1.00  0.00     0.043 C
BRANCH   2   3
HETATM    3  C3  UNL     1       4.269  14.264  15.366  1.00  0.00    -0.038 C
HETATM    4  C26 UNL     1       4.910  13.182  14.489  1.00  0.00     0.010 C
HETATM    5  C27 UNL     1       4.079  11.970  14.812  1.00  0.00     0.001 C
HETATM    6  C28 UNL     1       3.602  12.145  16.224  1.00  0.00     0.001 C
HETATM    7  C29 UNL     1       4.160  13.447  16.692  1.00  0.00     0.010 C
BRANCH   3   8
HETATM    8  C2  UNL     1       2.916  14.518  14.830  1.00  0.00     0.005 C
HETATM    9  C1  UNL     1       2.287  15.818  15.287  1.00  0.00     0.006 C
ENDBRANCH   3   8
ENDBRANCH   2   3
ENDBRANCH   1   2
BRANCH   1  10
HETATM   10  N1  UNL     1       6.430  16.612  17.266  1.00  0.00    -0.349 N
HETATM   11  C6  UNL     1       5.943  16.715  18.567  1.00  0.00     0.224 C
HETATM   12  O1  UNL     1       5.472  15.634  19.083  1.00  0.00    -0.273 OA
ATOM     13  H1  UNL     1       6.830  17.433  16.813  1.00  0.00     0.163 HD
BRANCH  11  14
HETATM   14  C7  UNL     1       5.929  17.924  19.348  1.00  0.00     0.100 C
HETATM   15  C8  UNL     1       4.576  18.073  20.060  1.00  0.00     0.089 C
HETATM   16  S1  UNL     1       4.971  17.315  21.662  1.00  0.00    -0.163 SA
HETATM   17  C9  UNL     1       6.799  17.425  21.560  1.00  0.00     0.056 C
HETATM   18  C10 UNL     1       7.491  16.125  21.655  1.00  0.00     0.022 C
HETATM   19  C11 UNL     1       6.994  18.215  20.318  1.00  0.00     0.092 C
BRANCH  19  20
HETATM   20  C12 UNL     1       8.319  18.217  19.730  1.00  0.00     0.222 C
HETATM   21  O2  UNL     1       8.775  17.317  18.958  1.00  0.00    -0.287 OA
BRANCH  20  22
HETATM   22  C13 UNL     1       9.243  19.322  20.016  1.00  0.00     0.288 C
HETATM   23  O3  UNL     1       9.602  19.509  21.195  1.00  0.00    -0.264 OA
HETATM   24  N2  UNL     1       9.746  20.185  19.026  1.00  0.00    -0.350 N
ATOM     25  H2  UNL     1       9.439  20.025  18.066  1.00  0.00     0.163 HD
BRANCH  24  26
HETATM   26  C14 UNL     1      10.649  21.265  19.251  1.00  0.00     0.084 C
HETATM   27  C15 UNL     1      10.981  22.012  17.965  1.00  0.00     0.025 C
HETATM   28  C16 UNL     1      12.363  22.613  18.224  1.00  0.00     0.002 C
HETATM   29  C17 UNL     1      13.054  21.545  19.003  1.00  0.00     0.002 C
HETATM   30  C18 UNL     1      11.972  20.900  19.823  1.00  0.00     0.025 C
ENDBRANCH  24  26
ENDBRANCH  20  22
ENDBRANCH  19  20
ENDBRANCH  11  14
ENDBRANCH   1  10
BRANCH   1  31
HETATM   31  C19 UNL     1       7.641  15.174  15.792  1.00  0.00     0.239 C
HETATM   32  O4  UNL     1       8.200  14.048  15.549  1.00  0.00    -0.285 OA
BRANCH  31  33
HETATM   33  C20 UNL     1       8.389  16.356  15.275  1.00  0.00     0.293 C
HETATM   34  O5  UNL     1       7.644  17.184  14.707  1.00  0.00    -0.264 OA
HETATM   35  N3  UNL     1       9.762  16.438  15.453  1.00  0.00    -0.332 N
ATOM     36  H3  UNL     1      10.172  15.637  15.932  1.00  0.00     0.168 HD
BRANCH  35  37
HETATM   37  C21 UNL     1      10.673  17.417  15.094  1.00  0.00     0.096 C
BRANCH  37  38
HETATM   38  C22 UNL     1      10.705  18.765  15.663  1.00  0.00     0.159 C
HETATM   39  C23 UNL     1      11.836  19.648  15.276  1.00  0.00     0.039 C
HETATM   40  C24 UNL     1      13.019  18.859  15.861  1.00  0.00     0.029 C
HETATM   41  C25 UNL     1      12.359  18.273  17.104  1.00  0.00     0.168 C
HETATM   42  O6  UNL     1      11.020  18.668  17.080  1.00  0.00    -0.381 OA
ENDBRANCH  37  38
ENDBRANCH  35  37
ENDBRANCH  31  33
ENDBRANCH   1  31
TORSDOF 12
ENDMDL