MODEL 3
REMARK VINA RESULT: -8.889425048      2.116      2.647
REMARK  12 active torsions:
REMARK  status: ('A' for Active; 'I' for Inactive)
REMARK    1  A    between atoms: C2_2  and  C3_4
REMARK    2  A    between atoms: C3_4  and  C4_5
REMARK    3  A    between atoms: C3_4  and  N2_16
REMARK    4  A    between atoms: C4_5  and  S1_6
REMARK    5  A    between atoms: S1_6  and  C5_7
REMARK    6  A    between atoms: C5_7  and  C6_8
REMARK       I    between atoms: C6_8  and  N1_10
REMARK    7  A    between atoms: N1_10  and  S2_12
REMARK    8  A    between atoms: N2_16  and  N3_18
REMARK       I    between atoms: N3_18  and  C7_20
REMARK    9  A    between atoms: C7_20  and  C8_22
REMARK   10  A    between atoms: C13_29  and  O9_30
REMARK   11  A    between atoms: C16_35  and  O11_36
REMARK   12  A    between atoms: N4_40  and  N5_41
ROOT
HETATM    1  C8  UNL     1      -9.346  19.295 -28.583  1.00  0.00     0.107 A
HETATM    2  C9  UNL     1      -9.703  20.251 -27.688  1.00  0.00     0.165 A
HETATM    3  O7  UNL     1      -9.210  20.274 -26.451  1.00  0.00    -0.302 OA
HETATM    4  C10 UNL     1      -8.368  19.392 -26.042  1.00  0.00     0.185 A
HETATM    5  C11 UNL     1      -7.946  18.397 -26.880  1.00  0.00     0.101 A
HETATM    6  C12 UNL     1      -8.399  18.299 -28.166  1.00  0.00     0.206 A
HETATM    7  O8  UNL     1      -8.055  17.427 -28.980  1.00  0.00    -0.286 OA
HETATM    8  C13 UNL     1      -7.031  17.272 -26.563  1.00  0.00     0.087 C
HETATM    9  C14 UNL     1      -6.755  16.740 -25.354  1.00  0.00     0.077 C
HETATM   10  C15 UNL     1      -7.325  17.173 -24.074  1.00  0.00     0.110 A
HETATM   11  O10 UNL     1      -7.459  16.444 -22.985  1.00  0.00    -0.286 OA
HETATM   12  C16 UNL     1      -7.996  17.109 -22.001  1.00  0.00     0.185 A
HETATM   13  C17 UNL     1      -8.235  18.370 -22.467  1.00  0.00     0.098 A
HETATM   14  C18 UNL     1      -7.819  18.423 -23.776  1.00  0.00     0.097 A
HETATM   15  N4  UNL     1      -7.959  19.559 -24.664  1.00  0.00    -0.237 N
ENDROOT
BRANCH   1  16
HETATM   16  C7  UNL     1      -9.843  19.091 -29.905  1.00  0.00     0.275 C
HETATM   17  N3  UNL     1      -8.976  19.181 -31.103  1.00  0.00    -0.269 N
ATOM     18  H3  UNL     1      -7.996  19.461 -31.070  1.00  0.00     0.190 HD
HETATM   19  O6  UNL     1     -11.056  18.805 -30.133  1.00  0.00    -0.266 OA
BRANCH  17  20
HETATM   20  N2  UNL     1      -9.593  18.869 -32.194  1.00  0.00    -0.321 N
ATOM     21  H2  UNL     1     -10.610  18.836 -32.115  1.00  0.00     0.181 HD
BRANCH  20  22
HETATM   22  C3  UNL     1      -9.064  18.553 -33.534  1.00  0.00     0.177 C
BRANCH  22  23
HETATM   23  C2  UNL     1      -9.512  19.712 -34.264  1.00  0.00     0.147 C
HETATM   24  C1  UNL     1     -10.008  19.783 -35.632  1.00  0.00     0.093 C
HETATM   25  O1  UNL     1      -9.454  20.843 -33.689  1.00  0.00    -0.296 OA
ENDBRANCH  22  23
BRANCH  22  26
HETATM   26  C4  UNL     1      -7.735  17.976 -33.311  1.00  0.00     0.113 C
BRANCH  26  27
HETATM   27  S1  UNL     1      -6.339  18.910 -33.338  1.00  0.00    -0.134 SA
BRANCH  27  28
HETATM   28  C5  UNL     1      -4.684  18.685 -33.386  1.00  0.00     0.120 C
BRANCH  28  29
HETATM   29  C6  UNL     1      -3.805  18.303 -34.469  1.00  0.00     0.262 C
HETATM   30  O2  UNL     1      -3.827  18.746 -35.598  1.00  0.00    -0.267 OA
HETATM   31  N1  UNL     1      -2.828  17.303 -34.164  1.00  0.00    -0.231 N
ATOM     32  H1  UNL     1      -2.774  16.912 -33.223  1.00  0.00     0.184 HD
BRANCH  31  33
HETATM   33  S2  UNL     1      -1.752  16.763 -35.378  1.00  0.00     0.211 S
HETATM   34  O3  UNL     1      -0.959  17.896 -35.955  1.00  0.00    -0.578 OA
HETATM   35  O4  UNL     1      -2.532  16.084 -36.487  1.00  0.00    -0.578 OA
HETATM   36  O5  UNL     1      -0.730  15.570 -34.749  1.00  0.00    -0.578 OA
ENDBRANCH  31  33
ENDBRANCH  28  29
ENDBRANCH  27  28
ENDBRANCH  26  27
ENDBRANCH  22  26
ENDBRANCH  20  22
ENDBRANCH  17  20
ENDBRANCH   1  16
BRANCH   8  37
HETATM   37  O9  UNL     1      -6.421  16.743 -27.677  1.00  0.00    -0.359 OA
ATOM     38  H9  UNL     1      -5.688  16.177 -27.467  1.00  0.00     0.217 HD
ENDBRANCH   8  37
BRANCH  15  39
HETATM   39  N5  UNL     1      -7.738  20.781 -24.160  1.00  0.00    -0.336 N
ATOM     40  H52 UNL     1      -8.140  21.580 -24.650  1.00  0.00     0.177 HD
ATOM     41  H51 UNL     1      -7.158  20.904 -23.330  1.00  0.00     0.177 HD
ENDBRANCH  15  39
BRANCH  12  42
HETATM   42  O11 UNL     1      -8.282  16.624 -20.704  1.00  0.00    -0.341 OA
ATOM     43  H11 UNL     1      -9.133  16.589 -20.282  1.00  0.00     0.220 HD
ENDBRANCH  12  42
TORSDOF 12
ENDMDL