MODEL 1
REMARK VINA RESULT: -11.203890041      0.000      0.000
REMARK  12 active torsions:
REMARK  status: ('A' for Active; 'I' for Inactive)
REMARK    1  A    between atoms: N1_1  and  C1_4
REMARK    2  A    between atoms: C2_7  and  N3_8
REMARK    3  A    between atoms: C8_16  and  N5_17
REMARK    4  A    between atoms: N5_17  and  C9_19
REMARK    5  A    between atoms: C9_19  and  C10_20
REMARK    6  A    between atoms: N8_25  and  C11_26
REMARK    7  A    between atoms: C11_26  and  C12_27
REMARK    8  A    between atoms: C12_27  and  O1_28
REMARK    9  A    between atoms: O1_28  and  N9_29
REMARK   10  A    between atoms: C13_31  and  C14_32
REMARK       I    between atoms: N11_36  and  C16_38
REMARK   11  A    between atoms: C17_43  and  O4_44
REMARK   12  A    between atoms: C18_46  and  O5_47
ROOT
HETATM    1  C10 UNL     1      -9.511  19.696 -32.179  1.00  0.00     0.117 A
HETATM    2  N6  UNL     1     -10.403  20.686 -32.064  1.00  0.00    -0.281 N
ATOM      3  H6  UNL     1     -10.675  21.329 -32.808  1.00  0.00     0.188 HD
HETATM    4  N7  UNL     1     -10.873  20.694 -30.834  1.00  0.00    -0.238 N
ATOM      5  H7  UNL     1     -11.568  21.345 -30.468  1.00  0.00     0.208 HD
HETATM    6  N8  UNL     1     -10.300  19.727 -30.155  1.00  0.00    -0.253 N
HETATM    7  C18 UNL     1      -9.443  19.077 -30.952  1.00  0.00     0.188 A
ENDROOT
BRANCH   1   8
HETATM    8  C9  UNL     1      -8.709  19.298 -33.409  1.00  0.00     0.125 C
BRANCH   8   9
HETATM    9  N5  UNL     1      -7.375  19.739 -33.303  1.00  0.00    -0.348 N
ATOM     10  H5  UNL     1      -7.187  20.666 -33.687  1.00  0.00     0.167 HD
BRANCH   9  11
HETATM   11  C8  UNL     1      -6.392  19.153 -32.807  1.00  0.00     0.136 A
HETATM   12  C7  UNL     1      -5.483  18.441 -33.533  1.00  0.00     0.123 A
HETATM   13  N4  UNL     1      -5.575  18.312 -34.866  1.00  0.00    -0.185 N
HETATM   14  C20 UNL     1      -4.395  17.804 -32.904  1.00  0.00     0.109 A
HETATM   15  C2  UNL     1      -4.702  17.622 -35.612  1.00  0.00     0.682 A
ATOM     16  H4  UNL     1      -6.355  18.767 -35.339  1.00  0.00     0.184 HD
HETATM   17  N2  UNL     1      -3.667  17.022 -34.982  1.00  0.00    -0.175 N
HETATM   18  C1  UNL     1      -3.488  17.091 -33.655  1.00  0.00     0.144 A
ATOM     19  H2  UNL     1      -2.995  16.494 -35.540  1.00  0.00     0.186 HD
HETATM   20  N14 UNL     1      -4.223  17.880 -31.573  1.00  0.00    -0.347 N
HETATM   21  C19 UNL     1      -5.124  18.584 -30.863  1.00  0.00     0.182 A
ATOM     22  H14 UNL     1      -3.435  17.419 -31.116  1.00  0.00     0.167 HD
HETATM   23  N13 UNL     1      -6.157  19.191 -31.451  1.00  0.00    -0.337 N
ATOM     24  H13 UNL     1      -6.808  19.711 -30.863  1.00  0.00     0.168 HD
BRANCH  15  25
HETATM   25  N3  UNL     1      -4.844  17.514 -37.036  1.00  0.00    -0.218 N
HETATM   26  C3  UNL     1      -5.044  18.620 -37.936  1.00  0.00     0.141 C
HETATM   27  C4  UNL     1      -5.576  18.032 -39.225  1.00  0.00     0.022 C
HETATM   28  C5  UNL     1      -5.468  16.528 -39.093  1.00  0.00     0.022 C
HETATM   29  C6  UNL     1      -4.803  16.264 -37.759  1.00  0.00     0.141 C
ENDBRANCH  15  25
BRANCH  18  30
HETATM   30  N1  UNL     1      -2.507  16.523 -33.039  1.00  0.00    -0.383 N
ATOM     31  H12 UNL     1      -1.563  16.704 -33.378  1.00  0.00     0.157 HD
ATOM     32  H11 UNL     1      -2.629  15.907 -32.236  1.00  0.00     0.157 HD
ENDBRANCH  18  30
ENDBRANCH   9  11
ENDBRANCH   8   9
ENDBRANCH   1   8
BRANCH   7  33
HETATM   33  O5  UNL     1      -8.617  17.993 -30.679  1.00  0.00    -0.343 OA
ATOM     34  H5  UNL     1      -8.750  17.400 -29.950  1.00  0.00     0.219 HD
ENDBRANCH   7  33
BRANCH   6  35
HETATM   35  C11 UNL     1     -10.548  19.401 -28.760  1.00  0.00     0.181 C
BRANCH  35  36
HETATM   36  C12 UNL     1      -9.816  20.427 -27.916  1.00  0.00     0.223 C
BRANCH  36  37
HETATM   37  O1  UNL     1      -9.261  19.877 -26.748  1.00  0.00    -0.279 OA
BRANCH  37  38
HETATM   38  N9  UNL     1      -8.745  20.674 -25.801  1.00  0.00    -0.276 N
HETATM   39  C13 UNL     1      -8.159  20.289 -24.761  1.00  0.00     0.148 C
ATOM     40  H9  UNL     1      -8.837  21.680 -25.939  1.00  0.00     0.193 HD
BRANCH  39  41
HETATM   41  C14 UNL     1      -7.945  18.897 -24.412  1.00  0.00     0.117 A
HETATM   42  N10 UNL     1      -7.290  17.992 -25.137  1.00  0.00    -0.186 N
HETATM   43  C15 UNL     1      -7.315  16.805 -24.452  1.00  0.00     0.690 A
ATOM     44  H10 UNL     1      -6.848  18.154 -26.041  1.00  0.00     0.184 HD
HETATM   45  N11 UNL     1      -6.795  15.678 -24.807  1.00  0.00    -0.133 N
HETATM   46  N12 UNL     1      -7.988  16.989 -23.303  1.00  0.00    -0.168 N
HETATM   47  C16 UNL     1      -6.110  15.617 -26.043  1.00  0.00     0.302 C
ATOM     48  H11 UNL     1      -6.876  14.853 -24.212  1.00  0.00     0.190 HD
HETATM   49  O2  UNL     1      -6.740  15.466 -27.116  1.00  0.00    -0.629 OA
HETATM   50  O3  UNL     1      -4.735  15.727 -26.066  1.00  0.00    -0.629 OA
HETATM   51  C17 UNL     1      -8.387  18.265 -23.251  1.00  0.00     0.184 A
ATOM     52  H12 UNL     1      -8.165  16.278 -22.593  1.00  0.00     0.186 HD
BRANCH  51  53
HETATM   53  O4  UNL     1      -9.112  18.918 -22.260  1.00  0.00    -0.344 OA
ATOM     54  H4  UNL     1      -9.035  18.706 -21.338  1.00  0.00     0.219 HD
ENDBRANCH  51  53
ENDBRANCH  39  41
ENDBRANCH  37  38
ENDBRANCH  36  37
ENDBRANCH  35  36
ENDBRANCH   6  35
TORSDOF 12
ENDMDL