MODEL 1
REMARK VINA RESULT: -9.204323925      0.000      0.000
REMARK  13 active torsions:
REMARK  status: ('A' for Active; 'I' for Inactive)
REMARK    1  A    between atoms: C4_4  and  C5_5
REMARK    2  A    between atoms: C5_5  and  O1_6
REMARK    3  A    between atoms: C5_5  and  N1_8
REMARK    4  A    between atoms: N1_8  and  C6_10
REMARK    5  A    between atoms: C7_13  and  C8_14
REMARK    6  A    between atoms: N4_22  and  O2_23
REMARK    7  A    between atoms: C14_25  and  O3_26
REMARK    8  A    between atoms: O3_26  and  O4_27
REMARK    9  A    between atoms: C15_31  and  N6_32
REMARK   10  A    between atoms: N6_32  and  N7_33
REMARK   11  A    between atoms: C16_35  and  C17_36
REMARK   12  A    between atoms: N9_40  and  C20_41
REMARK   13  A    between atoms: C20_41  and  C21_42
ROOT
HETATM    1  C5  UNL     1      -4.732  18.844 -30.964  1.00  0.00     0.245 C
ENDROOT
BRANCH   1   2
HETATM    2  C4  UNL     1      -5.314  19.029 -32.345  1.00  0.00     0.155 C
HETATM    3  C3  UNL     1      -4.244  19.264 -33.324  1.00  0.00     0.034 C
HETATM    4  C2  UNL     1      -4.146  18.565 -34.441  1.00  0.00     0.046 C
HETATM    5  C1  UNL     1      -3.064  18.832 -35.395  1.00  0.00     0.076 C
HETATM    6  O7  UNL     1      -5.066  17.603 -34.683  1.00  0.00    -0.301 OA
HETATM    7  C15 UNL     1      -6.313  17.481 -33.956  1.00  0.00     0.435 C
HETATM    8  N5  UNL     1      -6.142  17.888 -32.600  1.00  0.00    -0.357 N
ATOM      9  H5  UNL     1      -6.594  17.383 -31.837  1.00  0.00     0.159 HD
BRANCH   7  10
HETATM   10  N6  UNL     1      -7.359  18.047 -34.606  1.00  0.00    -0.315 NA
BRANCH  10  11
HETATM   11  N7  UNL     1      -8.385  18.601 -35.242  1.00  0.00    -0.251 N
HETATM   12  C16 UNL     1      -8.830  18.443 -36.411  1.00  0.00     0.099 C
ATOM     13  H7  UNL     1      -8.907  19.276 -34.684  1.00  0.00     0.200 HD
BRANCH  12  14
HETATM   14  C17 UNL     1     -10.067  19.289 -36.753  1.00  0.00     0.038 A
HETATM   15  C18 UNL     1     -10.621  19.961 -35.625  1.00  0.00     0.017 A
HETATM   16  C19 UNL     1     -11.745  20.881 -35.403  1.00  0.00     0.134 C
HETATM   17  C23 UNL     1     -11.321  18.776 -36.373  1.00  0.00     0.015 A
HETATM   18  N8  UNL     1     -12.729  20.059 -34.667  1.00  0.00    -0.164 NA
HETATM   19  N9  UNL     1     -12.140  18.864 -34.190  1.00  0.00    -0.224 NA
HETATM   20  C22 UNL     1     -11.792  17.942 -35.277  1.00  0.00     0.115 C
BRANCH  19  21
HETATM   21  C20 UNL     1     -13.181  18.204 -33.418  1.00  0.00     0.222 C
BRANCH  21  22
HETATM   22  C21 UNL     1     -12.874  18.105 -31.979  1.00  0.00     0.187 C
HETATM   23  O5  UNL     1     -13.766  17.717 -31.190  1.00  0.00    -0.647 OA
HETATM   24  O6  UNL     1     -11.654  18.417 -31.437  1.00  0.00    -0.647 OA
ENDBRANCH  21  22
ENDBRANCH  19  21
ENDBRANCH  12  14
ENDBRANCH  10  11
ENDBRANCH   7  10
ENDBRANCH   1   2
BRANCH   1  25
HETATM   25  O1  UNL     1      -5.027  19.965 -30.172  1.00  0.00    -0.374 OA
ATOM     26  H1  UNL     1      -4.294  20.568 -30.187  1.00  0.00     0.212 HD
ENDBRANCH   1  25
BRANCH   1  27
HETATM   27  N1  UNL     1      -5.043  17.618 -30.310  1.00  0.00    -0.348 N
ATOM     28  H1  UNL     1      -4.412  16.821 -30.390  1.00  0.00     0.163 HD
BRANCH  27  29
HETATM   29  C6  UNL     1      -6.242  17.507 -29.542  1.00  0.00     0.128 C
HETATM   30  N2  UNL     1      -6.442  18.093 -28.412  1.00  0.00    -0.350 N
HETATM   31  C7  UNL     1      -7.696  17.909 -27.738  1.00  0.00     0.230 C
ATOM     32  H2  UNL     1      -5.718  18.683 -28.000  1.00  0.00     0.163 HD
HETATM   33  N3  UNL     1      -8.308  16.618 -27.913  1.00  0.00    -0.302 N
HETATM   34  N4  UNL     1      -7.813  15.842 -28.919  1.00  0.00    -0.069 NA
ATOM     35  H3  UNL     1      -9.071  16.301 -27.316  1.00  0.00     0.179 HD
HETATM   36  C14 UNL     1      -7.342  16.652 -30.045  1.00  0.00     0.348 C
BRANCH  31  37
HETATM   37  C8  UNL     1      -7.717  18.301 -26.320  1.00  0.00    -0.015 A
HETATM   38  C9  UNL     1      -7.346  17.348 -25.354  1.00  0.00     0.011 A
HETATM   39  C10 UNL     1      -7.373  17.611 -24.013  1.00  0.00     0.001 A
HETATM   40  C11 UNL     1      -7.783  18.875 -23.558  1.00  0.00     0.000 A
HETATM   41  C12 UNL     1      -8.145  19.813 -24.482  1.00  0.00     0.001 A
HETATM   42  C13 UNL     1      -8.109  19.523 -25.847  1.00  0.00     0.011 A
ENDBRANCH  31  37
BRANCH  34  43
HETATM   43  O2  UNL     1      -6.826  14.999 -28.510  1.00  0.00    -0.291 OA
ATOM     44  H2  UNL     1      -5.962  15.268 -28.798  1.00  0.00     0.239 HD
ENDBRANCH  34  43
BRANCH  36  45
HETATM   45  O3  UNL     1      -8.373  17.470 -30.489  1.00  0.00    -0.210 OA
BRANCH  45  46
HETATM   46  O4  UNL     1      -8.744  17.237 -31.727  1.00  0.00    -0.248 OA
ATOM     47  H4  UNL     1      -9.415  16.570 -31.811  1.00  0.00     0.253 HD
ENDBRANCH  45  46
ENDBRANCH  36  45
ENDBRANCH  27  29
ENDBRANCH   1  27
TORSDOF 13
ENDMDL