MODEL 4
REMARK VINA RESULT: -10.375671426      2.056      3.066
REMARK  15 active torsions:
REMARK  status: ('A' for Active; 'I' for Inactive)
REMARK    1  A    between atoms: C5_6  and  O2_7
REMARK    2  A    between atoms: C9_12  and  O3_13
REMARK    3  A    between atoms: O3_13  and  C10_14
REMARK    4  A    between atoms: C10_14  and  C11_16
REMARK    5  A    between atoms: C11_16  and  N1_17
REMARK    6  A    between atoms: C11_16  and  C12_21
REMARK    7  A    between atoms: C12_21  and  N2_22
REMARK    8  A    between atoms: C12_21  and  C21_43
REMARK    9  A    between atoms: N2_22  and  C13_24
REMARK   10  A    between atoms: C13_24  and  C14_28
REMARK       I    between atoms: C14_28  and  N4_30
REMARK   11  A    between atoms: N4_30  and  C15_32
REMARK   12  A    between atoms: C18_35  and  O6_36
REMARK   13  A    between atoms: C19_38  and  N5_39
REMARK   14  A    between atoms: C21_43  and  C22_48
REMARK   15  A    between atoms: N6_44  and  O9_46
ROOT
HETATM    1  C12 UNL     1      -8.798  19.649 -32.611  1.00  0.00     0.181 C
ENDROOT
BRANCH   1   2
HETATM    2  C11 UNL     1      -7.614  18.774 -32.883  1.00  0.00     0.311 C
BRANCH   2   3
HETATM    3  C10 UNL     1      -6.390  19.162 -32.211  1.00  0.00     0.297 C
HETATM    4  O4  UNL     1      -6.389  19.519 -30.999  1.00  0.00    -0.262 OA
BRANCH   3   5
HETATM    5  O3  UNL     1      -5.176  19.152 -32.880  1.00  0.00    -0.279 OA
BRANCH   5   6
HETATM    6  C9  UNL     1      -4.430  17.964 -32.927  1.00  0.00     0.091 A
HETATM    7  C3  UNL     1      -3.561  17.855 -33.917  1.00  0.00     0.118 A
HETATM    8  O1  UNL     1      -3.224  18.649 -34.910  1.00  0.00    -0.309 OA
HETATM    9  C4  UNL     1      -2.774  16.711 -34.044  1.00  0.00     0.032 A
HETATM   10  C2  UNL     1      -2.299  18.125 -35.662  1.00  0.00     0.084 A
HETATM   11  C1  UNL     1      -1.710  18.794 -36.878  1.00  0.00     0.079 C
HETATM   12  C5  UNL     1      -1.973  16.892 -35.162  1.00  0.00     0.107 A
HETATM   13  C6  UNL     1      -2.906  15.741 -33.170  1.00  0.00    -0.009 A
HETATM   14  C7  UNL     1      -3.830  15.729 -32.024  1.00  0.00     0.035 A
HETATM   15  C8  UNL     1      -4.676  16.961 -31.894  1.00  0.00     0.072 A
BRANCH  12  16
HETATM   16  O2  UNL     1      -1.034  15.999 -35.661  1.00  0.00    -0.357 OA
ATOM     17  H2  UNL     1      -0.836  15.128 -35.338  1.00  0.00     0.217 HD
ENDBRANCH  12  16
ENDBRANCH   5   6
ENDBRANCH   3   5
ENDBRANCH   2   3
BRANCH   2  18
HETATM   18  N1  UNL     1      -7.308  18.882 -34.339  1.00  0.00    -0.064 N
ATOM     19  H13 UNL     1      -7.337  19.837 -34.697  1.00  0.00     0.275 HD
ATOM     20  H12 UNL     1      -6.332  18.699 -34.571  1.00  0.00     0.275 HD
ATOM     21  H11 UNL     1      -7.966  18.251 -34.796  1.00  0.00     0.275 HD
ENDBRANCH   2  18
ENDBRANCH   1   2
BRANCH   1  22
HETATM   22  N2  UNL     1      -9.714  19.019 -31.659  1.00  0.00    -0.359 N
ATOM     23  H2  UNL     1     -10.004  18.058 -31.844  1.00  0.00     0.162 HD
BRANCH  22  24
HETATM   24  C13 UNL     1     -10.225  19.643 -30.506  1.00  0.00     0.165 C
HETATM   25  N3  UNL     1     -10.981  20.677 -30.611  1.00  0.00    -0.381 N
ATOM     26  H32 UNL     1     -11.168  21.007 -31.557  1.00  0.00     0.157 HD
ATOM     27  H31 UNL     1     -11.351  21.130 -29.774  1.00  0.00     0.157 HD
BRANCH  24  28
HETATM   28  C14 UNL     1      -9.952  19.163 -29.127  1.00  0.00     0.289 C
HETATM   29  O5  UNL     1     -10.959  18.761 -28.499  1.00  0.00    -0.264 OA
HETATM   30  N4  UNL     1      -8.641  19.186 -28.635  1.00  0.00    -0.320 N
ATOM     31  H4  UNL     1      -7.939  19.542 -29.283  1.00  0.00     0.169 HD
BRANCH  30  32
HETATM   32  C15 UNL     1      -8.154  18.793 -27.386  1.00  0.00     0.037 A
HETATM   33  C16 UNL     1      -8.434  19.463 -26.218  1.00  0.00     0.032 A
HETATM   34  C17 UNL     1      -7.929  18.998 -25.022  1.00  0.00     0.041 A
HETATM   35  C18 UNL     1      -7.127  17.850 -24.936  1.00  0.00     0.098 A
HETATM   36  C19 UNL     1      -6.842  17.175 -26.099  1.00  0.00     0.138 A
HETATM   37  C20 UNL     1      -7.350  17.646 -27.294  1.00  0.00     0.068 A
BRANCH  35  38
HETATM   38  O6  UNL     1      -6.679  17.470 -23.699  1.00  0.00    -0.358 OA
ATOM     39  H6  UNL     1      -5.828  17.052 -23.642  1.00  0.00     0.217 HD
ENDBRANCH  35  38
BRANCH  36  40
HETATM   40  N5  UNL     1      -6.041  15.994 -26.132  1.00  0.00    -0.113 N
HETATM   41  O7  UNL     1      -4.849  16.017 -25.842  1.00  0.00    -0.532 OA
HETATM   42  O8  UNL     1      -6.675  14.832 -26.531  1.00  0.00    -0.532 OA
ENDBRANCH  36  40
ENDBRANCH  30  32
ENDBRANCH  24  28
ENDBRANCH  22  24
ENDBRANCH   1  22
BRANCH   1  43
HETATM   43  C21 UNL     1      -9.493  20.230 -33.746  1.00  0.00     0.121 C
HETATM   44  N6  UNL     1      -9.082  21.428 -34.145  1.00  0.00    -0.266 N
ATOM     45  H6  UNL     1      -9.527  21.893 -34.936  1.00  0.00     0.194 HD
BRANCH  44  46
HETATM   46  O9  UNL     1      -8.068  22.014 -33.489  1.00  0.00    -0.290 OA
ATOM     47  H9  UNL     1      -7.292  22.266 -33.977  1.00  0.00     0.244 HD
ENDBRANCH  44  46
BRANCH  43  48
HETATM   48  C22 UNL     1     -10.564  19.654 -34.545  1.00  0.00     0.281 C
HETATM   49  N7  UNL     1     -10.314  19.291 -35.917  1.00  0.00    -0.056 NA
HETATM   50  O10 UNL     1     -11.734  19.424 -34.166  1.00  0.00    -0.270 OA
ENDBRANCH  43  48
ENDBRANCH   1  43
TORSDOF 15
ENDMDL