MODEL 3
REMARK VINA RESULT: -9.970639852      2.206      4.883
REMARK  14 active torsions:
REMARK  status: ('A' for Active; 'I' for Inactive)
REMARK    1  A    between atoms: N1_1  and  C1_4
REMARK    2  A    between atoms: C2_5  and  C3_6
REMARK    3  A    between atoms: C6_9  and  O1_10
REMARK    4  A    between atoms: N2_15  and  C10_16
REMARK    5  A    between atoms: C16_24  and  C17_25
REMARK       I    between atoms: C17_25  and  N4_27
REMARK    6  A    between atoms: N4_27  and  C18_29
REMARK    7  A    between atoms: C19_31  and  O4_32
REMARK    8  A    between atoms: C19_31  and  C20_34
REMARK    9  A    between atoms: C20_34  and  O5_35
REMARK   10  A    between atoms: C21_38  and  C22_39
REMARK   11  A    between atoms: C22_39  and  O7_40
REMARK   12  A    between atoms: C22_39  and  C23_42
REMARK   13  A    between atoms: C23_42  and  C24_47
REMARK   14  A    between atoms: N5_43  and  O8_45
ROOT
HETATM    1  C17 UNL     1      -6.393  18.752 -30.963  1.00  0.00     0.274 C
HETATM    2  O2  UNL     1      -5.831  19.841 -30.534  1.00  0.00    -0.266 OA
HETATM    3  N4  UNL     1      -7.215  18.127 -30.035  1.00  0.00    -0.327 N
ATOM      4  H4  UNL     1      -7.695  17.264 -30.291  1.00  0.00     0.165 HD
ENDROOT
BRANCH   1   5
HETATM    5  C16 UNL     1      -6.101  18.332 -32.320  1.00  0.00     0.143 A
HETATM    6  C1  UNL     1      -4.882  17.907 -32.809  1.00  0.00     0.072 A
HETATM    7  C2  UNL     1      -4.706  17.537 -34.132  1.00  0.00     0.020 A
HETATM    8  C9  UNL     1      -5.815  17.604 -34.972  1.00  0.00     0.131 A
HETATM    9  N2  UNL     1      -6.981  18.016 -34.475  1.00  0.00    -0.266 N
HETATM   10  N3  UNL     1      -7.137  18.363 -33.234  1.00  0.00    -0.287 N
ATOM     11  H3  UNL     1      -8.058  18.670 -32.922  1.00  0.00     0.188 HD
BRANCH   6  12
HETATM   12  N1  UNL     1      -3.916  17.814 -32.011  1.00  0.00    -0.396 N
ATOM     13  H12 UNL     1      -3.212  18.552 -32.013  1.00  0.00     0.156 HD
ATOM     14  H11 UNL     1      -3.878  17.028 -31.362  1.00  0.00     0.156 HD
ENDBRANCH   6  12
BRANCH   7  15
HETATM   15  C3  UNL     1      -3.435  17.131 -34.693  1.00  0.00    -0.022 A
HETATM   16  C4  UNL     1      -2.789  16.028 -34.190  1.00  0.00     0.015 A
HETATM   17  C5  UNL     1      -1.577  15.610 -34.699  1.00  0.00     0.037 A
HETATM   18  C6  UNL     1      -0.973  16.290 -35.733  1.00  0.00     0.065 A
HETATM   19  C7  UNL     1      -1.624  17.390 -36.231  1.00  0.00     0.037 A
HETATM   20  C8  UNL     1      -2.836  17.830 -35.742  1.00  0.00     0.015 A
BRANCH  18  21
HETATM   21  O1  UNL     1       0.231  15.867 -36.233  1.00  0.00    -0.361 OA
ATOM     22  H1  UNL     1       0.828  16.485 -36.640  1.00  0.00     0.217 HD
ENDBRANCH  18  21
ENDBRANCH   7  15
BRANCH   9  23
HETATM   23  C10 UNL     1      -8.101  18.073 -35.364  1.00  0.00     0.056 A
HETATM   24  C11 UNL     1      -8.105  17.453 -36.584  1.00  0.00     0.031 A
HETATM   25  C12 UNL     1      -9.219  17.553 -37.381  1.00  0.00     0.002 A
HETATM   26  C13 UNL     1     -10.322  18.256 -36.990  1.00  0.00     0.000 A
HETATM   27  C14 UNL     1     -10.299  18.874 -35.756  1.00  0.00     0.002 A
HETATM   28  C15 UNL     1      -9.197  18.786 -34.944  1.00  0.00     0.031 A
ENDBRANCH   9  23
ENDBRANCH   1   5
BRANCH   3  29
HETATM   29  C18 UNL     1      -7.403  18.692 -28.687  1.00  0.00     0.262 C
HETATM   30  O3  UNL     1      -8.369  19.706 -28.732  1.00  0.00    -0.303 OA
HETATM   31  C19 UNL     1      -9.356  19.376 -27.838  1.00  0.00     0.305 C
HETATM   32  O6  UNL     1      -8.831  18.413 -26.979  1.00  0.00    -0.318 OA
HETATM   33  C21 UNL     1      -8.087  17.636 -27.862  1.00  0.00     0.211 C
BRANCH  31  34
HETATM   34  O4  UNL     1     -10.469  18.797 -28.454  1.00  0.00    -0.342 OA
ATOM     35  H4  UNL     1     -11.283  19.007 -28.013  1.00  0.00     0.215 HD
ENDBRANCH  31  34
BRANCH  31  36
HETATM   36  C20 UNL     1      -9.851  20.588 -27.072  1.00  0.00     0.266 C
BRANCH  36  37
HETATM   37  O5  UNL     1      -8.949  20.920 -26.064  1.00  0.00    -0.393 OA
ATOM     38  H5  UNL     1      -8.723  20.147 -25.560  1.00  0.00     0.209 HD
ENDBRANCH  36  37
ENDBRANCH  31  36
BRANCH  33  39
HETATM   39  C22 UNL     1      -7.173  16.653 -27.219  1.00  0.00     0.210 C
BRANCH  39  40
HETATM   40  O7  UNL     1      -7.651  15.375 -27.535  1.00  0.00    -0.386 OA
ATOM     41  H7  UNL     1      -6.900  14.796 -27.573  1.00  0.00     0.210 HD
ENDBRANCH  39  40
BRANCH  39  42
HETATM   42  C23 UNL     1      -6.869  16.852 -25.808  1.00  0.00     0.139 C
HETATM   43  N5  UNL     1      -5.727  16.381 -25.359  1.00  0.00    -0.264 N
ATOM     44  H5  UNL     1      -5.482  16.502 -24.377  1.00  0.00     0.194 HD
BRANCH  43  45
HETATM   45  O8  UNL     1      -4.862  15.727 -26.197  1.00  0.00    -0.289 OA
ATOM     46  H8  UNL     1      -3.925  15.749 -26.041  1.00  0.00     0.244 HD
ENDBRANCH  43  45
BRANCH  42  47
HETATM   47  C24 UNL     1      -7.693  17.518 -24.823  1.00  0.00     0.227 C
HETATM   48  O9  UNL     1      -8.667  16.982 -24.248  1.00  0.00    -0.643 OA
HETATM   49  O10 UNL     1      -7.417  18.826 -24.467  1.00  0.00    -0.643 OA
ENDBRANCH  42  47
ENDBRANCH  39  42
ENDBRANCH  33  39
ENDBRANCH   3  29
TORSDOF 14
ENDMDL