MODEL 5
REMARK VINA RESULT: -8.196307665      3.073      8.450
REMARK  16 active torsions:
REMARK  status: ('A' for Active; 'I' for Inactive)
REMARK    1  A    between atoms: C2_2  and  C3_3
REMARK    2  A    between atoms: C4_6  and  C5_7
REMARK    3  A    between atoms: C5_7  and  N2_8
REMARK    4  A    between atoms: N2_8  and  C6_10
REMARK    5  A    between atoms: C6_10  and  O1_11
REMARK    6  A    between atoms: C6_10  and  C7_13
REMARK    7  A    between atoms: N3_15  and  C9_17
REMARK    8  A    between atoms: C13_23  and  C14_24
REMARK    9  A    between atoms: C14_24  and  C15_25
REMARK   10  A    between atoms: C16_28  and  N6_29
REMARK   11  A    between atoms: C17_34  and  O2_35
REMARK   12  A    between atoms: C19_41  and  C20_42
REMARK   13  A    between atoms: C20_42  and  O3_43
REMARK   14  A    between atoms: O3_43  and  C21_44
REMARK   15  A    between atoms: C21_44  and  N11_48
REMARK   16  A    between atoms: N11_48  and  O4_50
ROOT
HETATM    1  C7  UNL     1      -6.210  18.586 -32.065  1.00  0.00     0.089 A
HETATM    2  C8  UNL     1      -5.555  18.003 -33.154  1.00  0.00     0.120 A
HETATM    3  N3  UNL     1      -4.317  17.654 -32.975  1.00  0.00    -0.371 N
ATOM      4  H3  UNL     1      -3.877  17.813 -32.069  1.00  0.00     0.161 HD
HETATM    5  N4  UNL     1      -6.143  17.799 -34.345  1.00  0.00    -0.326 N
ATOM      6  H4  UNL     1      -5.615  17.369 -35.104  1.00  0.00     0.169 HD
HETATM    7  C12 UNL     1      -7.418  18.157 -34.538  1.00  0.00     0.141 A
HETATM    8  C13 UNL     1      -8.230  18.047 -35.668  1.00  0.00     0.029 A
HETATM    9  C18 UNL     1      -9.434  18.581 -35.266  1.00  0.00     0.123 A
HETATM   10  N8  UNL     1      -9.307  18.968 -33.988  1.00  0.00    -0.302 N
ATOM     11  H8  UNL     1     -10.050  19.399 -33.439  1.00  0.00     0.186 HD
HETATM   12  N9  UNL     1      -8.075  18.714 -33.526  1.00  0.00    -0.236 N
HETATM   13  C19 UNL     1      -7.525  18.949 -32.282  1.00  0.00     0.099 A
ENDROOT
BRANCH   1  14
HETATM   14  C6  UNL     1      -5.576  18.750 -30.936  1.00  0.00     0.152 C
BRANCH  14  15
HETATM   15  N2  UNL     1      -5.395  17.746 -29.952  1.00  0.00    -0.364 N
ATOM     16  H2  UNL     1      -4.479  17.586 -29.532  1.00  0.00     0.162 HD
BRANCH  15  17
HETATM   17  C5  UNL     1      -6.531  16.957 -29.559  1.00  0.00     0.179 C
BRANCH  17  18
HETATM   18  C4  UNL     1      -6.957  17.309 -28.150  1.00  0.00     0.034 A
HETATM   19  N1  UNL     1      -7.552  18.425 -27.868  1.00  0.00    -0.355 N
HETATM   20  C3  UNL     1      -7.908  18.688 -26.623  1.00  0.00     0.050 A
ATOM     21  H1  UNL     1      -7.745  19.101 -28.607  1.00  0.00     0.166 HD
HETATM   22  S1  UNL     1      -7.387  17.295 -25.790  1.00  0.00    -0.087 SA
HETATM   23  C22 UNL     1      -6.725  16.438 -27.115  1.00  0.00     0.078 A
BRANCH  20  24
HETATM   24  C2  UNL     1      -8.604  19.939 -26.145  1.00  0.00     0.060 C
HETATM   25  C1  UNL     1      -8.231  20.288 -24.743  1.00  0.00     0.012 C
ENDBRANCH  20  24
ENDBRANCH  17  18
ENDBRANCH  15  17
ENDBRANCH  14  15
BRANCH  14  26
HETATM   26  O1  UNL     1      -4.972  19.963 -30.530  1.00  0.00    -0.346 OA
ATOM     27  H1  UNL     1      -5.025  20.613 -31.221  1.00  0.00     0.219 HD
ENDBRANCH  14  26
ENDBRANCH   1  14
BRANCH  13  28
HETATM   28  C20 UNL     1      -8.278  19.505 -31.363  1.00  0.00     0.178 C
BRANCH  28  29
HETATM   29  O3  UNL     1      -9.470  18.819 -31.011  1.00  0.00    -0.288 OA
BRANCH  29  30
HETATM   30  C21 UNL     1     -10.505  19.489 -30.380  1.00  0.00     0.241 C
HETATM   31  N10 UNL     1     -11.232  20.290 -31.108  1.00  0.00    -0.364 N
ATOM     32 2H10 UNL     1     -11.011  20.391 -32.099  1.00  0.00     0.159 HD
ATOM     33 1H10 UNL     1     -11.994  20.783 -30.643  1.00  0.00     0.159 HD
BRANCH  30  34
HETATM   34  N11 UNL     1     -10.810  19.350 -29.008  1.00  0.00    -0.233 N
ATOM     35  H11 UNL     1     -10.363  19.962 -28.326  1.00  0.00     0.198 HD
BRANCH  34  36
HETATM   36  O4  UNL     1     -11.684  18.416 -28.594  1.00  0.00    -0.287 OA
ATOM     37  H4  UNL     1     -11.787  18.228 -27.668  1.00  0.00     0.244 HD
ENDBRANCH  34  36
ENDBRANCH  30  34
ENDBRANCH  29  30
ENDBRANCH  28  29
ENDBRANCH  13  28
BRANCH   3  38
HETATM   38  C9  UNL     1      -3.551  17.041 -34.043  1.00  0.00     0.083 A
HETATM   39  C10 UNL     1      -2.148  16.568 -33.775  1.00  0.00     0.027 A
HETATM   40  C11 UNL     1      -2.360  17.796 -34.594  1.00  0.00     0.027 A
ENDBRANCH   3  38
BRANCH   8  41
HETATM   41  C14 UNL     1      -7.891  17.539 -36.847  1.00  0.00     0.051 C
BRANCH  41  42
HETATM   42  C15 UNL     1      -6.895  18.166 -37.675  1.00  0.00     0.101 A
HETATM   43  N5  UNL     1      -7.123  19.193 -38.516  1.00  0.00    -0.188 N
HETATM   44  C16 UNL     1      -5.981  19.540 -39.137  1.00  0.00     0.678 A
ATOM     45  H5  UNL     1      -8.027  19.642 -38.660  1.00  0.00     0.184 HD
HETATM   46  N7  UNL     1      -5.003  18.731 -38.696  1.00  0.00    -0.169 N
HETATM   47  C17 UNL     1      -5.550  17.882 -37.797  1.00  0.00     0.182 A
ATOM     48  H7  UNL     1      -4.025  18.753 -38.985  1.00  0.00     0.186 HD
BRANCH  44  49
HETATM   49  N6  UNL     1      -5.861  20.494 -40.011  1.00  0.00    -0.234 N
ATOM     50  H62 UNL     1      -6.074  20.436 -41.007  1.00  0.00     0.174 HD
ATOM     51  H61 UNL     1      -5.533  21.439 -39.811  1.00  0.00     0.174 HD
ENDBRANCH  44  49
BRANCH  47  52
HETATM   52  O2  UNL     1      -4.911  16.875 -37.086  1.00  0.00    -0.344 OA
ATOM     53  H2  UNL     1      -4.524  17.003 -36.228  1.00  0.00     0.219 HD
ENDBRANCH  47  52
ENDBRANCH  41  42
ENDBRANCH   8  41
TORSDOF 16
ENDMDL