MODEL 2
REMARK VINA RESULT: -8.813669418      2.741      6.365
REMARK  15 active torsions:
REMARK  status: ('A' for Active; 'I' for Inactive)
REMARK    1  A    between atoms: C2_2  and  O1_3
REMARK    2  A    between atoms: O1_3  and  C3_4
REMARK    3  A    between atoms: C3_4  and  C4_6
REMARK    4  A    between atoms: C4_6  and  N1_7
REMARK    5  A    between atoms: N1_7  and  N2_9
REMARK    6  A    between atoms: N2_9  and  C5_11
REMARK    7  A    between atoms: C6_14  and  N4_15
REMARK    8  A    between atoms: C7_20  and  C8_21
REMARK    9  A    between atoms: C8_21  and  N7_22
REMARK   10  A    between atoms: N7_22  and  C9_24
REMARK   11  A    between atoms: C10_27  and  C11_28
REMARK   12  A    between atoms: C14_36  and  O3_37
REMARK   13  A    between atoms: C15_39  and  N11_40
REMARK   14  A    between atoms: C16_45  and  N13_46
REMARK   15  A    between atoms: N13_46  and  C17_48
ROOT
HETATM    1  C5  UNL     1      -6.833  16.500 -30.051  1.00  0.00     0.712 C
HETATM    2  N3  UNL     1      -5.661  16.454 -30.752  1.00  0.00    -0.169 N
ATOM      3  H3  UNL     1      -5.170  15.560 -30.752  1.00  0.00     0.186 HD
HETATM    4  C6  UNL     1      -5.069  17.468 -31.453  1.00  0.00     0.190 C
HETATM    5  C15 UNL     1      -5.359  18.804 -31.276  1.00  0.00     0.161 C
HETATM    6  N12 UNL     1      -6.564  19.363 -30.939  1.00  0.00    -0.173 N
ATOM      7  H12 UNL     1      -6.595  20.383 -30.951  1.00  0.00     0.186 HD
HETATM    8  C16 UNL     1      -7.711  18.750 -30.596  1.00  0.00     0.695 C
HETATM    9  N14 UNL     1      -7.729  17.501 -30.025  1.00  0.00    -0.021 N
ATOM     10  H14 UNL     1      -8.570  17.299 -29.485  1.00  0.00     0.203 HD
ENDROOT
BRANCH   4  11
HETATM   11  N4  UNL     1      -4.098  17.107 -32.425  1.00  0.00    -0.197 N
HETATM   12  N5  UNL     1      -3.009  16.365 -32.323  1.00  0.00    -0.232 N
HETATM   13  N6  UNL     1      -2.358  16.272 -33.462  1.00  0.00    -0.284 N
ATOM     14  H5  UNL     1      -2.707  15.914 -31.459  1.00  0.00     0.209 HD
HETATM   15  C7  UNL     1      -3.036  16.982 -34.367  1.00  0.00     0.097 A
ATOM     16  H6  UNL     1      -1.494  15.754 -33.625  1.00  0.00     0.188 HD
HETATM   17  C14 UNL     1      -4.145  17.510 -33.697  1.00  0.00     0.191 A
BRANCH  15  18
HETATM   18  C8  UNL     1      -2.667  17.159 -35.775  1.00  0.00     0.184 C
BRANCH  18  19
HETATM   19  N7  UNL     1      -3.600  16.434 -36.608  1.00  0.00    -0.373 N
ATOM     20  H7  UNL     1      -3.467  15.431 -36.736  1.00  0.00     0.161 HD
BRANCH  19  21
HETATM   21  C9  UNL     1      -4.693  17.067 -37.256  1.00  0.00     0.083 C
HETATM   22  N8  UNL     1      -5.779  16.419 -37.373  1.00  0.00    -0.367 N
HETATM   23  C10 UNL     1      -6.966  16.927 -38.001  1.00  0.00     0.156 C
ATOM     24  H8  UNL     1      -5.810  15.472 -36.994  1.00  0.00     0.161 HD
HETATM   25  C12 UNL     1      -6.718  17.425 -39.431  1.00  0.00     0.107 C
HETATM   26  S1  UNL     1      -5.479  18.748 -39.275  1.00  0.00    -0.159 SA
HETATM   27  C13 UNL     1      -4.556  18.420 -37.760  1.00  0.00     0.149 C
BRANCH  23  28
HETATM   28  C11 UNL     1      -7.627  17.980 -37.203  1.00  0.00     0.110 C
HETATM   29  N9  UNL     1      -8.192  19.016 -37.748  1.00  0.00    -0.389 N
ATOM     30  H92 UNL     1      -8.178  19.113 -38.763  1.00  0.00     0.157 HD
ATOM     31  H91 UNL     1      -8.649  19.743 -37.197  1.00  0.00     0.157 HD
HETATM   32  N10 UNL     1      -7.647  17.845 -35.790  1.00  0.00    -0.086 NA
ENDBRANCH  23  28
ENDBRANCH  19  21
ENDBRANCH  18  19
ENDBRANCH  15  18
BRANCH  17  33
HETATM   33  O3  UNL     1      -5.101  18.310 -34.289  1.00  0.00    -0.343 OA
ATOM     34  H3  UNL     1      -4.962  19.010 -34.915  1.00  0.00     0.219 HD
ENDBRANCH  17  33
ENDBRANCH   4  11
BRANCH   5  35
HETATM   35  N11 UNL     1      -4.379  19.597 -31.449  1.00  0.00    -0.382 N
ATOM     36 2H11 UNL     1      -3.773  19.419 -32.250  1.00  0.00     0.157 HD
ATOM     37 1H11 UNL     1      -4.298  20.343 -30.759  1.00  0.00     0.157 HD
ENDBRANCH   5  35
BRANCH   1  38
HETATM   38  N2  UNL     1      -7.083  15.448 -29.344  1.00  0.00    -0.135 N
ATOM     39  H2  UNL     1      -7.356  14.589 -29.821  1.00  0.00     0.205 HD
BRANCH  38  40
HETATM   40  N1  UNL     1      -6.995  15.444 -27.951  1.00  0.00    -0.313 N
ATOM     41  H1  UNL     1      -7.238  14.593 -27.444  1.00  0.00     0.181 HD
BRANCH  40  42
HETATM   42  C4  UNL     1      -6.568  16.610 -27.199  1.00  0.00     0.251 C
BRANCH  42  43
HETATM   43  C3  UNL     1      -5.970  16.155 -25.917  1.00  0.00     0.278 C
HETATM   44  O2  UNL     1      -4.764  15.770 -25.874  1.00  0.00    -0.263 OA
BRANCH  43  45
HETATM   45  O1  UNL     1      -6.694  16.132 -24.734  1.00  0.00    -0.321 OA
BRANCH  45  46
HETATM   46  C2  UNL     1      -7.483  17.244 -24.403  1.00  0.00     0.174 C
HETATM   47  C1  UNL     1      -6.976  17.952 -23.161  1.00  0.00     0.034 C
ENDBRANCH  45  46
ENDBRANCH  43  45
ENDBRANCH  42  43
ENDBRANCH  40  42
ENDBRANCH  38  40
ENDBRANCH   1  38
BRANCH   8  48
HETATM   48  N13 UNL     1      -8.842  19.290 -30.780  1.00  0.00    -0.217 N
ATOM     49  H13 UNL     1      -9.182  19.805 -29.968  1.00  0.00     0.178 HD
BRANCH  48  50
HETATM   50  C17 UNL     1      -9.727  19.325 -31.876  1.00  0.00     0.036 C
HETATM   51  C18 UNL     1      -9.644  18.115 -32.774  1.00  0.00     0.038 C
HETATM   52  C19 UNL     1     -11.145  19.434 -31.360  1.00  0.00     0.038 C
HETATM   53  C20 UNL     1      -9.515  20.564 -32.745  1.00  0.00     0.038 C
ENDBRANCH  48  50
ENDBRANCH   8  48
TORSDOF 15
ENDMDL