MODEL 5
REMARK VINA RESULT: -7.794321427      2.715      5.155
REMARK  14 active torsions:
REMARK  status: ('A' for Active; 'I' for Inactive)
REMARK    1  A    between atoms: S1_2  and  C2_3
REMARK    2  A    between atoms: C3_5  and  O2_6
REMARK    3  A    between atoms: O2_6  and  C4_7
REMARK    4  A    between atoms: C7_11  and  N1_12
REMARK    5  A    between atoms: C9_17  and  O4_18
REMARK    6  A    between atoms: O4_18  and  C10_19
REMARK    7  A    between atoms: C13_22  and  O5_24
REMARK    8  A    between atoms: C15_26  and  C16_27
REMARK    9  A    between atoms: C16_27  and  C17_32
REMARK   10  A    between atoms: N2_28  and  O6_30
REMARK   11  A    between atoms: C17_32  and  N3_33
REMARK   12  A    between atoms: C17_32  and  O7_37
REMARK   13  A    between atoms: C18_40  and  N4_41
REMARK   14  A    between atoms: C21_46  and  O9_47
ROOT
HETATM    1  C4  UNL     1      -5.364  18.365 -35.120  1.00  0.00     0.292 C
HETATM    2  O3  UNL     1      -4.166  18.731 -35.692  1.00  0.00    -0.352 OA
HETATM    3  C5  UNL     1      -3.112  17.901 -35.463  1.00  0.00     0.151 C
HETATM    4  C6  UNL     1      -1.983  18.748 -34.857  1.00  0.00     0.042 C
HETATM    5  C7  UNL     1      -3.349  16.719 -34.597  1.00  0.00     0.214 C
HETATM    6  C8  UNL     1      -4.153  17.107 -33.407  1.00  0.00     0.072 C
HETATM    7  C9  UNL     1      -5.187  18.171 -33.647  1.00  0.00     0.182 C
ENDROOT
BRANCH   7   8
HETATM    8  O4  UNL     1      -4.855  19.282 -32.935  1.00  0.00    -0.351 OA
BRANCH   8   9
HETATM    9  C10 UNL     1      -5.776  19.785 -32.063  1.00  0.00     0.261 C
HETATM   10  C11 UNL     1      -5.464  19.484 -30.614  1.00  0.00     0.064 C
HETATM   11  C12 UNL     1      -5.863  18.078 -30.234  1.00  0.00     0.045 C
HETATM   12  C13 UNL     1      -7.387  18.040 -30.256  1.00  0.00     0.086 C
HETATM   13  C14 UNL     1      -7.821  18.522 -28.891  1.00  0.00     0.049 C
HETATM   14  C15 UNL     1      -7.838  18.998 -31.288  1.00  0.00     0.210 C
HETATM   15  O8  UNL     1      -6.994  19.169 -32.354  1.00  0.00    -0.347 OA
BRANCH  12  16
HETATM   16  O5  UNL     1      -7.786  16.720 -30.450  1.00  0.00    -0.387 OA
ATOM     17  H5  UNL     1      -8.590  16.724 -30.956  1.00  0.00     0.210 HD
ENDBRANCH  12  16
BRANCH  14  18
HETATM   18  C16 UNL     1      -9.197  18.691 -31.806  1.00  0.00     0.097 C
HETATM   19  N2  UNL     1      -9.414  17.745 -32.653  1.00  0.00    -0.270 N
ATOM     20  H2  UNL     1     -10.370  17.582 -32.970  1.00  0.00     0.193 HD
BRANCH  19  21
HETATM   21  O6  UNL     1      -8.434  16.964 -33.136  1.00  0.00    -0.290 OA
ATOM     22  H6  UNL     1      -8.596  16.097 -33.489  1.00  0.00     0.244 HD
ENDBRANCH  19  21
BRANCH  18  23
HETATM   23  C17 UNL     1     -10.417  19.448 -31.376  1.00  0.00     0.367 C
BRANCH  23  24
HETATM   24  N3  UNL     1     -10.775  20.392 -32.448  1.00  0.00    -0.048 N
ATOM     25  H33 UNL     1     -10.445  21.340 -32.264  1.00  0.00     0.277 HD
ATOM     26  H32 UNL     1     -10.251  20.228 -33.307  1.00  0.00     0.277 HD
ATOM     27  H31 UNL     1     -11.784  20.347 -32.589  1.00  0.00     0.277 HD
ENDBRANCH  23  24
BRANCH  23  28
HETATM   28  O7  UNL     1     -11.518  18.581 -31.303  1.00  0.00    -0.365 OA
ATOM     29  H7  UNL     1     -12.319  19.082 -31.215  1.00  0.00     0.212 HD
ENDBRANCH  23  28
ENDBRANCH  18  23
ENDBRANCH  14  18
ENDBRANCH   8   9
ENDBRANCH   7   8
BRANCH   1  30
HETATM   30  O2  UNL     1      -5.764  17.151 -35.678  1.00  0.00    -0.327 OA
BRANCH  30  31
HETATM   31  C3  UNL     1      -6.491  17.279 -36.837  1.00  0.00     0.289 C
HETATM   32  O1  UNL     1      -6.142  16.410 -37.829  1.00  0.00    -0.341 OA
HETATM   33  C2  UNL     1      -7.173  15.560 -38.117  1.00  0.00     0.216 C
HETATM   34  C21 UNL     1      -8.119  15.610 -36.938  1.00  0.00     0.184 C
HETATM   35  C18 UNL     1      -7.951  17.037 -36.491  1.00  0.00     0.169 C
BRANCH  33  36
HETATM   36  S1  UNL     1      -6.628  13.864 -38.459  1.00  0.00    -0.139 SA
HETATM   37  C1  UNL     1      -5.847  13.719 -40.078  1.00  0.00     0.092 C
ENDBRANCH  33  36
BRANCH  34  38
HETATM   38  O9  UNL     1      -9.401  15.248 -37.231  1.00  0.00    -0.390 OA
ATOM     39  H9  UNL     1     -10.035  15.950 -37.142  1.00  0.00     0.210 HD
ENDBRANCH  34  38
BRANCH  35  40
HETATM   40  N4  UNL     1      -8.824  17.958 -37.118  1.00  0.00    -0.370 N
HETATM   41  C19 UNL     1      -9.478  18.910 -36.630  1.00  0.00     0.085 C
HETATM   42  C20 UNL     1     -10.334  19.746 -37.494  1.00  0.00     0.085 C
HETATM   43  N5  UNL     1      -9.423  19.213 -35.254  1.00  0.00    -0.088 NA
ATOM     44  H4  UNL     1      -8.938  17.828 -38.123  1.00  0.00     0.161 HD
ENDBRANCH  35  40
ENDBRANCH  30  31
ENDBRANCH   1  30
BRANCH   5  45
HETATM   45  N1  UNL     1      -2.044  16.237 -34.105  1.00  0.00    -0.072 N
ATOM     46  H13 UNL     1      -1.271  16.841 -34.385  1.00  0.00     0.274 HD
ATOM     47  H12 UNL     1      -1.941  16.342 -33.095  1.00  0.00     0.274 HD
ATOM     48  H11 UNL     1      -1.922  15.273 -34.414  1.00  0.00     0.274 HD
ENDBRANCH   5  45
TORSDOF 14
ENDMDL