MODEL 4
REMARK VINA RESULT: -8.836421695      1.177      1.487
REMARK  17 active torsions:
REMARK  status: ('A' for Active; 'I' for Inactive)
REMARK    1  A    between atoms: C1_2  and  O2_4
REMARK    2  A    between atoms: O2_4  and  C2_5
REMARK    3  A    between atoms: C2_5  and  C3_7
REMARK    4  A    between atoms: C4_8  and  O4_9
REMARK    5  A    between atoms: C6_12  and  O5_13
REMARK    6  A    between atoms: C9_18  and  C10_19
REMARK    7  A    between atoms: C10_19  and  O8_21
REMARK    8  A    between atoms: O8_21  and  C11_22
REMARK    9  A    between atoms: C12_23  and  O9_24
REMARK   10  A    between atoms: C12_23  and  C13_26
REMARK   11  A    between atoms: C13_26  and  O10_27
REMARK   12  A    between atoms: C13_26  and  C14_29
REMARK   13  A    between atoms: C14_29  and  O11_30
REMARK   14  A    between atoms: C14_29  and  C15_32
REMARK   15  A    between atoms: C15_32  and  O12_33
REMARK   16  A    between atoms: C16_35  and  C17_36
REMARK   17  A    between atoms: C22_41  and  O13_42
ROOT
HETATM    1  C3  UNL     1      -4.327  17.615 -35.678  1.00  0.00     0.108 A
HETATM    2  C4  UNL     1      -2.959  17.343 -35.580  1.00  0.00     0.087 A
HETATM    3  C5  UNL     1      -2.345  16.982 -34.403  1.00  0.00     0.075 A
HETATM    4  C6  UNL     1      -3.139  16.893 -33.284  1.00  0.00     0.085 A
HETATM    5  C7  UNL     1      -4.511  17.162 -33.361  1.00  0.00     0.083 A
HETATM    6  C8  UNL     1      -5.276  17.064 -32.235  1.00  0.00     0.206 A
HETATM    7  O6  UNL     1      -4.790  16.738 -31.125  1.00  0.00    -0.286 OA
HETATM    8  C9  UNL     1      -6.667  17.348 -32.359  1.00  0.00     0.125 A
HETATM    9  C16 UNL     1      -7.205  17.693 -33.525  1.00  0.00     0.109 A
HETATM   10  O14 UNL     1      -6.392  17.774 -34.609  1.00  0.00    -0.306 OA
HETATM   11  C23 UNL     1      -5.117  17.527 -34.564  1.00  0.00     0.112 A
ENDROOT
BRANCH   8  12
HETATM   12  C10 UNL     1      -7.333  17.302 -31.072  1.00  0.00     0.304 C
HETATM   13  O7  UNL     1      -7.644  16.169 -30.628  1.00  0.00    -0.259 OA
BRANCH  12  14
HETATM   14  O8  UNL     1      -7.650  18.358 -30.350  1.00  0.00    -0.284 OA
BRANCH  14  15
HETATM   15  C11 UNL     1      -8.223  18.843 -29.280  1.00  0.00     0.180 C
HETATM   16  C12 UNL     1      -8.438  18.274 -27.976  1.00  0.00     0.097 C
BRANCH  16  17
HETATM   17  O9  UNL     1      -8.956  19.144 -27.140  1.00  0.00    -0.360 OA
ATOM     18  H9  UNL     1      -8.287  19.600 -26.643  1.00  0.00     0.217 HD
ENDBRANCH  16  17
BRANCH  16  19
HETATM   19  C13 UNL     1      -8.225  16.975 -27.349  1.00  0.00     0.207 C
BRANCH  19  20
HETATM   20  O10 UNL     1      -9.327  16.234 -27.121  1.00  0.00    -0.386 OA
ATOM     21  H10 UNL     1      -9.538  16.061 -26.211  1.00  0.00     0.210 HD
ENDBRANCH  19  20
BRANCH  19  22
HETATM   22  C14 UNL     1      -7.402  17.133 -26.067  1.00  0.00     0.176 C
BRANCH  22  23
HETATM   23  O11 UNL     1      -8.254  16.976 -24.982  1.00  0.00    -0.390 OA
ATOM     24  H11 UNL     1      -7.905  16.288 -24.427  1.00  0.00     0.210 HD
ENDBRANCH  22  23
BRANCH  22  25
HETATM   25  C15 UNL     1      -6.344  16.054 -25.944  1.00  0.00     0.198 C
BRANCH  25  26
HETATM   26  O12 UNL     1      -6.769  14.819 -26.407  1.00  0.00    -0.398 OA
ATOM     27  H12 UNL     1      -7.164  14.283 -25.730  1.00  0.00     0.209 HD
ENDBRANCH  25  26
ENDBRANCH  22  25
ENDBRANCH  19  22
ENDBRANCH  16  19
ENDBRANCH  14  15
ENDBRANCH  12  14
ENDBRANCH   8  12
BRANCH   9  28
HETATM   28  C17 UNL     1      -8.616  18.005 -33.723  1.00  0.00     0.032 A
HETATM   29  C18 UNL     1      -9.632  17.132 -33.880  1.00  0.00     0.017 A
HETATM   30  C19 UNL     1     -10.978  17.501 -34.001  1.00  0.00     0.001 A
HETATM   31  C20 UNL     1     -11.252  18.845 -33.953  1.00  0.00     0.003 A
HETATM   32  C21 UNL     1     -10.247  19.772 -33.793  1.00  0.00     0.037 A
HETATM   33  C22 UNL     1      -8.938  19.381 -33.677  1.00  0.00     0.078 A
BRANCH  33  34
HETATM   34  O13 UNL     1      -7.929  20.337 -33.507  1.00  0.00    -0.360 OA
ATOM     35  H13 UNL     1      -8.017  21.201 -33.894  1.00  0.00     0.217 HD
ENDBRANCH  33  34
ENDBRANCH   9  28
BRANCH   4  36
HETATM   36  O5  UNL     1      -2.633  16.538 -32.048  1.00  0.00    -0.360 OA
ATOM     37  H5  UNL     1      -3.126  16.009 -31.431  1.00  0.00     0.217 HD
ENDBRANCH   4  36
BRANCH   1  38
HETATM   38  C2  UNL     1      -4.891  17.954 -36.970  1.00  0.00     0.307 C
HETATM   39  O3  UNL     1      -4.562  18.947 -37.650  1.00  0.00    -0.259 OA
BRANCH  38  40
HETATM   40  O2  UNL     1      -5.884  17.098 -37.503  1.00  0.00    -0.225 OA
BRANCH  40  41
HETATM   41  C1  UNL     1      -5.559  16.196 -38.517  1.00  0.00     0.380 C
HETATM   42  N1  UNL     1      -5.633  16.593 -39.875  1.00  0.00    -0.032 NA
HETATM   43  O1  UNL     1      -5.207  15.044 -38.160  1.00  0.00    -0.242 OA
ENDBRANCH  40  41
ENDBRANCH  38  40
ENDBRANCH   1  38
BRANCH   2  44
HETATM   44  O4  UNL     1      -2.164  17.439 -36.723  1.00  0.00    -0.359 OA
ATOM     45  H4  UNL     1      -2.041  16.669 -37.267  1.00  0.00     0.217 HD
ENDBRANCH   2  44
TORSDOF 17
ENDMDL