MODEL 2
REMARK VINA RESULT: -10.304840282      2.535      5.147
REMARK  14 active torsions:
REMARK  status: ('A' for Active; 'I' for Inactive)
REMARK       I    between atoms: N1_2  and  C2_4
REMARK    1  A    between atoms: C2_4  and  C3_6
REMARK    2  A    between atoms: N2_8  and  C5_9
REMARK    3  A    between atoms: C5_9  and  C6_10
REMARK    4  A    between atoms: C6_10  and  O2_11
REMARK    5  A    between atoms: C6_10  and  C7_13
REMARK    6  A    between atoms: C7_13  and  C8_15
REMARK    7  A    between atoms: C8_15  and  C9_17
REMARK    8  A    between atoms: C11_19  and  O5_20
REMARK    9  A    between atoms: C14_25  and  C15_26
REMARK   10  A    between atoms: C15_26  and  O7_27
REMARK   11  A    between atoms: C15_26  and  C16_29
REMARK   12  A    between atoms: C21_34  and  O8_35
REMARK   13  A    between atoms: C22_37  and  O9_38
REMARK   14  A    between atoms: N3_40  and  O10_41
ROOT
HETATM    1  C9  UNL     1      -6.233  16.514 -27.787  1.00  0.00     0.023 A
HETATM    2  C10 UNL     1      -6.849  15.551 -28.517  1.00  0.00     0.053 A
HETATM    3  C11 UNL     1      -7.104  15.736 -29.890  1.00  0.00     0.083 A
HETATM    4  C12 UNL     1      -6.750  16.882 -30.554  1.00  0.00     0.077 A
HETATM    5  C13 UNL     1      -6.968  17.118 -31.893  1.00  0.00     0.200 A
HETATM    6  O6  UNL     1      -7.544  16.206 -32.559  1.00  0.00    -0.287 OA
HETATM    7  C14 UNL     1      -6.582  18.296 -32.515  1.00  0.00     0.079 A
HETATM    8  C22 UNL     1      -5.970  19.229 -31.740  1.00  0.00     0.180 A
HETATM    9  N3  UNL     1      -5.749  19.006 -30.408  1.00  0.00    -0.200 N
HETATM   10  C23 UNL     1      -6.126  17.857 -29.807  1.00  0.00     0.083 A
HETATM   11  C24 UNL     1      -5.867  17.696 -28.464  1.00  0.00     0.049 A
ENDROOT
BRANCH   1  12
HETATM   12  C8  UNL     1      -5.908  16.424 -26.381  1.00  0.00     0.230 C
HETATM   13  O4  UNL     1      -4.863  15.737 -26.065  1.00  0.00    -0.283 OA
BRANCH  12  14
HETATM   14  C7  UNL     1      -6.612  17.010 -25.296  1.00  0.00     0.230 C
HETATM   15  O3  UNL     1      -6.112  17.202 -24.179  1.00  0.00    -0.286 OA
BRANCH  14  16
HETATM   16  C6  UNL     1      -8.044  17.441 -25.454  1.00  0.00     0.215 C
BRANCH  16  17
HETATM   17  C5  UNL     1      -8.105  18.922 -25.050  1.00  0.00     0.189 C
BRANCH  17  18
HETATM   18  N2  UNL     1      -8.668  19.698 -26.157  1.00  0.00    -0.284 N
HETATM   19  C4  UNL     1      -9.039  19.133 -27.331  1.00  0.00     0.148 A
HETATM   20  C3  UNL     1      -9.523  20.133 -28.136  1.00  0.00     0.134 A
HETATM   21  N5  UNL     1      -9.424  21.259 -27.419  1.00  0.00    -0.280 N
HETATM   22  N4  UNL     1      -8.905  20.981 -26.225  1.00  0.00    -0.240 N
ATOM     23  H5  UNL     1      -9.702  22.186 -27.738  1.00  0.00     0.189 HD
ATOM     24  H4  UNL     1      -8.723  21.658 -25.484  1.00  0.00     0.208 HD
BRANCH  20  25
HETATM   25  C2  UNL     1     -10.050  20.043 -29.494  1.00  0.00     0.270 C
HETATM   26  N1  UNL     1      -9.649  18.997 -30.364  1.00  0.00    -0.360 N
HETATM   27  C1  UNL     1     -10.162  18.892 -31.712  1.00  0.00     0.149 C
ATOM     28  H1  UNL     1      -8.982  18.302 -30.030  1.00  0.00     0.162 HD
HETATM   29  O1  UNL     1     -10.873  20.890 -29.923  1.00  0.00    -0.266 OA
ENDBRANCH  20  25
ENDBRANCH  17  18
ENDBRANCH  16  17
BRANCH  16  30
HETATM   30  O2  UNL     1      -8.829  16.719 -24.549  1.00  0.00    -0.386 OA
ATOM     31  H2  UNL     1      -8.630  15.797 -24.666  1.00  0.00     0.210 HD
ENDBRANCH  16  30
ENDBRANCH  14  16
ENDBRANCH  12  14
ENDBRANCH   1  12
BRANCH   3  32
HETATM   32  O5  UNL     1      -7.736  14.735 -30.614  1.00  0.00    -0.360 OA
ATOM     33  H5  UNL     1      -7.701  14.745 -31.563  1.00  0.00     0.217 HD
ENDBRANCH   3  32
BRANCH   9  34
HETATM   34  O10 UNL     1      -5.134  19.973 -29.684  1.00  0.00    -0.280 OA
ATOM     35  H10 UNL     1      -4.232  19.836 -29.417  1.00  0.00     0.245 HD
ENDBRANCH   9  34
BRANCH   8  36
HETATM   36  O9  UNL     1      -5.569  20.424 -32.327  1.00  0.00    -0.344 OA
ATOM     37  H9  UNL     1      -5.420  21.177 -31.768  1.00  0.00     0.219 HD
ENDBRANCH   8  36
BRANCH   7  38
HETATM   38  C15 UNL     1      -6.847  18.469 -33.955  1.00  0.00     0.195 C
BRANCH  38  39
HETATM   39  O7  UNL     1      -8.132  18.024 -34.187  1.00  0.00    -0.386 OA
ATOM     40  H7  UNL     1      -8.110  17.074 -34.147  1.00  0.00     0.210 HD
ENDBRANCH  38  39
BRANCH  38  41
HETATM   41  C16 UNL     1      -5.800  17.987 -34.842  1.00  0.00     0.008 A
HETATM   42  C17 UNL     1      -4.574  17.647 -34.244  1.00  0.00     0.013 A
HETATM   43  C18 UNL     1      -3.497  17.189 -34.966  1.00  0.00     0.001 A
HETATM   44  C19 UNL     1      -3.596  17.046 -36.332  1.00  0.00     0.003 A
HETATM   45  C20 UNL     1      -4.775  17.370 -36.930  1.00  0.00     0.037 A
HETATM   46  C21 UNL     1      -5.899  17.845 -36.199  1.00  0.00     0.074 A
BRANCH  46  47
HETATM   47  O8  UNL     1      -7.013  18.129 -36.924  1.00  0.00    -0.360 OA
ATOM     48  H8  UNL     1      -7.347  17.591 -37.631  1.00  0.00     0.217 HD
ENDBRANCH  46  47
ENDBRANCH  38  41
ENDBRANCH   7  38
TORSDOF 14
ENDMDL