MODEL 1
REMARK VINA RESULT: -6.107290904      0.000      0.000
REMARK  13 active torsions:
REMARK  status: ('A' for Active; 'I' for Inactive)
REMARK    1  A    between atoms: S1_2  and  C2_3
REMARK    2  A    between atoms: C7_11  and  S2_12
REMARK    3  A    between atoms: S2_12  and  N1_15
REMARK    4  A    between atoms: N1_15  and  C8_16
REMARK    5  A    between atoms: N1_15  and  C13_24
REMARK    6  A    between atoms: C8_16  and  C9_17
REMARK    7  A    between atoms: C9_17  and  O3_18
REMARK    8  A    between atoms: O3_18  and  C10_19
REMARK    9  A    between atoms: C10_19  and  C12_21
REMARK   10  A    between atoms: C13_24  and  C14_25
REMARK   11  A    between atoms: C14_25  and  O6_26
REMARK   12  A    between atoms: C14_25  and  C15_28
REMARK   13  A    between atoms: C15_28  and  O7_29
ROOT
HETATM    1  N1  UNL     1      44.066  30.165  14.616  1.00  0.00    -0.282 N
ENDROOT
BRANCH   1   2
HETATM    2  S2  UNL     1      42.638  30.109  15.484  1.00  0.00     0.267 S
HETATM    3  O1  UNL     1      42.887  30.294  16.995  1.00  0.00    -0.200 OA
HETATM    4  O2  UNL     1      42.040  28.719  15.321  1.00  0.00    -0.200 OA
BRANCH   2   5
HETATM    5  C7  UNL     1      41.439  31.323  15.115  1.00  0.00     0.117 A
HETATM    6  C2  UNL     1      40.448  31.075  14.205  1.00  0.00     0.065 A
HETATM    7  C3  UNL     1      39.539  32.091  13.941  1.00  0.00     0.152 A
HETATM    8  F1  UNL     1      38.544  31.886  13.049  1.00  0.00    -0.203 F
HETATM    9  C4  UNL     1      39.646  33.307  14.584  1.00  0.00     0.052 A
HETATM   10 BR1  UNL     1      38.389  34.710  14.220  1.00  0.00    -0.048 Br
HETATM   11  C5  UNL     1      40.660  33.518  15.494  1.00  0.00     0.043 A
HETATM   12  C6  UNL     1      41.578  32.545  15.783  1.00  0.00     0.037 A
HETATM   13 BR2  UNL     1      43.011  32.860  17.023  1.00  0.00    -0.049 Br
BRANCH   6  14
HETATM   14  S1  UNL     1      40.332  29.506  13.357  1.00  0.00    -0.130 SA
HETATM   15  C1  UNL     1      38.854  28.602  13.787  1.00  0.00     0.095 C
ENDBRANCH   6  14
ENDBRANCH   2   5
ENDBRANCH   1   2
BRANCH   1  16
HETATM   16  C8  UNL     1      45.235  30.291  15.383  1.00  0.00     0.167 C
BRANCH  16  17
HETATM   17  C9  UNL     1      46.347  29.324  14.937  1.00  0.00     0.189 C
BRANCH  17  18
HETATM   18  O3  UNL     1      46.970  28.910  16.102  1.00  0.00    -0.374 OA
BRANCH  18  19
HETATM   19  C10 UNL     1      48.308  29.159  16.158  1.00  0.00     0.218 C
HETATM   20  C11 UNL     1      48.498  30.450  16.962  1.00  0.00     0.051 C
BRANCH  19  21
HETATM   21  C12 UNL     1      49.113  28.125  16.799  1.00  0.00     0.202 C
HETATM   22  O4  UNL     1      49.913  28.447  17.711  1.00  0.00    -0.646 OA
HETATM   23  O5  UNL     1      49.042  26.787  16.450  1.00  0.00    -0.646 OA
ENDBRANCH  19  21
ENDBRANCH  18  19
ENDBRANCH  17  18
ENDBRANCH  16  17
ENDBRANCH   1  16
BRANCH   1  24
HETATM   24  C13 UNL     1      44.200  29.647  13.339  1.00  0.00     0.110 C
BRANCH  24  25
HETATM   25  C14 UNL     1      44.137  30.578  12.171  1.00  0.00     0.180 C
BRANCH  25  26
HETATM   26  O6  UNL     1      43.584  31.800  12.364  1.00  0.00    -0.388 OA
ATOM     27  H6  UNL     1      42.804  32.018  11.868  1.00  0.00     0.210 HD
ENDBRANCH  25  26
BRANCH  25  28
HETATM   28  C15 UNL     1      43.358  29.831  11.076  1.00  0.00     0.201 C
BRANCH  28  29
HETATM   29  O7  UNL     1      44.192  28.778  10.649  1.00  0.00    -0.398 OA
ATOM     30  H7  UNL     1      44.410  28.964   9.743  1.00  0.00     0.209 HD
ENDBRANCH  28  29
ENDBRANCH  25  28
ENDBRANCH  24  25
ENDBRANCH   1  24
TORSDOF 13
ENDMDL