MODEL 4
REMARK VINA RESULT: -8.506952879      9.371     15.481
REMARK  12 active torsions:
REMARK  status: ('A' for Active; 'I' for Inactive)
REMARK    1  A    between atoms: O1_2  and  C2_3
REMARK    2  A    between atoms: C4_5  and  C5_6
REMARK    3  A    between atoms: C5_6  and  N1_7
REMARK    4  A    between atoms: C10_15  and  N3_16
REMARK    5  A    between atoms: N3_16  and  C11_18
REMARK    6  A    between atoms: C16_31  and  C17_32
REMARK    7  A    between atoms: C17_32  and  N7_33
REMARK    8  A    between atoms: N7_33  and  C18_34
REMARK    9  A    between atoms: N7_33  and  C23_43
REMARK   10  A    between atoms: N8_36  and  C20_37
REMARK   11  A    between atoms: C20_37  and  C21_38
REMARK   12  A    between atoms: C23_43  and  C25_45
ROOT
HETATM    1  C2  UNL     1      48.678  29.151  16.795  1.00  0.00     0.080 A
HETATM    2  C3  UNL     1      47.780  28.872  15.802  1.00  0.00     0.049 A
HETATM    3  C4  UNL     1      47.088  29.876  15.176  1.00  0.00     0.001 A
HETATM    4  C14 UNL     1      47.320  31.157  15.568  1.00  0.00     0.125 A
HETATM    5  F1  UNL     1      46.675  32.189  14.993  1.00  0.00    -0.205 F
HETATM    6  C15 UNL     1      48.235  31.431  16.578  1.00  0.00     0.058 A
HETATM    7  C16 UNL     1      48.949  30.470  17.232  1.00  0.00     0.016 A
ENDROOT
BRANCH   3   8
HETATM    8  C5  UNL     1      46.107  29.599  14.093  1.00  0.00     0.163 C
BRANCH   8   9
HETATM    9  N1  UNL     1      44.761  29.862  14.487  1.00  0.00    -0.370 N
HETATM   10  C6  UNL     1      43.740  29.960  13.709  1.00  0.00     0.128 A
HETATM   11  N2  UNL     1      43.825  29.823  12.382  1.00  0.00    -0.351 N
HETATM   12  C10 UNL     1      42.514  30.215  14.327  1.00  0.00     0.078 A
HETATM   13  C7  UNL     1      42.786  29.912  11.545  1.00  0.00     0.090 A
ATOM     14  H2  UNL     1      44.744  29.639  11.981  1.00  0.00     0.166 HD
HETATM   15  C8  UNL     1      41.557  30.161  12.120  1.00  0.00     0.019 A
HETATM   16  C9  UNL     1      41.407  30.312  13.477  1.00  0.00     0.035 A
ATOM     17  H1  UNL     1      44.590  29.983  15.484  1.00  0.00     0.161 HD
BRANCH  12  18
HETATM   18  N3  UNL     1      42.413  30.348  15.715  1.00  0.00    -0.334 N
ATOM     19  H3  UNL     1      42.664  29.535  16.279  1.00  0.00     0.168 HD
BRANCH  18  20
HETATM   20  C11 UNL     1      42.037  31.388  16.336  1.00  0.00     0.190 A
HETATM   21  N4  UNL     1      40.719  31.543  16.679  1.00  0.00    -0.280 N
HETATM   22  N5  UNL     1      40.295  32.598  17.318  1.00  0.00    -0.294 N
ATOM     23  H4  UNL     1      40.052  30.813  16.428  1.00  0.00     0.188 HD
HETATM   24  C12 UNL     1      41.104  33.601  17.682  1.00  0.00     0.200 A
ATOM     25  H5  UNL     1      39.304  32.663  17.549  1.00  0.00     0.187 HD
HETATM   26  N6  UNL     1      42.398  33.482  17.363  1.00  0.00    -0.315 N
HETATM   27  C13 UNL     1      42.873  32.404  16.702  1.00  0.00     0.291 A
ATOM     28  H6  UNL     1      43.043  34.227  17.626  1.00  0.00     0.170 HD
HETATM   29  O2  UNL     1      44.121  32.366  16.434  1.00  0.00    -0.264 OA
ENDBRANCH  18  20
ENDBRANCH  12  18
ENDBRANCH   8   9
ENDBRANCH   3   8
BRANCH   1  30
HETATM   30  O1  UNL     1      49.361  28.116  17.407  1.00  0.00    -0.355 OA
HETATM   31  C1  UNL     1      49.315  26.800  16.888  1.00  0.00     0.210 C
ENDBRANCH   1  30
BRANCH   7  32
HETATM   32  C17 UNL     1      49.905  30.600  18.304  1.00  0.00     0.106 C
BRANCH  32  33
HETATM   33  N7  UNL     1      51.279  30.863  18.072  1.00  0.00    -0.348 N
BRANCH  33  34
HETATM   34  C18 UNL     1      52.129  29.910  18.551  1.00  0.00     0.199 C
HETATM   35  C19 UNL     1      51.637  29.199  19.848  1.00  0.00     0.161 C
HETATM   36  N8  UNL     1      52.707  29.812  20.568  1.00  0.00    -0.343 N
HETATM   37  C22 UNL     1      53.335  30.096  19.333  1.00  0.00     0.244 C
HETATM   38  O3  UNL     1      54.532  30.395  19.088  1.00  0.00    -0.271 OA
BRANCH  36  39
HETATM   39  C20 UNL     1      53.055  30.059  21.953  1.00  0.00     0.197 C
BRANCH  39  40
HETATM   40  C21 UNL     1      52.558  31.434  22.347  1.00  0.00     0.370 C
HETATM   41  F2  UNL     1      52.418  31.422  23.732  1.00  0.00    -0.213 F
HETATM   42  F3  UNL     1      51.300  31.577  21.777  1.00  0.00    -0.213 F
ENDBRANCH  39  40
ENDBRANCH  36  39
ENDBRANCH  33  34
BRANCH  33  43
HETATM   43  C23 UNL     1      51.461  31.908  17.197  1.00  0.00    -0.011 C
HETATM   44  C24 UNL     1      52.014  31.558  15.808  1.00  0.00     0.064 C
BRANCH  43  45
HETATM   45  C25 UNL     1      51.897  33.264  17.658  1.00  0.00     0.023 C
HETATM   46  C26 UNL     1      51.568  33.514  19.115  1.00  0.00     0.016 C
HETATM   47  C27 UNL     1      51.120  34.369  16.924  1.00  0.00     0.016 C
ENDBRANCH  43  45
ENDBRANCH  33  43
ENDBRANCH  32  33
ENDBRANCH   7  32
TORSDOF 12
ENDMDL