MODEL 3
REMARK VINA RESULT: -7.752279308      7.474     12.425
REMARK  14 active torsions:
REMARK  status: ('A' for Active; 'I' for Inactive)
REMARK    1  A    between atoms: C2_2  and  C3_3
REMARK    2  A    between atoms: C6_6  and  N1_7
REMARK    3  A    between atoms: N1_7  and  C7_9
REMARK    4  A    between atoms: C10_15  and  N3_16
REMARK    5  A    between atoms: N3_16  and  C11_17
REMARK    6  A    between atoms: N4_20  and  C14_21
REMARK    7  A    between atoms: C14_21  and  C15_22
REMARK    8  A    between atoms: C20_32  and  C21_33
REMARK    9  A    between atoms: C21_33  and  N7_34
REMARK   10  A    between atoms: N7_34  and  C22_37
REMARK   11  A    between atoms: C22_37  and  C23_38
REMARK   12  A    between atoms: C23_38  and  C24_39
REMARK   13  A    between atoms: C23_38  and  N9_43
REMARK   14  A    between atoms: C24_39  and  N8_40
ROOT
HETATM    1  C3  UNL     1      40.499  33.179  16.146  1.00  0.00    -0.049 A
HETATM    2  C4  UNL     1      39.510  33.677  15.308  1.00  0.00     0.010 A
HETATM    3  C5  UNL     1      38.934  32.928  14.318  1.00  0.00     0.032 A
HETATM    4  C6  UNL     1      39.372  31.633  14.176  1.00  0.00     0.070 A
HETATM    5  C18 UNL     1      40.378  31.112  15.022  1.00  0.00     0.080 A
HETATM    6  C19 UNL     1      40.725  29.744  14.810  1.00  0.00     0.102 C
HETATM    7  N6  UNL     1      40.971  28.620  14.622  1.00  0.00    -0.191 NA
HETATM    8  C20 UNL     1      40.957  31.858  16.010  1.00  0.00    -0.003 A
ENDROOT
BRANCH   4   9
HETATM    9  N1  UNL     1      38.789  30.809  13.161  1.00  0.00    -0.190 N
ATOM     10  H1  UNL     1      39.384  30.403  12.440  1.00  0.00     0.184 HD
BRANCH   9  11
HETATM   11  C7  UNL     1      37.500  30.569  13.147  1.00  0.00     0.685 A
HETATM   12  N2  UNL     1      36.795  30.630  12.005  1.00  0.00    -0.200 N
HETATM   13  C8  UNL     1      35.483  30.379  11.961  1.00  0.00     0.135 A
ATOM     14  H2  UNL     1      37.278  30.875  11.142  1.00  0.00     0.183 HD
HETATM   15  C9  UNL     1      34.800  30.046  13.094  1.00  0.00     0.108 A
HETATM   16 CL1  UNL     1      33.057  29.697  13.002  1.00  0.00    -0.078 Cl
HETATM   17  C10 UNL     1      35.478  29.971  14.308  1.00  0.00     0.210 A
HETATM   18  N5  UNL     1      36.834  30.249  14.241  1.00  0.00    -0.163 N
ATOM     19  H5  UNL     1      37.363  30.204  15.111  1.00  0.00     0.187 HD
BRANCH  17  20
HETATM   20  N3  UNL     1      34.944  29.688  15.334  1.00  0.00    -0.423 NA
BRANCH  20  21
HETATM   21  C11 UNL     1      34.336  29.363  16.489  1.00  0.00     0.168 C
HETATM   22  C12 UNL     1      34.957  28.395  17.458  1.00  0.00     0.069 C
HETATM   23  C13 UNL     1      33.860  27.472  17.974  1.00  0.00     0.275 C
HETATM   24  N4  UNL     1      32.855  28.326  18.593  1.00  0.00     0.093 N
HETATM   25  C16 UNL     1      32.083  28.922  17.527  1.00  0.00     0.275 C
HETATM   26  C17 UNL     1      32.872  28.962  16.230  1.00  0.00     0.069 C
BRANCH  24  27
HETATM   27  C14 UNL     1      32.099  27.623  19.577  1.00  0.00     0.343 C
BRANCH  27  28
HETATM   28  C15 UNL     1      30.846  27.029  19.019  1.00  0.00     0.381 C
HETATM   29  F1  UNL     1      31.009  25.786  18.496  1.00  0.00    -0.213 F
HETATM   30  F2  UNL     1      29.841  26.945  19.975  1.00  0.00    -0.213 F
ENDBRANCH  27  28
ENDBRANCH  24  27
ENDBRANCH  20  21
ENDBRANCH  17  20
ENDBRANCH   9  11
ENDBRANCH   4   9
BRANCH   8  31
HETATM   31  C21 UNL     1      41.983  31.400  16.946  1.00  0.00     0.273 C
BRANCH  31  32
HETATM   32  N7  UNL     1      43.344  31.519  16.529  1.00  0.00    -0.066 N
ATOM     33  H72 UNL     1      43.436  32.225  15.799  1.00  0.00     0.277 HD
ATOM     34  H71 UNL     1      43.908  31.954  17.260  1.00  0.00     0.277 HD
BRANCH  32  35
HETATM   35  C22 UNL     1      43.934  30.273  16.108  1.00  0.00     0.284 C
BRANCH  35  36
HETATM   36  C23 UNL     1      44.670  30.250  14.838  1.00  0.00     0.023 C
BRANCH  36  37
HETATM   37  C24 UNL     1      44.012  30.758  13.616  1.00  0.00     0.079 C
BRANCH  37  38
HETATM   38  N8  UNL     1      43.551  32.064  13.497  1.00  0.00    -0.300 NA
HETATM   39  C25 UNL     1      42.646  32.439  12.474  1.00  0.00     0.115 C
HETATM   40  C26 UNL     1      44.717  32.952  13.411  1.00  0.00     0.115 C
ENDBRANCH  37  38
ENDBRANCH  36  37
BRANCH  36  41
HETATM   41  N9  UNL     1      45.543  29.133  14.614  1.00  0.00    -0.293 NA
HETATM   42  C27 UNL     1      45.917  29.093  13.168  1.00  0.00     0.116 C
HETATM   43  C28 UNL     1      46.788  29.217  15.356  1.00  0.00     0.116 C
ENDBRANCH  36  41
ENDBRANCH  35  36
ENDBRANCH  32  35
ENDBRANCH  31  32
ENDBRANCH   8  31
BRANCH   1  44
HETATM   44  C2  UNL     1      41.052  34.049  17.187  1.00  0.00     0.035 C
HETATM   45  C1  UNL     1      42.083  34.989  16.626  1.00  0.00     0.010 C
ENDBRANCH   1  44
TORSDOF 14
ENDMDL