MODEL 5
REMARK VINA RESULT: -7.722087506      5.604     13.374
REMARK  13 active torsions:
REMARK  status: ('A' for Active; 'I' for Inactive)
REMARK    1  A    between atoms: O1_2  and  C2_3
REMARK    2  A    between atoms: C2_3  and  C3_4
REMARK    3  A    between atoms: C3_4  and  N1_5
REMARK    4  A    between atoms: N2_8  and  S1_9
REMARK    5  A    between atoms: S1_9  and  C6_12
REMARK    6  A    between atoms: C8_16  and  N4_17
REMARK    7  A    between atoms: N4_17  and  C9_19
REMARK    8  A    between atoms: C9_19  and  C10_20
REMARK    9  A    between atoms: C10_20  and  C11_21
REMARK   10  A    between atoms: C11_21  and  C12_22
REMARK   11  A    between atoms: C12_22  and  C13_23
REMARK   12  A    between atoms: C13_23  and  C14_24
REMARK   13  A    between atoms: C16_31  and  N7_32
ROOT
HETATM    1  C6  UNL     1      39.783  30.546  14.013  1.00  0.00     0.091 A
HETATM    2  C7  UNL     1      40.759  29.652  13.639  1.00  0.00     0.114 A
HETATM    3  N3  UNL     1      41.910  29.514  14.356  1.00  0.00    -0.350 N
ATOM      4  H3  UNL     1      42.606  28.838  14.040  1.00  0.00     0.166 HD
HETATM    5  C8  UNL     1      42.164  30.232  15.463  1.00  0.00     0.123 A
HETATM    6  C18 UNL     1      41.202  31.141  15.869  1.00  0.00     0.079 A
HETATM    7 CL3  UNL     1      41.455  32.131  17.317  1.00  0.00    -0.080 Cl
HETATM    8  C19 UNL     1      40.045  31.282  15.148  1.00  0.00     0.054 A
ENDROOT
BRANCH   5   9
HETATM    9  N4  UNL     1      43.210  30.156  16.172  1.00  0.00    -0.375 N
ATOM     10  H4  UNL     1      43.070  29.963  17.164  1.00  0.00     0.161 HD
BRANCH   9  11
HETATM   11  C9  UNL     1      44.579  30.309  15.738  1.00  0.00     0.121 C
BRANCH  11  12
HETATM   12  C10 UNL     1      44.996  31.731  15.598  1.00  0.00     0.020 C
BRANCH  12  13
HETATM   13  C11 UNL     1      46.486  31.814  15.428  1.00  0.00     0.002 C
BRANCH  13  14
HETATM   14  C12 UNL     1      47.209  30.711  16.124  1.00  0.00     0.006 C
BRANCH  14  15
HETATM   15  C13 UNL     1      48.403  31.217  16.915  1.00  0.00     0.059 C
BRANCH  15  16
HETATM   16  C14 UNL     1      49.218  30.078  17.435  1.00  0.00     0.037 A
HETATM   17  N5  UNL     1      48.983  28.839  16.960  1.00  0.00    -0.334 N
HETATM   18  C15 UNL     1      49.734  27.835  17.451  1.00  0.00     0.180 A
ATOM     19  H5  UNL     1      48.265  28.669  16.257  1.00  0.00     0.168 HD
HETATM   20 CL1  UNL     1      49.417  26.216  16.822  1.00  0.00    -0.045 Cl
HETATM   21  N6  UNL     1      50.696  28.009  18.382  1.00  0.00    -0.318 N
HETATM   22  C16 UNL     1      50.957  29.234  18.879  1.00  0.00     0.125 A
ATOM     23  H6  UNL     1      51.230  27.206  18.713  1.00  0.00     0.170 HD
HETATM   24  C17 UNL     1      50.197  30.274  18.386  1.00  0.00     0.100 A
HETATM   25 CL2  UNL     1      50.528  31.884  19.027  1.00  0.00    -0.078 Cl
BRANCH  22  26
HETATM   26  N7  UNL     1      51.873  29.414  19.769  1.00  0.00    -0.384 N
ATOM     27  H72 UNL     1      52.597  28.718  19.953  1.00  0.00     0.157 HD
ATOM     28  H71 UNL     1      51.908  30.266  20.328  1.00  0.00     0.157 HD
ENDBRANCH  22  26
ENDBRANCH  15  16
ENDBRANCH  14  15
ENDBRANCH  13  14
ENDBRANCH  12  13
ENDBRANCH  11  12
ENDBRANCH   9  11
ENDBRANCH   5   9
BRANCH   1  29
HETATM   29  S1  UNL     1      38.327  30.739  13.118  1.00  0.00     0.245 S
HETATM   30  O2  UNL     1      37.709  32.103  13.378  1.00  0.00    -0.206 OA
HETATM   31  O3  UNL     1      38.660  30.745  11.634  1.00  0.00    -0.206 OA
BRANCH  29  32
HETATM   32  N2  UNL     1      37.148  29.540  13.369  1.00  0.00    -0.203 NA
HETATM   33  C5  UNL     1      35.851  30.101  13.402  1.00  0.00     0.138 C
HETATM   34  C4  UNL     1      35.150  30.161  14.706  1.00  0.00     0.288 C
HETATM   35  N1  UNL     1      35.485  29.203  15.693  1.00  0.00     0.092 N
HETATM   36  C21 UNL     1      36.213  28.110  15.111  1.00  0.00     0.288 C
HETATM   37  C20 UNL     1      37.464  28.656  14.445  1.00  0.00     0.138 C
BRANCH  35  38
HETATM   38  C3  UNL     1      34.249  28.618  16.237  1.00  0.00     0.298 C
BRANCH  38  39
HETATM   39  C2  UNL     1      34.552  27.754  17.415  1.00  0.00     0.197 C
BRANCH  39  40
HETATM   40  O1  UNL     1      35.040  28.456  18.480  1.00  0.00    -0.394 OA
HETATM   41  C1  UNL     1      34.111  29.202  19.172  1.00  0.00     0.201 C
ENDBRANCH  39  40
ENDBRANCH  38  39
ENDBRANCH  35  38
ENDBRANCH  29  32
ENDBRANCH   1  29
TORSDOF 13
ENDMDL