MODEL 3
REMARK VINA RESULT: -8.063599202      7.877     11.547
REMARK  12 active torsions:
REMARK  status: ('A' for Active; 'I' for Inactive)
REMARK    1  A    between atoms: C4_7  and  C5_8
REMARK       I    between atoms: C5_8  and  N3_10
REMARK    2  A    between atoms: N3_10  and  C6_12
REMARK    3  A    between atoms: C6_12  and  C7_13
REMARK    4  A    between atoms: C7_13  and  N4_14
REMARK    5  A    between atoms: N5_17  and  C10_18
REMARK    6  A    between atoms: C10_18  and  C11_19
REMARK    7  A    between atoms: C11_19  and  C12_20
REMARK    8  A    between atoms: C12_20  and  C13_21
REMARK    9  A    between atoms: C13_21  and  C14_22
REMARK   10  A    between atoms: C14_22  and  N6_23
REMARK   11  A    between atoms: C17_26  and  C18_28
REMARK   12  A    between atoms: C28_42  and  N8_43
ROOT
HETATM    1  N1  UNL     1      31.847  27.866  20.422  1.00  0.00    -0.190 NA
HETATM    2  C1  UNL     1      32.509  28.003  19.477  1.00  0.00     0.121 C
HETATM    3  C2  UNL     1      33.336  28.159  18.321  1.00  0.00     0.157 A
HETATM    4  N2  UNL     1      34.637  27.874  18.384  1.00  0.00    -0.352 N
ATOM      5  H2  UNL     1      35.026  27.543  19.268  1.00  0.00     0.166 HD
HETATM    6  C3  UNL     1      35.472  28.008  17.306  1.00  0.00     0.124 A
HETATM    7  C4  UNL     1      34.945  28.450  16.125  1.00  0.00     0.117 A
HETATM    8  N7  UNL     1      33.624  28.735  16.078  1.00  0.00    -0.335 N
ATOM      9  H7  UNL     1      33.233  29.065  15.195  1.00  0.00     0.168 HD
HETATM   10  C28 UNL     1      32.798  28.606  17.133  1.00  0.00     0.137 A
ENDROOT
BRANCH  10  11
HETATM   11  N8  UNL     1      31.538  28.871  17.107  1.00  0.00    -0.383 N
ATOM     12  H82 UNL     1      30.884  28.629  17.850  1.00  0.00     0.157 HD
ATOM     13  H81 UNL     1      31.173  29.356  16.288  1.00  0.00     0.157 HD
ENDBRANCH  10  11
BRANCH   7  14
HETATM   14  C5  UNL     1      35.772  28.609  14.950  1.00  0.00     0.269 C
HETATM   15  O1  UNL     1      35.255  28.383  13.822  1.00  0.00    -0.266 OA
HETATM   16  N3  UNL     1      37.107  29.001  15.039  1.00  0.00    -0.354 N
ATOM     17  H3  UNL     1      37.506  29.185  15.960  1.00  0.00     0.162 HD
BRANCH  16  18
HETATM   18  C6  UNL     1      37.942  29.155  13.877  1.00  0.00     0.153 C
BRANCH  18  19
HETATM   19  C7  UNL     1      39.366  28.820  14.217  1.00  0.00     0.292 C
BRANCH  19  20
HETATM   20  N4  UNL     1      40.235  29.292  13.167  1.00  0.00     0.093 N
HETATM   21  C8  UNL     1      41.436  29.887  13.650  1.00  0.00     0.302 C
HETATM   22  C9  UNL     1      41.156  31.229  14.301  1.00  0.00     0.302 C
HETATM   23  N5  UNL     1      40.255  32.039  13.503  1.00  0.00     0.091 N
HETATM   24  C26 UNL     1      40.128  31.522  12.151  1.00  0.00     0.302 C
HETATM   25  C27 UNL     1      39.526  30.147  12.227  1.00  0.00     0.302 C
BRANCH  23  26
HETATM   26  C10 UNL     1      40.689  33.431  13.487  1.00  0.00     0.272 C
BRANCH  26  27
HETATM   27  C11 UNL     1      39.950  34.147  14.591  1.00  0.00     0.030 C
BRANCH  27  28
HETATM   28  C12 UNL     1      38.534  33.700  14.627  1.00  0.00     0.003 C
BRANCH  28  29
HETATM   29  C13 UNL     1      37.725  34.329  13.503  1.00  0.00     0.030 C
BRANCH  29  30
HETATM   30  C14 UNL     1      36.813  33.322  12.892  1.00  0.00     0.272 C
BRANCH  30  31
HETATM   31  N6  UNL     1      35.523  33.303  13.529  1.00  0.00     0.088 N
HETATM   32  C15 UNL     1      34.475  33.827  12.721  1.00  0.00     0.274 C
HETATM   33  C16 UNL     1      33.841  32.763  11.818  1.00  0.00     0.061 C
HETATM   34  C17 UNL     1      33.073  31.819  12.719  1.00  0.00     0.070 C
HETATM   35 CL1  UNL     1      31.410  32.445  12.898  1.00  0.00    -0.114 Cl
HETATM   36  C24 UNL     1      33.710  31.801  14.065  1.00  0.00     0.061 C
HETATM   37  C25 UNL     1      35.223  31.942  13.975  1.00  0.00     0.274 C
BRANCH  34  38
HETATM   38  C18 UNL     1      33.019  30.513  12.038  1.00  0.00     0.004 A
HETATM   39  C19 UNL     1      33.668  30.317  10.851  1.00  0.00     0.015 A
HETATM   40  C20 UNL     1      33.614  29.089  10.209  1.00  0.00     0.043 A
HETATM   41  C21 UNL     1      32.908  28.056  10.755  1.00  0.00     0.119 A
HETATM   42  F1  UNL     1      32.849  26.857  10.139  1.00  0.00    -0.206 F
HETATM   43  C22 UNL     1      32.244  28.223  11.948  1.00  0.00     0.085 A
HETATM   44  C23 UNL     1      32.311  29.465  12.579  1.00  0.00     0.127 A
HETATM   45  F2  UNL     1      31.648  29.594  13.751  1.00  0.00    -0.205 F
ENDBRANCH  34  38
ENDBRANCH  30  31
ENDBRANCH  29  30
ENDBRANCH  28  29
ENDBRANCH  27  28
ENDBRANCH  26  27
ENDBRANCH  23  26
ENDBRANCH  19  20
ENDBRANCH  18  19
ENDBRANCH  16  18
ENDBRANCH   7  14
TORSDOF 12
ENDMDL