MODEL 4
REMARK VINA RESULT: -7.755554879     10.467     15.066
REMARK  11 active torsions:
REMARK  status: ('A' for Active; 'I' for Inactive)
REMARK    1  A    between atoms: C2_2  and  C4_4
REMARK    2  A    between atoms: C4_4  and  N1_5
REMARK    3  A    between atoms: C4_4  and  C24_39
REMARK       I    between atoms: N1_5  and  C5_7
REMARK    4  A    between atoms: C5_7  and  C6_9
REMARK    5  A    between atoms: C6_9  and  C7_10
REMARK    6  A    between atoms: C7_10  and  N2_11
REMARK    7  A    between atoms: C8_12  and  C9_13
REMARK    8  A    between atoms: C9_13  and  C10_14
REMARK    9  A    between atoms: C10_14  and  C11_15
REMARK   10  A    between atoms: C15_23  and  C16_24
REMARK   11  A    between atoms: C16_24  and  C17_25
ROOT
HETATM    1  N2  UNL     1      43.766  30.034  12.559  1.00  0.00    -0.332 N
HETATM    2  C8  UNL     1      43.080  29.796  11.392  1.00  0.00     0.015 A
HETATM    3  C12 UNL     1      41.733  29.893  11.619  1.00  0.00     0.046 A
HETATM    4  C13 UNL     1      41.547  30.195  12.933  1.00  0.00     0.078 A
HETATM    5  C14 UNL     1      40.302  30.365  13.495  1.00  0.00     0.259 C
HETATM    6  O2  UNL     1      39.274  30.096  12.833  1.00  0.00    -0.267 OA
HETATM    7  N3  UNL     1      40.024  30.817  14.758  1.00  0.00    -0.321 N
ATOM      8  H3  UNL     1      39.051  30.754  15.060  1.00  0.00     0.169 HD
HETATM    9  C15 UNL     1      40.919  31.349  15.663  1.00  0.00     0.085 C
HETATM   10  C22 UNL     1      42.201  30.862  15.750  1.00  0.00     0.270 C
HETATM   11  O3  UNL     1      42.568  30.612  16.934  1.00  0.00    -0.266 OA
HETATM   12  N5  UNL     1      43.105  30.612  14.785  1.00  0.00    -0.307 N
ATOM     13  H5  UNL     1      44.089  30.678  15.046  1.00  0.00     0.170 HD
HETATM   14  C23 UNL     1      42.831  30.277  13.490  1.00  0.00     0.126 A
ENDROOT
BRANCH   1  15
HETATM   15  C7  UNL     1      45.175  30.073  12.626  1.00  0.00     0.163 C
BRANCH  15  16
HETATM   16  C6  UNL     1      45.931  29.012  13.304  1.00  0.00     0.067 C
BRANCH  16  17
HETATM   17  C5  UNL     1      46.349  29.120  14.680  1.00  0.00     0.239 C
HETATM   18  N1  UNL     1      47.761  29.120  15.019  1.00  0.00    -0.343 N
ATOM     19  H1  UNL     1      48.437  29.042  14.260  1.00  0.00     0.163 HD
HETATM   20  O1  UNL     1      45.597  29.221  15.671  1.00  0.00    -0.269 OA
BRANCH  18  21
HETATM   21  C4  UNL     1      48.257  29.224  16.352  1.00  0.00     0.189 C
BRANCH  21  22
HETATM   22  C2  UNL     1      49.507  28.400  16.578  1.00  0.00     0.011 C
HETATM   23  C1  UNL     1      50.395  28.420  15.325  1.00  0.00     0.012 C
HETATM   24  C3  UNL     1      49.152  26.948  16.815  1.00  0.00     0.012 C
ENDBRANCH  21  22
BRANCH  21  25
HETATM   25  C24 UNL     1      48.622  30.636  16.622  1.00  0.00     0.197 C
HETATM   26  O4  UNL     1      48.565  31.460  15.683  1.00  0.00    -0.646 OA
HETATM   27  O5  UNL     1      49.009  30.983  17.901  1.00  0.00    -0.646 OA
ENDBRANCH  21  25
ENDBRANCH  18  21
ENDBRANCH  16  17
ENDBRANCH  15  16
ENDBRANCH   1  15
BRANCH   2  28
HETATM   28  C9  UNL     1      43.718  29.441  10.106  1.00  0.00     0.058 C
BRANCH  28  29
HETATM   29  C10 UNL     1      43.545  30.433   9.028  1.00  0.00     0.021 C
BRANCH  29  30
HETATM   30  C11 UNL     1      44.063  31.794   9.360  1.00  0.00     0.115 C
HETATM   31 CL1  UNL     1      42.635  32.867   9.514  1.00  0.00    -0.130 Cl
ENDBRANCH  29  30
ENDBRANCH  28  29
ENDBRANCH   2  28
BRANCH   9  32
HETATM   32  C16 UNL     1      40.418  32.461  16.453  1.00  0.00     0.105 C
BRANCH  32  33
HETATM   33  C17 UNL     1      40.999  33.788  16.157  1.00  0.00    -0.006 A
HETATM   34  C18 UNL     1      42.065  34.327  16.801  1.00  0.00     0.057 A
HETATM   35 CL2  UNL     1      42.855  33.543  18.180  1.00  0.00    -0.082 Cl
HETATM   36  C19 UNL     1      42.604  35.580  16.447  1.00  0.00     0.112 A
HETATM   37  N4  UNL     1      42.012  36.224  15.438  1.00  0.00    -0.372 N
HETATM   38  C20 UNL     1      40.954  35.729  14.774  1.00  0.00     0.112 A
ATOM     39  H4  UNL     1      42.381  37.133  15.159  1.00  0.00     0.164 HD
HETATM   40  C21 UNL     1      40.413  34.517  15.097  1.00  0.00     0.057 A
HETATM   41 CL3  UNL     1      39.034  33.877  14.228  1.00  0.00    -0.082 Cl
ENDBRANCH  32  33
ENDBRANCH   9  32
TORSDOF 11
ENDMDL