MODEL 2
REMARK VINA RESULT: -5.981686817      1.153      1.610
REMARK  13 active torsions:
REMARK  status: ('A' for Active; 'I' for Inactive)
REMARK    1  A    between atoms: C2_2  and  O2_4
REMARK    2  A    between atoms: O2_4  and  C3_5
REMARK    3  A    between atoms: C3_5  and  N1_6
REMARK    4  A    between atoms: N1_6  and  C5_8
REMARK    5  A    between atoms: C5_8  and  C6_9
REMARK    6  A    between atoms: C5_8  and  C19_34
REMARK       I    between atoms: C6_9  and  N2_11
REMARK    7  A    between atoms: C11_17  and  C12_18
REMARK    8  A    between atoms: C12_18  and  C18_30
REMARK    9  A    between atoms: N3_19  and  C13_21
REMARK   10  A    between atoms: C13_21  and  C14_22
REMARK   11  A    between atoms: C13_21  and  C17_27
REMARK   12  A    between atoms: C14_22  and  C15_23
REMARK   13  A    between atoms: C15_23  and  C16_24
ROOT
HETATM    1  C6  UNL     1      46.305  31.809  15.127  1.00  0.00     0.244 C
HETATM    2  O3  UNL     1      45.650  30.862  15.637  1.00  0.00    -0.271 OA
HETATM    3  N2  UNL     1      45.747  33.010  14.682  1.00  0.00    -0.330 N
HETATM    4  C7  UNL     1      46.615  34.092  14.181  1.00  0.00     0.201 C
HETATM    5  S1  UNL     1      45.573  34.921  12.957  1.00  0.00    -0.137 SA
HETATM    6  C8  UNL     1      44.101  33.752  13.193  1.00  0.00     0.028 C
HETATM    7  C9  UNL     1      44.443  32.642  12.231  1.00  0.00     0.029 C
HETATM    8  C10 UNL     1      42.977  34.588  12.736  1.00  0.00     0.029 C
HETATM    9  C11 UNL     1      44.354  33.530  14.628  1.00  0.00     0.155 C
ENDROOT
BRANCH   9  10
HETATM   10  C12 UNL     1      43.372  32.745  15.450  1.00  0.00     0.062 C
HETATM   11  N3  UNL     1      43.018  31.517  14.991  1.00  0.00    -0.377 N
ATOM     12  H3  UNL     1      43.754  31.097  14.422  1.00  0.00     0.160 HD
BRANCH  11  13
HETATM   13  C13 UNL     1      41.909  30.686  15.097  1.00  0.00     0.183 C
BRANCH  13  14
HETATM   14  C14 UNL     1      41.367  30.328  13.741  1.00  0.00     0.046 C
BRANCH  14  15
HETATM   15  C15 UNL     1      39.875  30.595  13.678  1.00  0.00     0.116 C
BRANCH  15  16
HETATM   16  C16 UNL     1      39.170  29.348  13.218  1.00  0.00     0.172 C
HETATM   17  O4  UNL     1      38.228  28.913  13.936  1.00  0.00    -0.648 OA
HETATM   18  O5  UNL     1      39.591  28.760  12.049  1.00  0.00    -0.648 OA
ENDBRANCH  15  16
ENDBRANCH  14  15
ENDBRANCH  13  14
BRANCH  13  19
HETATM   19  C17 UNL     1      42.359  29.360  15.715  1.00  0.00     0.196 C
HETATM   20  O6  UNL     1      41.883  28.297  15.249  1.00  0.00    -0.646 OA
HETATM   21  O7  UNL     1      43.263  29.276  16.747  1.00  0.00    -0.646 OA
ENDBRANCH  13  19
ENDBRANCH  11  13
BRANCH  10  22
HETATM   22  C18 UNL     1      42.538  33.478  16.413  1.00  0.00     0.228 C
HETATM   23 CL1  UNL     1      42.855  33.105  18.135  1.00  0.00    -0.077 Cl
HETATM   24 CL2  UNL     1      42.933  35.276  16.328  1.00  0.00    -0.077 Cl
HETATM   25 CL3  UNL     1      40.794  33.457  16.237  1.00  0.00    -0.077 Cl
ENDBRANCH  10  22
ENDBRANCH   9  10
BRANCH   1  26
HETATM   26  C5  UNL     1      47.812  31.566  15.020  1.00  0.00     0.176 C
BRANCH  26  27
HETATM   27  N1  UNL     1      48.206  30.574  15.914  1.00  0.00    -0.383 N
HETATM   28  C4  UNL     1      48.499  31.122  17.239  1.00  0.00     0.146 C
BRANCH  27  29
HETATM   29  C3  UNL     1      49.087  29.538  15.668  1.00  0.00     0.299 C
BRANCH  29  30
HETATM   30  O2  UNL     1      48.484  28.320  16.233  1.00  0.00    -0.302 OA
BRANCH  30  31
HETATM   31  C2  UNL     1      49.317  27.447  16.907  1.00  0.00     0.256 C
HETATM   32  C1  UNL     1      50.422  27.999  17.720  1.00  0.00     0.126 C
HETATM   33  O1  UNL     1      49.125  26.225  16.821  1.00  0.00    -0.266 OA
ENDBRANCH  30  31
ENDBRANCH  29  30
ENDBRANCH  27  29
ENDBRANCH  26  27
BRANCH  26  34
HETATM   34  C19 UNL     1      48.015  31.338  13.551  1.00  0.00     0.009 C
HETATM   35  C20 UNL     1      47.555  30.053  12.985  1.00  0.00     0.012 C
HETATM   36  C21 UNL     1      49.428  31.718  13.098  1.00  0.00     0.012 C
ENDBRANCH  26  34
ENDBRANCH   1  26
TORSDOF 13
ENDMDL