MODEL 5
REMARK VINA RESULT: -7.517200506      4.010      8.797
REMARK  15 active torsions:
REMARK  status: ('A' for Active; 'I' for Inactive)
REMARK    1  A    between atoms: C2_2  and  C3_4
REMARK    2  A    between atoms: C4_5  and  C5_6
REMARK    3  A    between atoms: C5_6  and  C6_7
REMARK    4  A    between atoms: C6_7  and  C7_8
REMARK    5  A    between atoms: C7_8  and  C8_9
REMARK    6  A    between atoms: C8_9  and  S1_10
REMARK    7  A    between atoms: S1_10  and  N1_13
REMARK    8  A    between atoms: N1_13  and  C9_15
REMARK    9  A    between atoms: C9_15  and  C10_16
REMARK   10  A    between atoms: C12_23  and  N4_24
REMARK   11  A    between atoms: N4_24  and  C13_26
REMARK   12  A    between atoms: C13_26  and  O4_27
REMARK   13  A    between atoms: C13_26  and  C14_29
REMARK   14  A    between atoms: C14_29  and  C17_32
REMARK   15  A    between atoms: C17_32  and  C18_33
ROOT
HETATM    1  C3  UNL     1      33.949  29.093  11.682  1.00  0.00     0.181 C
HETATM    2  C4  UNL     1      34.355  29.221  13.146  1.00  0.00     0.141 C
HETATM    3  N2  UNL     1      35.656  29.877  13.142  1.00  0.00    -0.250 N
HETATM    4  N3  UNL     1      36.671  29.788  13.987  1.00  0.00    -0.128 N
ATOM      5  H3  UNL     1      36.685  29.188  14.811  1.00  0.00     0.206 HD
HETATM    6  C12 UNL     1      37.684  30.593  13.615  1.00  0.00     0.696 A
HETATM    7  N5  UNL     1      37.274  31.208  12.486  1.00  0.00    -0.168 N
ATOM      8  H5  UNL     1      37.808  31.887  11.943  1.00  0.00     0.186 HD
HETATM    9  C22 UNL     1      36.037  30.765  12.206  1.00  0.00     0.207 A
HETATM   10  C23 UNL     1      35.150  31.101  11.068  1.00  0.00     0.290 C
HETATM   11  O5  UNL     1      35.456  31.927  10.176  1.00  0.00    -0.264 OA
HETATM   12  N6  UNL     1      33.879  30.387  11.079  1.00  0.00    -0.336 N
HETATM   13  C24 UNL     1      32.747  31.056  10.516  1.00  0.00     0.154 C
ENDROOT
BRANCH   2  14
HETATM   14  C5  UNL     1      33.406  30.064  13.927  1.00  0.00     0.030 C
BRANCH  14  15
HETATM   15  C6  UNL     1      32.909  29.372  15.176  1.00  0.00     0.003 C
BRANCH  15  16
HETATM   16  C7  UNL     1      33.928  29.420  16.290  1.00  0.00     0.017 C
BRANCH  16  17
HETATM   17  C8  UNL     1      33.357  29.895  17.583  1.00  0.00     0.163 C
BRANCH  17  18
HETATM   18  S1  UNL     1      33.965  28.828  18.869  1.00  0.00     0.226 S
HETATM   19  O2  UNL     1      34.632  29.707  19.892  1.00  0.00    -0.206 OA
HETATM   20  O3  UNL     1      34.967  27.904  18.238  1.00  0.00    -0.206 OA
BRANCH  18  21
HETATM   21  N1  UNL     1      32.715  27.877  19.555  1.00  0.00    -0.314 N
ATOM     22  H1  UNL     1      32.645  27.684  20.554  1.00  0.00     0.172 HD
BRANCH  21  23
HETATM   23  C9  UNL     1      31.777  27.379  18.589  1.00  0.00     0.210 C
BRANCH  23  24
HETATM   24  C10 UNL     1      30.575  26.856  19.380  1.00  0.00     0.256 C
HETATM   25  C11 UNL     1      30.331  25.418  19.030  1.00  0.00     0.091 C
HETATM   26  F1  UNL     1      29.480  27.662  19.157  1.00  0.00    -0.205 F
HETATM   27  F2  UNL     1      30.969  26.914  20.724  1.00  0.00    -0.205 F
ENDBRANCH  23  24
ENDBRANCH  21  23
ENDBRANCH  18  21
ENDBRANCH  17  18
ENDBRANCH  16  17
ENDBRANCH  15  16
ENDBRANCH  14  15
ENDBRANCH   2  14
BRANCH   1  28
HETATM   28  C2  UNL     1      32.908  28.123  11.443  1.00  0.00     0.147 C
HETATM   29  C1  UNL     1      32.544  27.580  10.123  1.00  0.00     0.093 C
HETATM   30  O1  UNL     1      32.211  27.647  12.370  1.00  0.00    -0.296 OA
ENDBRANCH   1  28
BRANCH   6  31
HETATM   31  N4  UNL     1      38.821  30.757  14.201  1.00  0.00    -0.198 N
ATOM     32  H4  UNL     1      39.149  31.716  14.315  1.00  0.00     0.180 HD
BRANCH  31  33
HETATM   33  C13 UNL     1      39.662  29.722  14.703  1.00  0.00     0.242 C
BRANCH  33  34
HETATM   34  O4  UNL     1      39.716  28.667  13.801  1.00  0.00    -0.376 OA
ATOM     35  H4  UNL     1      40.619  28.421  13.637  1.00  0.00     0.212 HD
ENDBRANCH  33  34
BRANCH  33  36
HETATM   36  C14 UNL     1      41.079  30.287  14.949  1.00  0.00    -0.003 C
HETATM   37  C15 UNL     1      41.481  30.866  13.613  1.00  0.00     0.019 C
HETATM   38  C16 UNL     1      41.941  29.098  15.242  1.00  0.00     0.019 C
BRANCH  36  39
HETATM   39  C17 UNL     1      40.940  31.282  16.027  1.00  0.00     0.021 C
BRANCH  39  40
HETATM   40  C18 UNL     1      42.057  32.191  16.330  1.00  0.00    -0.051 C
HETATM   41  C19 UNL     1      43.434  31.613  16.174  1.00  0.00     0.014 C
HETATM   42  C20 UNL     1      41.931  32.555  17.823  1.00  0.00     0.014 C
HETATM   43  C21 UNL     1      42.011  33.508  15.599  1.00  0.00     0.014 C
ENDBRANCH  39  40
ENDBRANCH  36  39
ENDBRANCH  33  36
ENDBRANCH  31  33
ENDBRANCH   6  31
TORSDOF 15
ENDMDL