MODEL 5
REMARK VINA RESULT: -7.192620563     10.346     14.310
REMARK  12 active torsions:
REMARK  status: ('A' for Active; 'I' for Inactive)
REMARK    1  A    between atoms: C2_2  and  N1_3
REMARK    2  A    between atoms: N1_3  and  C3_4
REMARK       I    between atoms: N1_3  and  C5_6
REMARK    3  A    between atoms: C5_6  and  C6_8
REMARK    4  A    between atoms: N4_18  and  C11_19
REMARK    5  A    between atoms: C11_19  and  C12_20
REMARK    6  A    between atoms: C11_19  and  C21_31
REMARK    7  A    between atoms: C12_20  and  C13_21
REMARK    8  A    between atoms: C21_31  and  O4_32
REMARK    9  A    between atoms: C21_31  and  C22_34
REMARK   10  A    between atoms: C22_34  and  N5_35
REMARK   11  A    between atoms: N5_35  and  C23_37
REMARK   12  A    between atoms: C23_37  and  C24_38
ROOT
HETATM    1  C11 UNL     1      46.535  30.662  14.763  1.00  0.00     0.121 C
ENDROOT
BRANCH   1   2
HETATM    2  N4  UNL     1      45.073  30.781  14.869  1.00  0.00    -0.344 N
HETATM    3  C6  UNL     1      44.292  31.323  15.975  1.00  0.00     0.183 C
HETATM    4  C7  UNL     1      42.988  30.513  15.791  1.00  0.00     0.080 C
HETATM    5  C8  UNL     1      42.913  30.234  14.330  1.00  0.00     0.025 A
HETATM    6  C9  UNL     1      44.179  30.410  13.836  1.00  0.00     0.128 A
HETATM    7  C10 UNL     1      42.081  29.884  13.313  1.00  0.00     0.104 A
HETATM    8  N2  UNL     1      44.053  30.152  12.498  1.00  0.00    -0.284 N
HETATM    9  N3  UNL     1      42.824  29.842  12.187  1.00  0.00    -0.291 N
ATOM     10  H2  UNL     1      44.821  30.196  11.829  1.00  0.00     0.188 HD
ATOM     11  H3  UNL     1      42.484  29.608  11.255  1.00  0.00     0.187 HD
HETATM   12 BR1  UNL     1      40.206  29.519  13.455  1.00  0.00    -0.029 Br
BRANCH   3  13
HETATM   13  C5  UNL     1      43.906  32.723  15.794  1.00  0.00     0.243 C
HETATM   14  N1  UNL     1      42.979  33.378  16.599  1.00  0.00    -0.351 N
HETATM   15  O1  UNL     1      44.450  33.389  14.845  1.00  0.00    -0.271 OA
BRANCH  14  16
HETATM   16  C2  UNL     1      42.619  34.785  16.346  1.00  0.00     0.121 C
HETATM   17  C1  UNL     1      41.580  34.860  15.231  1.00  0.00     0.026 C
ENDBRANCH  14  16
BRANCH  14  18
HETATM   18  C3  UNL     1      42.327  32.766  17.723  1.00  0.00     0.121 C
HETATM   19  C4  UNL     1      40.844  32.669  17.628  1.00  0.00     0.026 C
ENDBRANCH  14  18
ENDBRANCH   3  13
ENDBRANCH   1   2
BRANCH   1  20
HETATM   20  C12 UNL     1      47.093  31.148  16.050  1.00  0.00     0.066 C
BRANCH  20  21
HETATM   21  C13 UNL     1      48.137  30.409  16.725  1.00  0.00    -0.053 A
HETATM   22  C14 UNL     1      48.271  29.029  16.501  1.00  0.00     0.017 A
HETATM   23  C15 UNL     1      49.250  28.308  17.131  1.00  0.00    -0.025 A
HETATM   24  C16 UNL     1      49.372  26.849  16.875  1.00  0.00     0.051 C
HETATM   25  C17 UNL     1      50.133  28.903  17.997  1.00  0.00     0.111 A
HETATM   26  C18 UNL     1      50.016  30.255  18.228  1.00  0.00     0.106 A
HETATM   27  O3  UNL     1      51.204  28.404  18.756  1.00  0.00    -0.322 OA
HETATM   28  C19 UNL     1      49.037  30.981  17.602  1.00  0.00     0.047 A
HETATM   29  O2  UNL     1      51.029  30.573  19.136  1.00  0.00    -0.323 OA
HETATM   30  C20 UNL     1      51.503  29.379  19.727  1.00  0.00     0.352 C
ENDBRANCH  20  21
ENDBRANCH   1  20
BRANCH   1  31
HETATM   31  C21 UNL     1      47.133  31.269  13.562  1.00  0.00     0.158 C
BRANCH  31  32
HETATM   32  O4  UNL     1      48.190  32.103  14.009  1.00  0.00    -0.392 OA
ATOM     33  H4  UNL     1      48.575  32.496  13.234  1.00  0.00     0.210 HD
ENDBRANCH  31  32
BRANCH  31  34
HETATM   34  C22 UNL     1      47.717  30.254  12.601  1.00  0.00     0.147 C
BRANCH  34  35
HETATM   35  N5  UNL     1      48.770  29.507  13.173  1.00  0.00    -0.414 N
ATOM     36  H5  UNL     1      48.585  28.930  13.994  1.00  0.00     0.153 HD
BRANCH  35  37
HETATM   37  C23 UNL     1      50.063  29.540  12.637  1.00  0.00     0.184 C
BRANCH  37  38
HETATM   38  C24 UNL     1      51.053  29.337  13.795  1.00  0.00     0.370 C
HETATM   39  F1  UNL     1      50.924  28.056  14.288  1.00  0.00    -0.213 F
HETATM   40  F2  UNL     1      50.813  30.221  14.807  1.00  0.00    -0.213 F
ENDBRANCH  37  38
ENDBRANCH  35  37
ENDBRANCH  34  35
ENDBRANCH  31  34
ENDBRANCH   1  31
TORSDOF 12
ENDMDL