MODEL 2
REMARK VINA RESULT: -7.616829702      4.252      8.564
REMARK  13 active torsions:
REMARK  status: ('A' for Active; 'I' for Inactive)
REMARK    1  A    between atoms: C3_8  and  N4_9
REMARK    2  A    between atoms: C4_11  and  C5_12
REMARK    3  A    between atoms: C10_18  and  C11_19
REMARK    4  A    between atoms: C11_19  and  C12_20
REMARK    5  A    between atoms: C12_20  and  N5_21
REMARK       I    between atoms: N5_21  and  C13_23
REMARK    6  A    between atoms: C13_23  and  C14_25
REMARK    7  A    between atoms: C14_25  and  O2_26
REMARK    8  A    between atoms: O2_26  and  C15_27
REMARK    9  A    between atoms: C15_27  and  C16_28
REMARK   10  A    between atoms: C16_28  and  C17_29
REMARK   11  A    between atoms: C17_29  and  C18_30
REMARK   12  A    between atoms: C19_32  and  C20_33
REMARK   13  A    between atoms: C21_34  and  C22_35
ROOT
HETATM    1  N4  UNL     1      39.416  31.147  11.122  1.00  0.00    -0.350 N
ATOM      2  H4  UNL     1      40.015  31.847  10.685  1.00  0.00     0.166 HD
HETATM    3  C4  UNL     1      40.211  30.053  11.282  1.00  0.00     0.101 C
ENDROOT
BRANCH   3   4
HETATM    4  C5  UNL     1      40.898  29.934  12.600  1.00  0.00    -0.014 A
HETATM    5  C6  UNL     1      42.149  30.499  12.765  1.00  0.00     0.016 A
HETATM    6  C7  UNL     1      42.827  30.423  13.961  1.00  0.00     0.043 A
HETATM    7  C8  UNL     1      42.257  29.776  15.015  1.00  0.00     0.117 A
HETATM    8  F1  UNL     1      42.914  29.691  16.204  1.00  0.00    -0.206 F
HETATM    9  C9  UNL     1      41.022  29.203  14.895  1.00  0.00     0.050 A
HETATM   10  C10 UNL     1      40.344  29.286  13.673  1.00  0.00    -0.042 A
BRANCH  10  11
HETATM   11  C11 UNL     1      39.034  28.656  13.614  1.00  0.00     0.059 C
BRANCH  11  12
HETATM   12  C12 UNL     1      37.886  29.359  14.258  1.00  0.00     0.127 C
BRANCH  12  13
HETATM   13  N5  UNL     1      37.382  28.734  15.466  1.00  0.00    -0.359 N
HETATM   14  C13 UNL     1      36.121  28.109  15.544  1.00  0.00     0.241 C
HETATM   15  O1  UNL     1      35.325  28.050  14.563  1.00  0.00    -0.271 OA
ATOM     16  H5  UNL     1      37.970  28.746  16.299  1.00  0.00     0.162 HD
BRANCH  14  17
HETATM   17  C14 UNL     1      35.656  27.471  16.825  1.00  0.00     0.270 C
BRANCH  17  18
HETATM   18  O2  UNL     1      35.510  28.463  17.750  1.00  0.00    -0.382 OA
BRANCH  18  19
HETATM   19  C15 UNL     1      34.359  28.469  18.492  1.00  0.00     0.168 C
BRANCH  19  20
HETATM   20  C16 UNL     1      33.168  28.261  17.618  1.00  0.00     0.027 C
BRANCH  20  21
HETATM   21  C17 UNL     1      32.157  27.338  18.270  1.00  0.00     0.013 C
BRANCH  21  22
HETATM   22  C18 UNL     1      31.481  27.963  19.466  1.00  0.00     0.085 C
HETATM   23 BR1  UNL     1      29.755  28.676  18.915  1.00  0.00    -0.097 Br
ENDBRANCH  21  22
ENDBRANCH  20  21
ENDBRANCH  19  20
ENDBRANCH  18  19
ENDBRANCH  17  18
ENDBRANCH  14  17
ENDBRANCH  12  13
ENDBRANCH  11  12
ENDBRANCH  10  11
ENDBRANCH   3   4
BRANCH   1  24
HETATM   24  C3  UNL     1      38.330  31.695  11.249  1.00  0.00     0.128 A
HETATM   25  N3  UNL     1      37.383  31.513  10.243  1.00  0.00    -0.337 N
HETATM   26  C2  UNL     1      36.207  32.106  10.381  1.00  0.00     0.183 A
ATOM     27  H3  UNL     1      37.589  30.940   9.426  1.00  0.00     0.168 HD
HETATM   28  N2  UNL     1      35.862  32.873  11.425  1.00  0.00    -0.340 N
HETATM   29  C1  UNL     1      36.746  33.063  12.396  1.00  0.00     0.139 A
ATOM     30  H2  UNL     1      34.939  33.303  11.472  1.00  0.00     0.167 HD
HETATM   31  N1  UNL     1      36.442  33.877  13.550  1.00  0.00    -0.081 NA
HETATM   32  C19 UNL     1      38.010  32.476  12.333  1.00  0.00     0.103 A
BRANCH  32  33
HETATM   33  C20 UNL     1      38.934  32.741  13.430  1.00  0.00    -0.053 C
HETATM   34  C21 UNL     1      39.670  32.970  14.355  1.00  0.00    -0.043 C
BRANCH  34  35
HETATM   35  C22 UNL     1      40.533  33.267  15.465  1.00  0.00     0.086 A
HETATM   36  C23 UNL     1      40.626  32.457  16.572  1.00  0.00     0.039 A
HETATM   37  C24 UNL     1      41.456  32.749  17.638  1.00  0.00     0.004 A
HETATM   38  C25 UNL     1      42.216  33.890  17.582  1.00  0.00     0.017 A
HETATM   39  C26 UNL     1      42.122  34.697  16.477  1.00  0.00     0.089 A
HETATM   40  N6  UNL     1      41.301  34.374  15.466  1.00  0.00    -0.359 N
ATOM     41  H6  UNL     1      41.256  34.997  14.659  1.00  0.00     0.166 HD
ENDBRANCH  34  35
ENDBRANCH  32  33
ENDBRANCH   1  24
TORSDOF 13
ENDMDL