MODEL 3
REMARK VINA RESULT: -7.755522888      1.016      1.701
REMARK  1 active torsions:
REMARK  status: ('A' for Active; 'I' for Inactive)
REMARK    1  A    between atoms: C7_7  and  C8_8
ROOT
HETATM    1  C8  UNL     1       2.713  19.745  19.421  1.00  0.00     0.168 C
HETATM    2  C9  UNL     1       2.422  18.418  18.714  1.00  0.00     0.076 C
HETATM    3  C10 UNL     1       0.886  18.508  18.737  1.00  0.00     0.099 C
HETATM    4  C11 UNL     1       0.364  17.188  19.140  1.00  0.00     0.041 C
HETATM    5  C12 UNL     1      -0.551  16.537  18.133  1.00  0.00     0.003 C
HETATM    6  C13 UNL     1      -1.584  17.618  17.784  1.00  0.00     0.000 C
HETATM    7  C14 UNL     1      -0.842  18.574  16.898  1.00  0.00     0.003 C
HETATM    8  C15 UNL     1       0.452  19.050  17.434  1.00  0.00     0.041 C
HETATM    9  O1  UNL     1       0.587  19.435  19.734  1.00  0.00    -0.229 OA
HETATM   10  O2  UNL     1       1.674  19.736  20.352  1.00  0.00    -0.234 OA
ENDROOT
BRANCH   1  11
HETATM   11  C7  UNL     1       4.003  19.708  20.181  1.00  0.00     0.023 C
HETATM   12  C6  UNL     1       5.214  19.801  19.245  1.00  0.00     0.012 C
HETATM   13  C5  UNL     1       5.904  21.105  19.650  1.00  0.00    -0.013 C
HETATM   14  C4  UNL     1       6.497  21.011  21.022  1.00  0.00     0.013 C
HETATM   15  C17 UNL     1       4.652  21.947  19.955  1.00  0.00     0.010 C
HETATM   16  C2  UNL     1       5.263  20.843  21.921  1.00  0.00    -0.043 C
HETATM   17  C1  UNL     1       5.339  19.466  22.543  1.00  0.00     0.015 C
HETATM   18  C3  UNL     1       5.238  21.868  23.012  1.00  0.00     0.015 C
HETATM   19  C16 UNL     1       4.081  20.973  20.998  1.00  0.00     0.000 C
ENDBRANCH   1  11
TORSDOF 1
ENDMDL