MODEL 3
REMARK VINA RESULT: -5.352694565      1.981      2.624
REMARK  1 active torsions:
REMARK  status: ('A' for Active; 'I' for Inactive)
REMARK    1  A    between atoms: N1_5  and  N2_7
ROOT
HETATM    1  C1  UNL     1       5.207  17.526  20.795  1.00  0.00     0.021 C
HETATM    2  C2  UNL     1       4.893  18.799  21.475  1.00  0.00    -0.002 C
HETATM    3  C3  UNL     1       4.307  18.474  22.836  1.00  0.00     0.021 C
HETATM    4  C4  UNL     1       3.958  19.694  20.693  1.00  0.00     0.018 C
HETATM    5  N1  UNL     1       2.837  19.448  20.159  1.00  0.00    -0.308 N
ATOM      6  H1  UNL     1       2.355  20.200  19.666  1.00  0.00     0.186 HD
HETATM    7  C11 UNL     1       4.699  20.992  20.700  1.00  0.00     0.051 C
HETATM    8  C12 UNL     1       6.078  20.506  20.221  1.00  0.00    -0.033 C
HETATM    9  C13 UNL     1       6.051  19.703  18.992  1.00  0.00     0.016 C
HETATM   10  C14 UNL     1       7.141  21.557  20.211  1.00  0.00     0.016 C
HETATM   11  C15 UNL     1       6.047  19.777  21.563  1.00  0.00     0.017 C
HETATM   12  C16 UNL     1       5.335  21.012  22.027  1.00  0.00    -0.025 A
HETATM   13  C17 UNL     1       4.783  21.307  23.294  1.00  0.00     0.011 A
HETATM   14  C18 UNL     1       5.936  22.130  22.698  1.00  0.00     0.011 A
ENDROOT
BRANCH   5  15
HETATM   15  N2  UNL     1       2.236  18.192  20.216  1.00  0.00    -0.309 N
HETATM   16  C5  UNL     1       1.451  17.845  19.253  1.00  0.00     0.003 C
HETATM   17  C6  UNL     1       1.188  18.739  18.123  1.00  0.00     0.054 C
HETATM   18  C10 UNL     1       0.766  16.516  19.238  1.00  0.00     0.054 C
HETATM   19  C7  UNL     1      -0.302  18.945  18.000  1.00  0.00     0.006 C
HETATM   20  C8  UNL     1      -1.060  17.652  17.991  1.00  0.00     0.001 C
HETATM   21  C9  UNL     1      -0.709  16.759  19.152  1.00  0.00     0.006 C
ATOM     22  H2  UNL     1       2.413  17.562  20.998  1.00  0.00     0.186 HD
ENDBRANCH   5  15
TORSDOF 1
ENDMDL