MODEL 5
REMARK VINA RESULT: -5.568155587      0.961      1.090
REMARK  1 active torsions:
REMARK  status: ('A' for Active; 'I' for Inactive)
REMARK    1  A    between atoms: C8_11  and  C9_12
ROOT
HETATM    1  C1  UNL     1      -1.441  17.968  17.842  1.00  0.00     0.000 C
HETATM    2  C2  UNL     1      -0.865  19.272  18.201  1.00  0.00     0.000 C
HETATM    3  C3  UNL     1       0.571  19.527  17.916  1.00  0.00     0.000 C
HETATM    4  C4  UNL     1       1.418  18.413  17.468  1.00  0.00     0.001 C
HETATM    5  C5  UNL     1       2.580  18.058  18.323  1.00  0.00     0.013 C
HETATM    6  C6  UNL     1       2.406  17.997  19.787  1.00  0.00     0.065 C
HETATM    7  C7  UNL     1       1.946  16.732  20.334  1.00  0.00     0.017 C
HETATM    8  N1  UNL     1       2.771  16.325  21.214  1.00  0.00    -0.274 N
ATOM      9  H1  UNL     1       2.647  15.453  21.729  1.00  0.00     0.193 HD
HETATM   10  O1  UNL     1       3.827  17.146  21.406  1.00  0.00    -0.274 OA
HETATM   11  C8  UNL     1       3.782  18.147  20.411  1.00  0.00     0.166 C
HETATM   12  C16 UNL     1       0.677  16.068  19.880  1.00  0.00     0.055 C
HETATM   13  C17 UNL     1      -0.516  17.026  20.026  1.00  0.00     0.006 C
HETATM   14  C18 UNL     1      -1.441  16.896  18.887  1.00  0.00     0.000 C
ENDROOT
BRANCH  11  15
HETATM   15  C9  UNL     1       3.971  19.464  21.099  1.00  0.00     0.022 C
HETATM   16  C10 UNL     1       5.181  19.329  22.009  1.00  0.00     0.012 C
HETATM   17  C11 UNL     1       6.183  20.357  21.534  1.00  0.00    -0.014 C
HETATM   18  C12 UNL     1       5.678  21.707  21.919  1.00  0.00     0.005 C
HETATM   19  C15 UNL     1       5.858  20.362  20.031  1.00  0.00     0.010 C
HETATM   20  C13 UNL     1       4.406  21.847  21.091  1.00  0.00     0.005 C
HETATM   21  C14 UNL     1       4.350  20.593  20.216  1.00  0.00    -0.007 C
ENDBRANCH  11  15
TORSDOF 1
ENDMDL