MODEL 4
REMARK VINA RESULT: -0.061701990      1.601      5.070
REMARK  1 active torsions:
REMARK  status: ('A' for Active; 'I' for Inactive)
REMARK    1  A    between atoms: C2_2  and  C3_3
ROOT
HETATM    1  C1  UNL     1       4.720  16.432  20.519  1.00  0.00     0.023 C
HETATM    2  C2  UNL     1       3.561  17.232  20.980  1.00  0.00     0.014 C
HETATM    3  C4  UNL     1       2.519  17.375  19.896  1.00  0.00     0.016 C
HETATM    4  C5  UNL     1       2.895  18.314  18.813  1.00  0.00     0.002 C
HETATM    5  C6  UNL     1       4.078  19.158  19.169  1.00  0.00     0.010 C
HETATM    6  C7  UNL     1       4.002  19.690  20.608  1.00  0.00    -0.033 C
HETATM    7  C8  UNL     1       2.737  20.566  20.627  1.00  0.00     0.016 C
HETATM    8  C9  UNL     1       3.884  18.562  21.579  1.00  0.00     0.009 C
HETATM    9  C10 UNL     1       5.032  18.476  22.555  1.00  0.00     0.009 C
HETATM   10  C11 UNL     1       5.111  19.839  23.207  1.00  0.00     0.038 C
HETATM   11  C12 UNL     1       5.560  20.906  22.194  1.00  0.00     0.062 C
HETATM   12  C13 UNL     1       4.790  22.160  22.653  1.00  0.00     0.046 C
HETATM   13  O2  UNL     1       6.860  21.135  22.455  1.00  0.00    -0.374 OA
HETATM   14  C14 UNL     1       7.705  21.543  21.506  1.00  0.00     0.127 A
HETATM   15  C15 UNL     1       7.398  22.409  20.360  1.00  0.00     0.039 A
HETATM   16  C16 UNL     1       7.579  20.956  20.166  1.00  0.00     0.017 A
HETATM   17  C17 UNL     1       6.353  20.121  19.935  1.00  0.00     0.015 C
HETATM   18  C18 UNL     1       5.181  20.587  20.795  1.00  0.00     0.029 C
ENDROOT
BRANCH   2  19
HETATM   19  C3  UNL     1       2.877  16.421  22.063  1.00  0.00     0.240 C
HETATM   20  O1  UNL     1       2.529  15.288  21.907  1.00  0.00    -0.306 OA
ENDBRANCH   2  19
TORSDOF 1
ENDMDL