MODEL 5
REMARK VINA RESULT: -8.975498357      1.630      6.462
REMARK  3 active torsions:
REMARK  status: ('A' for Active; 'I' for Inactive)
REMARK    1  A    between atoms: C5_5  and  C6_6
REMARK    2  A    between atoms: C11_11  and  N1_12
REMARK    3  A    between atoms: N1_12  and  N2_14
ROOT
HETATM    1  C1  UNL     1       1.197  19.753  19.531  1.00  0.00     0.021 C
HETATM    2  C2  UNL     1       1.354  18.418  19.566  1.00  0.00    -0.043 C
HETATM    3  C3  UNL     1       0.239  17.575  19.019  1.00  0.00     0.040 C
HETATM    4  C4  UNL     1       0.591  16.127  19.253  1.00  0.00     0.010 C
HETATM    5  C5  UNL     1       1.026  16.002  20.688  1.00  0.00    -0.001 C
HETATM    6  C10 UNL     1       2.461  16.473  20.770  1.00  0.00     0.064 C
HETATM    7  C11 UNL     1       2.534  17.794  20.100  1.00  0.00     0.031 C
ENDROOT
BRANCH   7   8
HETATM    8  N1  UNL     1       3.661  18.426  19.976  1.00  0.00    -0.306 N
ATOM      9  H1  UNL     1       4.082  18.466  19.047  1.00  0.00     0.186 HD
BRANCH   8  10
HETATM   10  N2  UNL     1       4.328  19.047  21.009  1.00  0.00    -0.323 N
HETATM   11  C12 UNL     1       4.804  18.292  22.168  1.00  0.00     0.143 C
HETATM   12  C13 UNL     1       6.325  18.438  22.116  1.00  0.00     0.021 C
HETATM   13  C14 UNL     1       6.744  19.858  22.172  1.00  0.00     0.004 C
HETATM   14  C15 UNL     1       5.739  20.882  21.843  1.00  0.00     0.026 C
HETATM   15  C16 UNL     1       4.588  20.449  20.999  1.00  0.00     0.098 C
HETATM   16  C17 UNL     1       4.693  20.986  19.566  1.00  0.00     0.034 C
ENDBRANCH   8  10
ENDBRANCH   7   8
BRANCH   5  17
HETATM   17  C6  UNL     1       0.860  14.593  21.203  1.00  0.00    -0.047 C
HETATM   18  C7  UNL     1       0.286  13.725  20.135  1.00  0.00     0.015 C
HETATM   19  C8  UNL     1       0.023  14.548  22.463  1.00  0.00     0.015 C
HETATM   20  C9  UNL     1       2.236  14.077  21.568  1.00  0.00     0.015 C
ENDBRANCH   5  17
TORSDOF 3
ENDMDL