MODEL 1
REMARK VINA RESULT: -2.368516237      0.000      0.000
REMARK  1 active torsions:
REMARK  status: ('A' for Active; 'I' for Inactive)
REMARK    1  A    between atoms: C2_2  and  C3_3
ROOT
HETATM    1  C3  UNL     1       4.899  20.961  20.257  1.00  0.00     0.180 C
HETATM    2  C4  UNL     1       4.704  22.413  19.794  1.00  0.00     0.084 C
HETATM    3  O1  UNL     1       4.510  20.978  21.541  1.00  0.00    -0.347 OA
HETATM    4  C5  UNL     1       5.300  20.724  22.574  1.00  0.00     0.121 C
HETATM    5  C6  UNL     1       5.059  21.822  23.628  1.00  0.00     0.040 C
HETATM    6  C7  UNL     1       4.792  19.438  23.248  1.00  0.00     0.036 C
HETATM    7  C8  UNL     1       5.341  18.210  22.624  1.00  0.00     0.036 C
HETATM    8  C9  UNL     1       4.485  17.566  21.596  1.00  0.00    -0.082 C
HETATM    9  C10 UNL     1       4.678  16.270  21.372  1.00  0.00     0.015 C
HETATM   10  C11 UNL     1       3.441  18.297  20.826  1.00  0.00     0.048 C
HETATM   11  C12 UNL     1       2.278  17.353  20.567  1.00  0.00     0.012 C
HETATM   12  C13 UNL     1       1.129  18.256  20.146  1.00  0.00     0.001 C
HETATM   13  C14 UNL     1       1.522  18.930  18.863  1.00  0.00     0.003 C
HETATM   14  C15 UNL     1       2.900  18.553  18.457  1.00  0.00     0.038 C
HETATM   15  C16 UNL     1       3.939  18.909  19.548  1.00  0.00     0.068 C
HETATM   16  C17 UNL     1       5.167  18.143  19.061  1.00  0.00     0.047 C
HETATM   17  O2  UNL     1       4.039  20.236  19.497  1.00  0.00    -0.341 OA
ENDROOT
BRANCH   1  18
HETATM   18  C2  UNL     1       6.331  20.670  20.003  1.00  0.00     0.030 C
HETATM   19  C1  UNL     1       7.247  21.547  20.388  1.00  0.00     0.012 C
ENDBRANCH   1  18
TORSDOF 1
ENDMDL