MODEL 4
REMARK VINA RESULT: -6.435253030      1.926      7.114
REMARK  1 active torsions:
REMARK  status: ('A' for Active; 'I' for Inactive)
REMARK    1  A    between atoms: N1_4  and  N2_6
ROOT
HETATM    1  C1  UNL     1       0.893  19.976  18.673  1.00  0.00     0.017 C
HETATM    2  C2  UNL     1       0.832  18.749  19.555  1.00  0.00     0.037 C
HETATM    3  C3  UNL     1       2.158  18.389  20.113  1.00  0.00     0.008 C
HETATM    4  N1  UNL     1       3.105  19.235  20.327  1.00  0.00    -0.309 N
ATOM      5  H1  UNL     1       2.940  20.216  20.100  1.00  0.00     0.186 HD
HETATM    6  C10 UNL     1       2.124  16.921  20.347  1.00  0.00     0.060 C
HETATM    7  C11 UNL     1       1.206  16.410  19.310  1.00  0.00     0.007 C
HETATM    8  C12 UNL     1       0.186  15.431  19.739  1.00  0.00    -0.043 C
HETATM    9  C13 UNL     1       0.566  13.996  19.451  1.00  0.00     0.015 C
HETATM   10  C14 UNL     1      -0.264  15.548  21.163  1.00  0.00     0.015 C
HETATM   11  C15 UNL     1      -0.999  15.752  18.834  1.00  0.00     0.010 C
HETATM   12  C16 UNL     1      -0.975  17.269  18.844  1.00  0.00     0.011 C
HETATM   13  C17 UNL     1       0.497  17.574  18.697  1.00  0.00    -0.031 C
HETATM   14  C18 UNL     1       0.892  17.763  17.247  1.00  0.00     0.016 C
ENDROOT
BRANCH   4  15
HETATM   15  N2  UNL     1       4.345  18.875  20.853  1.00  0.00    -0.309 N
HETATM   16  C4  UNL     1       5.035  19.638  21.627  1.00  0.00     0.003 C
HETATM   17  C5  UNL     1       6.340  19.110  22.106  1.00  0.00     0.054 C
HETATM   18  C9  UNL     1       4.667  20.975  22.084  1.00  0.00     0.054 C
HETATM   19  C6  UNL     1       7.375  20.100  21.634  1.00  0.00     0.006 C
HETATM   20  C7  UNL     1       7.140  21.491  22.119  1.00  0.00     0.001 C
HETATM   21  C8  UNL     1       5.749  21.983  22.067  1.00  0.00     0.006 C
ATOM     22  H2  UNL     1       4.724  17.959  20.613  1.00  0.00     0.186 HD
ENDBRANCH   4  15
TORSDOF 1
ENDMDL