MODEL 3
REMARK VINA RESULT: -5.442089915      2.691      6.991
REMARK  2 active torsions:
REMARK  status: ('A' for Active; 'I' for Inactive)
REMARK    1  A    between atoms: C11_12  and  S1_13
REMARK    2  A    between atoms: S1_13  and  C12_14
ROOT
HETATM    1  C1  UNL     1       4.412  18.253  23.474  1.00  0.00     0.311 C
HETATM    2  N1  UNL     1       5.084  19.044  22.491  1.00  0.00     0.098 N
HETATM    3  C2  UNL     1       4.809  20.427  22.773  1.00  0.00     0.278 C
HETATM    4  C3  UNL     1       5.843  21.321  22.092  1.00  0.00     0.018 C
HETATM    5  C4  UNL     1       7.174  20.671  22.197  1.00  0.00     0.007 C
HETATM    6  C5  UNL     1       8.135  20.952  21.085  1.00  0.00     0.000 C
HETATM    7  C6  UNL     1       7.700  22.092  20.197  1.00  0.00     0.000 C
HETATM    8  C7  UNL     1       6.374  21.641  19.638  1.00  0.00     0.005 C
HETATM    9  C8  UNL     1       5.335  21.663  20.746  1.00  0.00    -0.009 C
HETATM   10  C9  UNL     1       4.023  21.088  20.344  1.00  0.00     0.008 C
HETATM   11  C10 UNL     1       3.723  19.678  20.532  1.00  0.00     0.047 C
HETATM   12  C11 UNL     1       4.742  18.770  21.132  1.00  0.00     0.284 C
ENDROOT
BRANCH  12  13
HETATM   13  S1  UNL     1       4.387  17.033  20.803  1.00  0.00    -0.129 SA
BRANCH  13  14
HETATM   14  C12 UNL     1       2.811  16.434  21.321  1.00  0.00     0.049 C
HETATM   15  C13 UNL     1       1.745  16.371  20.281  1.00  0.00     0.015 C
HETATM   16  C14 UNL     1       0.929  15.120  20.523  1.00  0.00     0.001 C
HETATM   17  C15 UNL     1       1.642  14.321  21.574  1.00  0.00     0.001 C
HETATM   18  C16 UNL     1       2.991  14.969  21.709  1.00  0.00     0.015 C
ENDBRANCH  13  14
ENDBRANCH  12  13
TORSDOF 2
ENDMDL