MODEL 5
REMARK VINA RESULT: -6.333501738      1.465      3.488
REMARK  2 active torsions:
REMARK  status: ('A' for Active; 'I' for Inactive)
REMARK    1  A    between atoms: C2_2  and  O1_5
REMARK    2  A    between atoms: O1_5  and  C5_6
ROOT
HETATM    1  C5  UNL     1       2.719  20.017  19.687  1.00  0.00     0.157 C
HETATM    2  C6  UNL     1       1.303  20.249  20.107  1.00  0.00     0.064 C
HETATM    3  C7  UNL     1       0.559  19.315  19.162  1.00  0.00     0.275 C
HETATM    4  N1  UNL     1       1.409  18.157  19.054  1.00  0.00     0.095 N
HETATM    5  C8  UNL     1       1.323  17.602  17.699  1.00  0.00     0.273 C
HETATM    6  C9  UNL     1      -0.037  17.401  17.182  1.00  0.00     0.030 C
HETATM    7  C10 UNL     1      -0.631  15.978  17.289  1.00  0.00     0.002 C
HETATM    8  C11 UNL     1      -0.167  15.457  18.536  1.00  0.00     0.000 C
HETATM    9  C12 UNL     1      -0.482  14.279  19.302  1.00  0.00     0.000 C
HETATM   10  C13 UNL     1       0.107  14.470  20.721  1.00  0.00     0.000 C
HETATM   11  C14 UNL     1       1.544  14.336  20.874  1.00  0.00     0.000 C
HETATM   12  C15 UNL     1       2.286  15.450  21.656  1.00  0.00     0.000 C
HETATM   13  C16 UNL     1       2.353  16.598  20.798  1.00  0.00     0.002 C
HETATM   14  C17 UNL     1       3.129  17.812  20.821  1.00  0.00     0.038 C
HETATM   15  C18 UNL     1       2.708  18.514  19.491  1.00  0.00     0.251 C
ENDROOT
BRANCH   1  16
HETATM   16  O1  UNL     1       3.661  20.332  20.614  1.00  0.00    -0.374 OA
BRANCH  16  17
HETATM   17  C2  UNL     1       4.887  20.707  20.153  1.00  0.00     0.050 C
HETATM   18  C1  UNL     1       4.894  22.238  20.064  1.00  0.00     0.045 C
HETATM   19  C3  UNL     1       5.915  20.368  21.241  1.00  0.00     0.045 C
HETATM   20  C4  UNL     1       5.354  20.067  18.903  1.00  0.00     0.045 C
ENDBRANCH  16  17
ENDBRANCH   1  16
TORSDOF 2
ENDMDL