MODEL 5
REMARK VINA RESULT: -3.789725632      1.255      1.334
REMARK  1 active torsions:
REMARK  status: ('A' for Active; 'I' for Inactive)
REMARK    1  A    between atoms: C2_2  and  C4_4
ROOT
HETATM    1  C4  UNL     1      -0.097  16.776  18.959  1.00  0.00     0.017 C
HETATM    2  C5  UNL     1       0.818  17.276  17.856  1.00  0.00     0.012 C
HETATM    3  C6  UNL     1       1.334  18.646  18.173  1.00  0.00     0.036 C
HETATM    4  C7  UNL     1       1.608  18.896  19.612  1.00  0.00     0.165 C
HETATM    5  O1  UNL     1       2.835  19.567  19.712  1.00  0.00    -0.234 OA
HETATM    6  O2  UNL     1       3.166  19.533  20.960  1.00  0.00    -0.229 OA
HETATM    7  C8  UNL     1       4.235  18.757  21.299  1.00  0.00     0.099 C
HETATM    8  C9  UNL     1       5.532  19.484  20.922  1.00  0.00     0.042 C
HETATM    9  C10 UNL     1       5.312  20.279  22.219  1.00  0.00     0.006 C
HETATM   10  C11 UNL     1       4.639  19.002  22.745  1.00  0.00     0.042 C
HETATM   11  C12 UNL     1       4.220  17.350  20.855  1.00  0.00     0.020 C
HETATM   12  C13 UNL     1       5.528  17.012  20.169  1.00  0.00     0.013 C
HETATM   13  C14 UNL     1       3.033  16.971  20.003  1.00  0.00     0.015 C
HETATM   14  C15 UNL     1       1.774  17.629  20.420  1.00  0.00     0.022 C
HETATM   15  C16 UNL     1       0.523  16.840  20.325  1.00  0.00    -0.004 C
HETATM   16  C17 UNL     1       0.585  15.511  21.042  1.00  0.00     0.011 C
ENDROOT
BRANCH   1  17
HETATM   17  C2  UNL     1      -0.533  15.406  18.556  1.00  0.00    -0.089 C
HETATM   18  C1  UNL     1      -1.145  15.235  17.392  1.00  0.00     0.014 C
HETATM   19  C3  UNL     1      -0.311  14.198  19.372  1.00  0.00     0.043 C
ENDBRANCH   1  17
TORSDOF 1
ENDMDL