MODEL 3
REMARK VINA RESULT: -5.794242532      2.110      3.508
REMARK  2 active torsions:
REMARK  status: ('A' for Active; 'I' for Inactive)
REMARK    1  A    between atoms: C2_2  and  C4_5
REMARK    2  A    between atoms: C8_9  and  N2_10
ROOT
HETATM    1  C1  UNL     1      51.781  20.970  27.696  1.00  0.00     0.031 C
HETATM    2  C2  UNL     1      51.796  21.916  28.617  1.00  0.00     0.019 C
HETATM    3  C3  UNL     1      52.317  23.200  28.101  1.00  0.00     0.094 C
HETATM    4  N1  UNL     1      52.717  24.194  27.673  1.00  0.00    -0.192 NA
ENDROOT
BRANCH   2   5
HETATM    5  C4  UNL     1      51.323  21.765  29.976  1.00  0.00     0.051 C
HETATM    6  C5  UNL     1      50.354  22.826  30.378  1.00  0.00     0.012 C
HETATM    7  C6  UNL     1      50.614  23.155  31.846  1.00  0.00     0.003 C
HETATM    8  C7  UNL     1      51.702  22.185  32.239  1.00  0.00     0.025 C
HETATM    9  C8  UNL     1      52.468  21.825  30.989  1.00  0.00     0.085 C
BRANCH   9  10
HETATM   10  N2  UNL     1      53.168  20.624  31.026  1.00  0.00    -0.421 N
HETATM   11  C9  UNL     1      52.495  19.387  30.925  1.00  0.00     0.140 C
ATOM     12  H2  UNL     1      54.183  20.637  31.127  1.00  0.00     0.153 HD
ENDBRANCH   9  10
ENDBRANCH   2   5
TORSDOF 2
ENDMDL