MODEL 4
REMARK VINA RESULT: -5.910512424      2.770      4.998
REMARK  3 active torsions:
REMARK  status: ('A' for Active; 'I' for Inactive)
REMARK    1  A    between atoms: N1_3  and  O1_5
REMARK    2  A    between atoms: O1_5  and  C3_6
REMARK    3  A    between atoms: C7_10  and  N2_11
ROOT
HETATM    1  C3  UNL     1      51.001  22.816  30.479  1.00  0.00     0.154 C
HETATM    2  C4  UNL     1      51.102  23.010  29.000  1.00  0.00     0.034 C
HETATM    3  C5  UNL     1      51.673  21.871  28.249  1.00  0.00     0.005 C
HETATM    4  C6  UNL     1      52.827  21.180  28.867  1.00  0.00     0.033 C
HETATM    5  C7  UNL     1      52.890  21.282  30.366  1.00  0.00     0.186 C
HETATM    6  C8  UNL     1      51.510  21.474  30.945  1.00  0.00     0.067 C
ENDROOT
BRANCH   1   7
HETATM    7  O1  UNL     1      49.673  22.941  30.936  1.00  0.00    -0.276 OA
BRANCH   7   8
HETATM    8  N1  UNL     1      49.392  23.624  32.068  1.00  0.00    -0.282 N
HETATM    9  C2  UNL     1      48.949  23.042  33.109  1.00  0.00     0.082 C
HETATM   10  C1  UNL     1      48.731  21.572  33.092  1.00  0.00     0.057 C
ATOM     11  H1  UNL     1      49.539  24.633  32.089  1.00  0.00     0.193 HD
ENDBRANCH   7   8
ENDBRANCH   1   7
BRANCH   5  12
HETATM   12  N2  UNL     1      53.552  20.124  30.916  1.00  0.00    -0.075 N
ATOM     13  H23 UNL     1      54.412  19.902  30.414  1.00  0.00     0.274 HD
ATOM     14  H22 UNL     1      53.958  20.316  31.831  1.00  0.00     0.274 HD
ATOM     15  H21 UNL     1      52.910  19.331  30.941  1.00  0.00     0.274 HD
ENDBRANCH   5  12
TORSDOF 3
ENDMDL