MODEL 5
REMARK VINA RESULT: -7.502679441      0.790      1.786
REMARK  2 active torsions:
REMARK  status: ('A' for Active; 'I' for Inactive)
REMARK    1  A    between atoms: C2_2  and  C4_4
REMARK    2  A    between atoms: C6_6  and  C7_7
ROOT
HETATM    1  C7  UNL     1      54.100  22.516  27.483  1.00  0.00     0.117 A
HETATM    2  N1  UNL     1      54.035  22.709  26.140  1.00  0.00    -0.272 N
ATOM      3  H1  UNL     1      53.241  23.097  25.631  1.00  0.00     0.190 HD
HETATM    4  N2  UNL     1      55.176  22.307  25.606  1.00  0.00    -0.227 N
ATOM      5  H2  UNL     1      55.400  22.338  24.611  1.00  0.00     0.210 HD
HETATM    6  N3  UNL     1      55.979  21.861  26.548  1.00  0.00    -0.227 N
ATOM      7  H3  UNL     1      56.921  21.490  26.424  1.00  0.00     0.210 HD
HETATM    8  N4  UNL     1      55.321  21.990  27.686  1.00  0.00    -0.272 N
ATOM      9  H4  UNL     1      55.691  21.725  28.599  1.00  0.00     0.190 HD
ENDROOT
BRANCH   1  10
HETATM   10  C6  UNL     1      53.088  22.804  28.510  1.00  0.00     0.061 A
HETATM   11  C4  UNL     1      51.688  22.339  28.343  1.00  0.00     0.001 A
HETATM   12  C5  UNL     1      52.006  23.787  28.032  1.00  0.00     0.018 A
BRANCH  11  13
HETATM   13  C2  UNL     1      50.852  22.148  29.582  1.00  0.00    -0.018 C
HETATM   14  C1  UNL     1      49.773  23.217  29.568  1.00  0.00     0.010 C
HETATM   15  C3  UNL     1      51.650  22.338  30.855  1.00  0.00     0.010 C
ENDBRANCH  11  13
ENDBRANCH   1  10
TORSDOF 2
ENDMDL