MODEL 3
REMARK VINA RESULT: -5.937441065      1.806      2.218
REMARK  3 active torsions:
REMARK  status: ('A' for Active; 'I' for Inactive)
REMARK    1  A    between atoms: C2_2  and  C3_3
REMARK    2  A    between atoms: C4_4  and  N1_5
REMARK    3  A    between atoms: N2_10  and  O1_12
ROOT
HETATM    1  C3  UNL     1      52.910  22.911  27.962  1.00  0.00     0.043 C
HETATM    2  C4  UNL     1      52.734  22.142  29.032  1.00  0.00     0.087 C
ENDROOT
BRANCH   1   3
HETATM    3  C2  UNL     1      54.146  22.922  27.207  1.00  0.00     0.029 C
HETATM    4  C1  UNL     1      55.419  23.205  27.891  1.00  0.00     0.070 C
HETATM    5  N2  UNL     1      54.127  22.687  25.954  1.00  0.00    -0.274 N
ATOM      6  H2  UNL     1      53.245  22.491  25.482  1.00  0.00     0.193 HD
BRANCH   5   7
HETATM    7  O1  UNL     1      55.299  22.699  25.247  1.00  0.00    -0.290 OA
ATOM      8  H1  UNL     1      55.887  23.440  25.325  1.00  0.00     0.244 HD
ENDBRANCH   5   7
ENDBRANCH   1   3
BRANCH   2   9
HETATM    9  N1  UNL     1      51.534  22.140  29.753  1.00  0.00    -0.390 N
HETATM   10  C5  UNL     1      51.349  21.719  31.108  1.00  0.00     0.122 C
HETATM   11  C6  UNL     1      50.380  22.764  31.639  1.00  0.00     0.021 C
HETATM   12  C7  UNL     1      49.789  23.446  30.423  1.00  0.00     0.021 C
HETATM   13  C8  UNL     1      50.245  22.561  29.283  1.00  0.00     0.122 C
ENDBRANCH   2   9
TORSDOF 3
ENDMDL