MODEL 4
REMARK VINA RESULT: -4.045817700      3.134      4.879
REMARK  2 active torsions:
REMARK  status: ('A' for Active; 'I' for Inactive)
REMARK    1  A    between atoms: S1_2  and  S2_3
REMARK    2  A    between atoms: S2_3  and  C2_4
ROOT
HETATM    1  C2  UNL     1      51.014  21.986  29.717  1.00  0.00     0.085 C
HETATM    2  C3  UNL     1      52.235  21.504  28.954  1.00  0.00     0.045 C
HETATM    3  C4  UNL     1      52.769  22.746  28.316  1.00  0.00     0.233 C
HETATM    4  N1  UNL     1      51.712  23.710  28.233  1.00  0.00    -0.074 N
ATOM      5  H11 UNL     1      51.461  23.934  27.270  1.00  0.00     0.277 HD
ATOM      6  H12 UNL     1      52.011  24.642  28.520  1.00  0.00     0.277 HD
HETATM    7  C5  UNL     1      50.593  23.231  28.996  1.00  0.00     0.248 C
ENDROOT
BRANCH   1   8
HETATM    8  S2  UNL     1      51.533  22.305  31.422  1.00  0.00    -0.091 SA
BRANCH   8   9
HETATM    9  S1  UNL     1      49.772  22.300  32.635  1.00  0.00    -0.102 SA
HETATM   10  C1  UNL     1      49.070  23.977  32.490  1.00  0.00     0.102 C
ENDBRANCH   8   9
ENDBRANCH   1   8
TORSDOF 2
ENDMDL