MODEL 5
REMARK VINA RESULT: -4.281454655      1.941      2.791
REMARK  1 active torsions:
REMARK  status: ('A' for Active; 'I' for Inactive)
REMARK    1  A    between atoms: C2_2  and  C3_3
ROOT
HETATM    1  C3  UNL     1      50.888  22.386  31.687  1.00  0.00     0.138 A
HETATM    2  C4  UNL     1      51.711  21.239  32.290  1.00  0.00     0.057 C
HETATM    3  O1  UNL     1      51.590  23.482  31.185  1.00  0.00    -0.329 OA
HETATM    4  C5  UNL     1      50.735  22.573  30.381  1.00  0.00     0.245 A
HETATM    5  O2  UNL     1      49.660  23.214  29.776  1.00  0.00    -0.240 OA
HETATM    6  N1  UNL     1      49.853  22.323  28.745  1.00  0.00    -0.082 NA
HETATM    7  C6  UNL     1      51.270  22.421  29.061  1.00  0.00     0.111 C
HETATM    8  C7  UNL     1      51.809  23.656  28.337  1.00  0.00     0.042 C
HETATM    9  C8  UNL     1      52.084  21.219  28.693  1.00  0.00     0.042 C
ENDROOT
BRANCH   1  10
HETATM   10  C2  UNL     1      49.842  22.833  32.662  1.00  0.00     0.006 C
HETATM   11  C1  UNL     1      48.867  22.033  33.065  1.00  0.00     0.010 C
ENDBRANCH   1  10
TORSDOF 1
ENDMDL