MODEL 3
REMARK VINA RESULT: -5.454804890      2.071      5.338
REMARK  3 active torsions:
REMARK  status: ('A' for Active; 'I' for Inactive)
REMARK    1  A    between atoms: C2_2  and  C3_3
REMARK    2  A    between atoms: C3_3  and  O1_4
REMARK    3  A    between atoms: C4_6  and  C5_7
ROOT
HETATM    1  C3  UNL     1      52.757  22.595  28.295  1.00  0.00     0.063 C
HETATM    2  C4  UNL     1      53.308  22.935  27.142  1.00  0.00     0.043 C
ENDROOT
BRANCH   2   3
HETATM    3  C5  UNL     1      54.730  22.712  26.939  1.00  0.00     0.173 C
HETATM    4  C6  UNL     1      55.555  23.975  26.875  1.00  0.00     0.206 C
HETATM    5  O2  UNL     1      56.532  23.683  25.925  1.00  0.00    -0.364 OA
HETATM    6  C7  UNL     1      56.438  22.302  25.718  1.00  0.00     0.338 C
HETATM    7  O3  UNL     1      55.034  22.137  25.690  1.00  0.00    -0.356 OA
ENDBRANCH   2   3
BRANCH   1   8
HETATM    8  C2  UNL     1      51.337  22.800  28.539  1.00  0.00     0.026 C
HETATM    9  C1  UNL     1      50.838  22.865  29.761  1.00  0.00     0.014 C
ENDBRANCH   1   8
BRANCH   1  10
HETATM   10  O1  UNL     1      53.503  22.029  29.319  1.00  0.00    -0.361 OA
ATOM     11  H1  UNL     1      53.760  21.121  29.220  1.00  0.00     0.217 HD
ENDBRANCH   1  10
TORSDOF 3
ENDMDL