MODEL 3
REMARK VINA RESULT: -4.950540045      1.881      4.815
REMARK  3 active torsions:
REMARK  status: ('A' for Active; 'I' for Inactive)
REMARK    1  A    between atoms: C2_2  and  N1_3
REMARK    2  A    between atoms: C4_5  and  C6_7
REMARK    3  A    between atoms: C8_10  and  O1_11
ROOT
HETATM    1  C6  UNL     1      52.294  23.617  28.460  1.00  0.00     0.139 C
HETATM    2  C7  UNL     1      53.147  23.054  27.379  1.00  0.00     0.060 C
HETATM    3  N2  UNL     1      53.813  22.655  26.524  1.00  0.00    -0.197 NA
ENDROOT
BRANCH   1   4
HETATM    4  C4  UNL     1      51.514  22.448  29.005  1.00  0.00     0.049 C
HETATM    5  C3  UNL     1      50.162  22.942  29.450  1.00  0.00     0.290 C
HETATM    6  N1  UNL     1      50.296  22.124  30.665  1.00  0.00     0.118 N
HETATM    7  C8  UNL     1      51.722  22.077  30.424  1.00  0.00     0.367 C
HETATM    8  C5  UNL     1      51.388  21.321  28.019  1.00  0.00     0.022 C
BRANCH   6   9
HETATM    9  C2  UNL     1      49.859  22.915  31.800  1.00  0.00     0.271 C
HETATM   10  C1  UNL     1      49.183  22.080  32.873  1.00  0.00     0.037 C
ENDBRANCH   6   9
BRANCH   7  11
HETATM   11  O1  UNL     1      52.550  22.837  31.190  1.00  0.00    -0.367 OA
ATOM     12  H1  UNL     1      52.644  22.633  32.113  1.00  0.00     0.212 HD
ENDBRANCH   7  11
ENDBRANCH   1   4
TORSDOF 3
ENDMDL