MODEL 4
REMARK VINA RESULT: -3.999751542      2.610      3.592
REMARK  2 active torsions:
REMARK  status: ('A' for Active; 'I' for Inactive)
REMARK    1  A    between atoms: O1_2  and  C2_3
REMARK    2  A    between atoms: C2_3  and  C4_5
ROOT
HETATM    1  C4  UNL     1      52.525  21.291  29.302  1.00  0.00     0.224 C
HETATM    2  C5  UNL     1      51.404  22.028  28.646  1.00  0.00     0.111 C
HETATM    3  S1  UNL     1      52.322  23.454  27.934  1.00  0.00    -0.140 SA
HETATM    4  C6  UNL     1      54.004  22.808  28.305  1.00  0.00     0.306 C
HETATM    5  N1  UNL     1      53.714  21.431  28.549  1.00  0.00    -0.059 N
ATOM      6  H11 UNL     1      53.675  20.896  27.682  1.00  0.00     0.278 HD
ATOM      7  H12 UNL     1      54.498  20.952  28.991  1.00  0.00     0.278 HD
ENDROOT
BRANCH   1   8
HETATM    8  C2  UNL     1      52.677  21.639  30.765  1.00  0.00     0.148 C
HETATM    9  C3  UNL     1      51.379  22.208  31.298  1.00  0.00     0.042 C
BRANCH   8  10
HETATM   10  O1  UNL     1      53.017  20.563  31.547  1.00  0.00    -0.389 OA
HETATM   11  C1  UNL     1      52.702  19.363  30.917  1.00  0.00     0.202 C
ENDBRANCH   8  10
ENDBRANCH   1   8
TORSDOF 2
ENDMDL