MODEL 3
REMARK VINA RESULT: -5.527851501      1.151      4.518
REMARK  2 active torsions:
REMARK  status: ('A' for Active; 'I' for Inactive)
REMARK       I    between atoms: C1_2  and  N1_3
REMARK    1  A    between atoms: C1_2  and  C5_8
REMARK    2  A    between atoms: N1_3  and  C2_5
ROOT
HETATM    1  O1  UNL     1      53.598  22.833  26.014  1.00  0.00    -0.273 OA
HETATM    2  C1  UNL     1      54.287  22.791  27.064  1.00  0.00     0.222 C
HETATM    3  N1  UNL     1      53.730  22.445  28.321  1.00  0.00    -0.356 N
ATOM      4  H1  UNL     1      54.326  22.423  29.148  1.00  0.00     0.162 HD
ENDROOT
BRANCH   2   5
HETATM    5  C5  UNL     1      55.726  23.126  26.917  1.00  0.00     0.078 A
HETATM    6  C6  UNL     1      56.274  23.518  25.600  1.00  0.00     0.015 A
HETATM    7  C7  UNL     1      56.548  22.130  26.105  1.00  0.00     0.015 A
ENDBRANCH   2   5
BRANCH   3   8
HETATM    8  C2  UNL     1      52.328  22.124  28.439  1.00  0.00     0.084 A
HETATM    9  C3  UNL     1      51.664  22.594  29.751  1.00  0.00     0.027 A
HETATM   10  C4  UNL     1      51.324  23.232  28.466  1.00  0.00     0.027 A
ENDBRANCH   3   8
TORSDOF 2
ENDMDL