MODEL 5
REMARK VINA RESULT: -5.670088522      1.187      4.783
REMARK  2 active torsions:
REMARK  status: ('A' for Active; 'I' for Inactive)
REMARK       I    between atoms: C1_2  and  N1_3
REMARK    1  A    between atoms: C1_2  and  C5_8
REMARK    2  A    between atoms: N1_3  and  C2_5
ROOT
HETATM    1  O1  UNL     1      54.711  24.610  26.932  1.00  0.00    -0.273 OA
HETATM    2  C1  UNL     1      54.833  23.392  27.127  1.00  0.00     0.227 C
HETATM    3  N1  UNL     1      53.802  22.453  27.320  1.00  0.00    -0.356 N
ATOM      4  H1  UNL     1      54.047  21.474  27.471  1.00  0.00     0.162 HD
ENDROOT
BRANCH   2   5
HETATM    5  C5  UNL     1      56.270  22.848  27.165  1.00  0.00     0.045 A
HETATM    6  C6  UNL     1      56.990  23.045  26.187  1.00  0.00     0.025 A
HETATM    7  C7  UNL     1      56.927  22.835  25.625  1.00  0.00     0.006 A
HETATM    8  C8  UNL     1      56.030  22.089  25.181  1.00  0.00     0.025 A
ENDBRANCH   2   5
BRANCH   3   9
HETATM    9  C2  UNL     1      52.397  22.835  27.311  1.00  0.00     0.084 A
HETATM   10  C3  UNL     1      51.477  21.903  28.055  1.00  0.00     0.027 A
HETATM   11  C4  UNL     1      51.781  23.259  28.591  1.00  0.00     0.027 A
ENDBRANCH   3   9
TORSDOF 2
ENDMDL