MODEL 1
REMARK VINA RESULT: -5.156917272      0.000      0.000
REMARK  2 active torsions:
REMARK  status: ('A' for Active; 'I' for Inactive)
REMARK    1  A    between atoms: C1_2  and  N1_3
REMARK    2  A    between atoms: N1_3  and  C2_5
ROOT
HETATM    1  C2  UNL     1      52.361  23.471  28.515  1.00  0.00     0.096 C
HETATM    2  C3  UNL     1      52.839  22.172  29.194  1.00  0.00     0.009 C
HETATM    3  C4  UNL     1      52.370  21.193  28.145  1.00  0.00     0.007 C
HETATM    4  C5  UNL     1      50.956  21.703  27.981  1.00  0.00     0.012 C
HETATM    5  C6  UNL     1      50.935  23.137  28.554  1.00  0.00    -0.015 A
HETATM    6  C7  UNL     1      49.807  23.451  29.308  1.00  0.00     0.017 A
HETATM    7  C8  UNL     1      50.911  23.198  30.143  1.00  0.00    -0.003 A
HETATM    8  C9  UNL     1      51.804  22.040  30.316  1.00  0.00     0.012 C
ENDROOT
BRANCH   1   9
HETATM    9  N1  UNL     1      52.951  23.673  27.246  1.00  0.00    -0.362 N
ATOM     10  H1  UNL     1      52.360  23.797  26.423  1.00  0.00     0.162 HD
BRANCH   9  11
HETATM   11  C1  UNL     1      54.367  23.704  27.116  1.00  0.00     0.348 C
HETATM   12  O1  UNL     1      54.964  23.047  26.198  1.00  0.00    -0.284 OA
ENDBRANCH   9  11
ENDBRANCH   1   9
TORSDOF 2
ENDMDL