MODEL 4
REMARK VINA RESULT: -5.138475629      1.349      1.579
REMARK  1 active torsions:
REMARK  status: ('A' for Active; 'I' for Inactive)
REMARK    1  A    between atoms: C2_2  and  C3_3
REMARK       I    between atoms: N1_6  and  C6_7
ROOT
HETATM    1  C3  UNL     1      52.185  22.439  27.858  1.00  0.00     0.027 C
HETATM    2  C4  UNL     1      53.038  22.011  29.058  1.00  0.00     0.030 C
HETATM    3  C5  UNL     1      51.973  21.959  30.137  1.00  0.00     0.128 C
HETATM    4  N1  UNL     1      50.955  22.904  29.733  1.00  0.00    -0.336 N
HETATM    5  C6  UNL     1      49.767  23.173  30.432  1.00  0.00     0.330 C
HETATM    6  N2  UNL     1      48.840  24.123  29.941  1.00  0.00    -0.040 NA
HETATM    7  O1  UNL     1      49.528  22.567  31.499  1.00  0.00    -0.251 OA
HETATM    8  C7  UNL     1      51.354  23.532  28.490  1.00  0.00     0.135 C
ENDROOT
BRANCH   1   9
HETATM    9  C2  UNL     1      52.996  22.897  26.734  1.00  0.00    -0.031 C
HETATM   10  C1  UNL     1      54.261  23.223  26.945  1.00  0.00     0.007 C
ENDBRANCH   1   9
TORSDOF 1
ENDMDL