MODEL 3
REMARK VINA RESULT: -5.369916469      1.755      2.321
REMARK  4 active torsions:
REMARK  status: ('A' for Active; 'I' for Inactive)
REMARK    1  A    between atoms: N1_1  and  N2_4
REMARK    2  A    between atoms: N2_4  and  C1_5
REMARK    3  A    between atoms: C1_5  and  C2_6
REMARK    4  A    between atoms: C5_9  and  C6_10
ROOT
HETATM    1  C2  UNL     1      51.057  23.141  30.362  1.00  0.00     0.052 C
HETATM    2  C3  UNL     1      52.230  22.207  30.621  1.00  0.00     0.013 C
HETATM    3  C4  UNL     1      51.466  21.565  31.733  1.00  0.00     0.015 C
HETATM    4  C5  UNL     1      50.212  22.249  31.211  1.00  0.00     0.085 C
ENDROOT
BRANCH   1   5
HETATM    5  C1  UNL     1      50.697  23.192  28.918  1.00  0.00     0.186 C
BRANCH   5   6
HETATM    6  N2  UNL     1      51.539  23.525  28.056  1.00  0.00    -0.349 NA
BRANCH   6   7
HETATM    7  N1  UNL     1      52.470  23.863  27.321  1.00  0.00    -0.281 N
ATOM      8  H12 UNL     1      52.891  24.218  28.181  1.00  0.00     0.191 HD
ATOM      9  H11 UNL     1      53.173  24.093  26.619  1.00  0.00     0.191 HD
ENDBRANCH   6   7
ENDBRANCH   5   6
ENDBRANCH   1   5
BRANCH   4  10
HETATM   10  C6  UNL     1      49.493  22.909  32.321  1.00  0.00     0.236 C
HETATM   11  N3  UNL     1      49.331  24.314  32.321  1.00  0.00    -0.062 NA
HETATM   12  O1  UNL     1      49.037  22.202  33.246  1.00  0.00    -0.276 OA
ENDBRANCH   4  10
TORSDOF 4
ENDMDL