MODEL 1
REMARK VINA RESULT: -5.427195768      0.000      0.000
REMARK  2 active torsions:
REMARK  status: ('A' for Active; 'I' for Inactive)
REMARK    1  A    between atoms: C1_2  and  C2_4
REMARK    2  A    between atoms: N2_6  and  C4_7
ROOT
HETATM    1  C2  UNL     1      51.523  22.692  28.233  1.00  0.00     0.131 C
HETATM    2  C3  UNL     1      52.966  22.334  28.628  1.00  0.00     0.288 C
HETATM    3  N2  UNL     1      53.300  22.850  27.287  1.00  0.00     0.094 N
HETATM    4  C7  UNL     1      52.278  23.869  27.592  1.00  0.00     0.288 C
ENDROOT
BRANCH   1   5
HETATM    5  C1  UNL     1      50.647  23.020  29.335  1.00  0.00     0.238 C
HETATM    6  N1  UNL     1      51.161  23.215  30.637  1.00  0.00    -0.062 NA
HETATM    7  O1  UNL     1      49.414  23.138  29.163  1.00  0.00    -0.276 OA
ENDBRANCH   1   5
BRANCH   3   8
HETATM    8  C4  UNL     1      54.646  23.370  27.197  1.00  0.00     0.223 A
HETATM    9  C5  UNL     1      55.811  22.477  27.042  1.00  0.00     0.038 A
HETATM   10  C6  UNL     1      55.259  23.138  25.801  1.00  0.00     0.038 A
ENDBRANCH   3   8
TORSDOF 2
ENDMDL