MODEL 4
REMARK VINA RESULT: -5.737604431      3.674      5.090
REMARK  2 active torsions:
REMARK  status: ('A' for Active; 'I' for Inactive)
REMARK    1  A    between atoms: C1_2  and  N1_3
REMARK       I    between atoms: N1_3  and  C2_5
REMARK    2  A    between atoms: C2_5  and  C3_7
ROOT
HETATM    1  C3  UNL     1      52.141  22.840  29.549  1.00  0.00     0.086 C
HETATM    2  C4  UNL     1      51.201  23.194  28.388  1.00  0.00    -0.001 C
HETATM    3  C5  UNL     1      52.146  23.988  27.541  1.00  0.00     0.006 C
HETATM    4  C6  UNL     1      53.336  23.007  27.518  1.00  0.00     0.006 C
HETATM    5  C7  UNL     1      52.823  22.004  28.513  1.00  0.00    -0.001 C
HETATM    6  C8  UNL     1      51.414  21.772  27.942  1.00  0.00     0.011 C
ENDROOT
BRANCH   1   7
HETATM    7  C2  UNL     1      51.487  22.187  30.670  1.00  0.00     0.228 C
HETATM    8  N1  UNL     1      50.362  22.768  31.288  1.00  0.00    -0.305 N
ATOM      9  H1  UNL     1      49.993  23.658  30.952  1.00  0.00     0.171 HD
HETATM   10  O2  UNL     1      51.927  21.091  31.097  1.00  0.00    -0.273 OA
BRANCH   8  11
HETATM   11  C1  UNL     1      49.750  22.107  32.375  1.00  0.00     0.355 C
HETATM   12  O1  UNL     1      48.734  22.565  32.955  1.00  0.00    -0.283 OA
ENDBRANCH   8  11
ENDBRANCH   1   7
TORSDOF 2
ENDMDL