MODEL 1
REMARK VINA RESULT: -5.795455645      0.000      0.000
REMARK  2 active torsions:
REMARK  status: ('A' for Active; 'I' for Inactive)
REMARK    1  A    between atoms: C2_2  and  C3_3
REMARK    2  A    between atoms: C5_5  and  C6_6
REMARK       I    between atoms: N1_7  and  C7_9
ROOT
HETATM    1  C6  UNL     1      53.031  23.754  27.600  1.00  0.00     0.070 C
HETATM    2  N1  UNL     1      54.015  24.035  26.818  1.00  0.00    -0.325 N
ATOM      3  H1  UNL     1      54.083  24.978  26.436  1.00  0.00     0.169 HD
HETATM    4  C7  UNL     1      54.999  23.090  26.469  1.00  0.00     0.332 C
HETATM    5  N2  UNL     1      56.089  22.811  27.344  1.00  0.00    -0.040 NA
HETATM    6  O1  UNL     1      54.908  22.494  25.377  1.00  0.00    -0.251 OA
ENDROOT
BRANCH   1   7
HETATM    7  C5  UNL     1      52.851  22.427  28.196  1.00  0.00     0.032 A
HETATM    8  C3  UNL     1      51.904  22.146  29.270  1.00  0.00     0.017 A
HETATM    9  C4  UNL     1      51.543  21.667  27.875  1.00  0.00     0.019 A
BRANCH   8  10
HETATM   10  C2  UNL     1      50.962  23.180  29.789  1.00  0.00    -0.032 C
HETATM   11  C1  UNL     1      49.755  23.220  29.258  1.00  0.00     0.007 C
ENDBRANCH   8  10
ENDBRANCH   1   7
TORSDOF 2
ENDMDL