MODEL 1
REMARK VINA RESULT: -6.140132699      0.000      0.000
REMARK  2 active torsions:
REMARK  status: ('A' for Active; 'I' for Inactive)
REMARK    1  A    between atoms: C2_2  and  C3_3
REMARK    2  A    between atoms: C7_7  and  C8_8
ROOT
HETATM    1  C3  UNL     1      50.564  22.552  30.122  1.00  0.00     0.025 C
HETATM    2  C4  UNL     1      52.038  22.285  30.443  1.00  0.00    -0.001 A
HETATM    3  C5  UNL     1      52.572  21.451  31.463  1.00  0.00     0.011 A
HETATM    4  C6  UNL     1      51.326  22.004  31.836  1.00  0.00     0.004 A
HETATM    5  C7  UNL     1      50.731  23.363  31.424  1.00  0.00     0.087 C
ENDROOT
BRANCH   5   6
HETATM    6  C8  UNL     1      49.476  23.624  32.151  1.00  0.00     0.236 C
HETATM    7  N1  UNL     1      48.719  24.795  32.006  1.00  0.00    -0.062 NA
HETATM    8  O1  UNL     1      49.051  22.741  32.958  1.00  0.00    -0.276 OA
ENDBRANCH   5   6
BRANCH   1   9
HETATM    9  C2  UNL     1      50.453  23.364  28.897  1.00  0.00    -0.031 C
HETATM   10  C1  UNL     1      51.419  23.543  28.012  1.00  0.00     0.007 C
ENDBRANCH   1   9
TORSDOF 2
ENDMDL