MODEL 3
REMARK VINA RESULT: -6.043394532      2.834      7.021
REMARK  11 active torsions:
REMARK  status: ('A' for Active; 'I' for Inactive)
REMARK    1  A    between atoms: C2_2  and  C4_4
REMARK    2  A    between atoms: C2_2  and  N2_17
REMARK    3  A    between atoms: C4_4  and  C5_5
REMARK    4  A    between atoms: C5_5  and  C6_6
REMARK    5  A    between atoms: C6_6  and  C7_7
REMARK    6  A    between atoms: C7_7  and  C8_9
REMARK    7  A    between atoms: N2_17  and  C11_19
REMARK    8  A    between atoms: C13_22  and  C14_23
REMARK    9  A    between atoms: C14_23  and  C15_25
REMARK   10  A    between atoms: C15_25  and  S2_26
REMARK   11  A    between atoms: S2_26  and  C16_27
ROOT
HETATM    1  C1  UNL     1      46.361   9.459  -0.678  1.00  0.00     0.038 C
HETATM    2  C2  UNL     1      47.545  10.368  -0.925  1.00  0.00     0.024 C
HETATM    3  C3  UNL     1      47.615  11.477   0.114  1.00  0.00     0.038 C
ENDROOT
BRANCH   2   4
HETATM    4  C4  UNL     1      47.251  11.101  -2.242  1.00  0.00     0.030 C
BRANCH   4   5
HETATM    5  C5  UNL     1      48.134  10.541  -3.332  1.00  0.00     0.010 C
BRANCH   5   6
HETATM    6  C6  UNL     1      47.326  10.093  -4.529  1.00  0.00     0.081 C
BRANCH   6   7
HETATM    7  C7  UNL     1      48.050  10.496  -5.757  1.00  0.00     0.160 C
HETATM    8  O1  UNL     1      48.743  11.488  -5.753  1.00  0.00    -0.295 OA
BRANCH   7   9
HETATM    9  C8  UNL     1      47.961   9.711  -7.030  1.00  0.00     0.255 C
HETATM   10  C9  UNL     1      47.055  10.391  -8.042  1.00  0.00     0.277 C
HETATM   11  N1  UNL     1      46.440   9.390  -8.885  1.00  0.00    -0.048 N
HETATM   12  C10 UNL     1      45.602   8.527  -8.040  1.00  0.00     0.441 C
ATOM     13  H12 UNL     1      45.924   9.797  -9.666  1.00  0.00     0.279 HD
ATOM     14  H11 UNL     1      47.122   8.863  -9.431  1.00  0.00     0.279 HD
HETATM   15  O2  UNL     1      46.131   8.524  -6.766  1.00  0.00    -0.213 OA
HETATM   16  O3  UNL     1      47.431   8.445  -6.793  1.00  0.00    -0.225 OA
ENDBRANCH   7   9
ENDBRANCH   6   7
ENDBRANCH   5   6
ENDBRANCH   4   5
ENDBRANCH   2   4
BRANCH   2  17
HETATM   17  N2  UNL     1      48.761   9.645  -1.047  1.00  0.00    -0.367 N
ATOM     18  H2  UNL     1      49.589  10.142  -1.372  1.00  0.00     0.162 HD
BRANCH  17  19
HETATM   19  C11 UNL     1      48.881   8.242  -0.732  1.00  0.00     0.109 A
HETATM   20  C12 UNL     1      48.911   7.802   0.569  1.00  0.00     0.100 A
HETATM   21  S1  UNL     1      49.065   6.108   0.352  1.00  0.00    -0.077 SA
HETATM   22  C13 UNL     1      49.081   6.076  -1.357  1.00  0.00     0.122 A
HETATM   23  N3  UNL     1      48.969   7.348  -1.665  1.00  0.00    -0.334 N
ATOM     24  H3  UNL     1      48.952   7.633  -2.644  1.00  0.00     0.168 HD
BRANCH  22  25
HETATM   25  C14 UNL     1      49.195   4.907  -2.222  1.00  0.00     0.192 C
HETATM   26  O4  UNL     1      50.187   4.775  -2.943  1.00  0.00    -0.289 OA
BRANCH  25  27
HETATM   27  C15 UNL     1      48.109   3.925  -2.199  1.00  0.00     0.160 C
BRANCH  27  28
HETATM   28  S2  UNL     1      46.810   4.142  -3.378  1.00  0.00    -0.152 SA
BRANCH  28  29
HETATM   29  C16 UNL     1      45.689   5.461  -2.982  1.00  0.00    -0.003 C
HETATM   30  C17 UNL     1      44.315   5.084  -3.575  1.00  0.00     0.026 C
HETATM   31  C18 UNL     1      46.005   6.808  -3.538  1.00  0.00     0.026 C
HETATM   32  C19 UNL     1      45.465   5.496  -1.481  1.00  0.00     0.026 C
ENDBRANCH  28  29
ENDBRANCH  27  28
ENDBRANCH  25  27
ENDBRANCH  22  25
ENDBRANCH  17  19
ENDBRANCH   2  17
TORSDOF 11
ENDMDL