MODEL 2
REMARK VINA RESULT: -7.940146165      2.548      7.460
REMARK  15 active torsions:
REMARK  status: ('A' for Active; 'I' for Inactive)
REMARK    1  A    between atoms: O1_2  and  C2_3
REMARK    2  A    between atoms: C2_3  and  O2_5
REMARK    3  A    between atoms: C2_3  and  C4_7
REMARK    4  A    between atoms: C4_7  and  O4_9
REMARK    5  A    between atoms: O4_9  and  C5_10
REMARK    6  A    between atoms: C7_12  and  O5_13
REMARK    7  A    between atoms: C8_15  and  O6_16
REMARK    8  A    between atoms: C10_19  and  C11_20
REMARK    9  A    between atoms: C12_21  and  C13_22
REMARK   10  A    between atoms: C13_22  and  O8_24
REMARK   11  A    between atoms: O8_24  and  C14_25
REMARK   12  A    between atoms: C14_25  and  C15_26
REMARK   13  A    between atoms: C16_27  and  C18_29
REMARK   14  A    between atoms: C18_29  and  C19_30
REMARK   15  A    between atoms: C19_30  and  C20_31
ROOT
HETATM    1  C5  UNL     1      46.155   7.678  -6.057  1.00  0.00     0.092 A
HETATM    2  C6  UNL     1      46.052   7.903  -7.394  1.00  0.00     0.077 A
HETATM    3  C7  UNL     1      46.557   9.035  -8.002  1.00  0.00     0.101 A
HETATM    4  C8  UNL     1      47.188   9.973  -7.228  1.00  0.00     0.099 A
HETATM    5  C9  UNL     1      47.306   9.759  -5.840  1.00  0.00     0.053 A
HETATM    6  C10 UNL     1      46.805   8.639  -5.233  1.00  0.00     0.001 A
ENDROOT
BRANCH   6   7
HETATM    7  C11 UNL     1      46.972   8.340  -3.838  1.00  0.00     0.020 C
HETATM    8  C12 UNL     1      47.316   9.012  -2.826  1.00  0.00     0.083 C
BRANCH   8   9
HETATM    9  C13 UNL     1      47.703  10.355  -2.484  1.00  0.00     0.283 C
HETATM   10  O7  UNL     1      48.559  11.067  -3.049  1.00  0.00    -0.260 OA
BRANCH   9  11
HETATM   11  O8  UNL     1      47.094  11.013  -1.396  1.00  0.00    -0.314 OA
BRANCH  11  12
HETATM   12  C14 UNL     1      47.559  11.134  -0.105  1.00  0.00     0.206 C
BRANCH  12  13
HETATM   13  C15 UNL     1      47.924   9.918   0.618  1.00  0.00     0.002 C
HETATM   14  C16 UNL     1      49.147   9.470   0.716  1.00  0.00    -0.085 C
HETATM   15  C17 UNL     1      50.270  10.204   0.081  1.00  0.00     0.043 C
BRANCH  14  16
HETATM   16  C18 UNL     1      49.383   8.204   1.479  1.00  0.00     0.037 C
BRANCH  16  17
HETATM   17  C19 UNL     1      48.607   7.050   0.922  1.00  0.00     0.031 C
BRANCH  17  18
HETATM   18  C20 UNL     1      49.351   6.538  -0.261  1.00  0.00    -0.024 C
HETATM   19  C21 UNL     1      48.733   5.897  -1.253  1.00  0.00    -0.091 C
HETATM   20  C22 UNL     1      49.445   5.378  -2.438  1.00  0.00     0.042 C
HETATM   21  C23 UNL     1      47.249   5.697  -1.153  1.00  0.00     0.042 C
ENDBRANCH  17  18
ENDBRANCH  16  17
ENDBRANCH  14  16
ENDBRANCH  12  13
ENDBRANCH  11  12
ENDBRANCH   9  11
ENDBRANCH   8   9
ENDBRANCH   6   7
BRANCH   1  22
HETATM   22  O4  UNL     1      45.632   6.528  -5.497  1.00  0.00    -0.274 OA
BRANCH  22  23
HETATM   23  C4  UNL     1      46.192   5.261  -5.762  1.00  0.00     0.327 C
HETATM   24  O3  UNL     1      47.230   4.999  -5.108  1.00  0.00    -0.259 OA
BRANCH  23  25
HETATM   25  C2  UNL     1      45.566   4.364  -6.733  1.00  0.00     0.249 C
HETATM   26  C3  UNL     1      44.078   4.630  -6.771  1.00  0.00     0.090 C
BRANCH  25  27
HETATM   27  O1  UNL     1      46.144   4.401  -7.962  1.00  0.00    -0.352 OA
HETATM   28  C1  UNL     1      45.358   4.454  -9.066  1.00  0.00     0.206 C
ENDBRANCH  25  27
BRANCH  25  29
HETATM   29  O2  UNL     1      45.695   3.024  -6.257  1.00  0.00    -0.358 OA
ATOM     30  H2  UNL     1      45.956   3.081  -5.345  1.00  0.00     0.213 HD
ENDBRANCH  25  29
ENDBRANCH  23  25
ENDBRANCH  22  23
ENDBRANCH   1  22
BRANCH   4  31
HETATM   31  O6  UNL     1      47.707  11.123  -7.807  1.00  0.00    -0.358 OA
ATOM     32  H6  UNL     1      47.837  11.905  -7.284  1.00  0.00     0.217 HD
ENDBRANCH   4  31
BRANCH   3  33
HETATM   33  O5  UNL     1      46.437   9.238  -9.367  1.00  0.00    -0.358 OA
ATOM     34  H5  UNL     1      46.903   9.939  -9.808  1.00  0.00     0.217 HD
ENDBRANCH   3  33
TORSDOF 15
ENDMDL