MODEL 2
REMARK VINA RESULT: -8.051347645      2.700      6.614
REMARK  13 active torsions:
REMARK  status: ('A' for Active; 'I' for Inactive)
REMARK    1  A    between atoms: C2_2  and  C3_3
REMARK    2  A    between atoms: C2_2  and  C13_15
REMARK    3  A    between atoms: C3_3  and  O1_4
REMARK    4  A    between atoms: O1_4  and  C4_5
REMARK    5  A    between atoms: C4_5  and  C5_7
REMARK    6  A    between atoms: C5_7  and  C6_8
REMARK    7  A    between atoms: C13_15  and  C15_17
REMARK    8  A    between atoms: C16_18  and  C17_19
REMARK    9  A    between atoms: C18_20  and  C19_21
REMARK   10  A    between atoms: C19_21  and  C20_22
REMARK   11  A    between atoms: N2_25  and  O3_27
REMARK   12  A    between atoms: C22_30  and  O5_31
REMARK   13  A    between atoms: C23_33  and  O6_34
ROOT
HETATM    1  C20 UNL     1      47.184   9.503  -7.278  1.00  0.00     0.115 C
HETATM    2  C21 UNL     1      48.035  10.455  -6.590  1.00  0.00     0.115 C
HETATM    3  N1  UNL     1      48.710  11.233  -6.044  1.00  0.00    -0.190 NA
HETATM    4  N2  UNL     1      46.910   9.712  -8.500  1.00  0.00    -0.263 N
ATOM      5  H2  UNL     1      47.325  10.542  -8.923  1.00  0.00     0.194 HD
ENDROOT
BRANCH   1   6
HETATM    6  C19 UNL     1      46.674   8.344  -6.485  1.00  0.00     0.098 C
BRANCH   6   7
HETATM    7  C18 UNL     1      46.529   8.640  -5.070  1.00  0.00    -0.017 C
HETATM    8  C17 UNL     1      46.481   7.788  -4.090  1.00  0.00     0.034 C
BRANCH   8   9
HETATM    9  C16 UNL     1      46.562   6.349  -4.187  1.00  0.00     0.088 A
HETATM   10  C15 UNL     1      47.485   5.585  -3.433  1.00  0.00     0.022 A
HETATM   11  C23 UNL     1      47.249   4.283  -3.805  1.00  0.00     0.134 A
HETATM   12  C22 UNL     1      46.218   4.274  -4.751  1.00  0.00     0.218 A
HETATM   13  O4  UNL     1      45.884   5.521  -4.907  1.00  0.00    -0.285 OA
BRANCH  10  14
HETATM   14  C13 UNL     1      48.464   6.100  -2.457  1.00  0.00     0.050 C
HETATM   15  C14 UNL     1      49.700   5.203  -2.420  1.00  0.00     0.020 C
BRANCH  14  16
HETATM   16  C2  UNL     1      47.931   6.030  -1.030  1.00  0.00    -0.057 C
HETATM   17  C1  UNL     1      46.676   6.209  -0.773  1.00  0.00     0.017 C
BRANCH  16  18
HETATM   18  C3  UNL     1      48.944   5.738  -0.010  1.00  0.00     0.213 C
BRANCH  18  19
HETATM   19  O1  UNL     1      49.822   6.770   0.247  1.00  0.00    -0.317 OA
BRANCH  19  20
HETATM   20  C4  UNL     1      49.644   7.878   1.045  1.00  0.00     0.259 C
HETATM   21  O2  UNL     1      48.981   7.695   2.126  1.00  0.00    -0.265 OA
BRANCH  20  22
HETATM   22  C5  UNL     1      50.182   9.193   0.689  1.00  0.00     0.116 C
BRANCH  22  23
HETATM   23  C6  UNL     1      49.253  10.098  -0.060  1.00  0.00    -0.002 C
HETATM   24  C7  UNL     1      49.171   9.716  -1.494  1.00  0.00     0.005 C
HETATM   25  C8  UNL     1      48.184  10.570  -2.269  1.00  0.00     0.000 C
HETATM   26  C9  UNL     1      47.016  11.010  -1.441  1.00  0.00     0.000 C
HETATM   27  C10 UNL     1      46.774   9.964  -0.370  1.00  0.00     0.004 C
HETATM   28  C11 UNL     1      47.904  10.099   0.628  1.00  0.00    -0.014 C
HETATM   29  C12 UNL     1      47.680  11.376   1.410  1.00  0.00     0.010 C
ENDBRANCH  22  23
ENDBRANCH  20  22
ENDBRANCH  19  20
ENDBRANCH  18  19
ENDBRANCH  16  18
ENDBRANCH  14  16
ENDBRANCH  10  14
BRANCH  11  30
HETATM   30  O6  UNL     1      47.904   3.150  -3.340  1.00  0.00    -0.356 OA
ATOM     31  H6  UNL     1      47.659   2.245  -3.494  1.00  0.00     0.218 HD
ENDBRANCH  11  30
BRANCH  12  32
HETATM   32  O5  UNL     1      45.703   3.139  -5.359  1.00  0.00    -0.339 OA
ATOM     33  H5  UNL     1      45.887   2.224  -5.186  1.00  0.00     0.220 HD
ENDBRANCH  12  32
ENDBRANCH   8   9
ENDBRANCH   6   7
ENDBRANCH   1   6
BRANCH   4  34
HETATM   34  O3  UNL     1      46.133   8.958  -9.299  1.00  0.00    -0.289 OA
ATOM     35  H3  UNL     1      46.370   8.577 -10.136  1.00  0.00     0.244 HD
ENDBRANCH   4  34
TORSDOF 13
ENDMDL