MODEL 1
REMARK VINA RESULT: -7.410200270      0.000      0.000
REMARK  14 active torsions:
REMARK  status: ('A' for Active; 'I' for Inactive)
REMARK    1  A    between atoms: O1_2  and  C2_3
REMARK    2  A    between atoms: C2_3  and  C3_5
REMARK    3  A    between atoms: C3_5  and  C4_6
REMARK    4  A    between atoms: C4_6  and  C5_7
REMARK    5  A    between atoms: C5_7  and  C6_8
REMARK    6  A    between atoms: C6_8  and  C7_9
REMARK    7  A    between atoms: C7_9  and  O3_10
REMARK    8  A    between atoms: C7_9  and  C8_12
REMARK    9  A    between atoms: C8_12  and  C9_13
REMARK   10  A    between atoms: C9_13  and  C10_14
REMARK   11  A    between atoms: C10_14  and  O4_15
REMARK   12  A    between atoms: C10_14  and  C11_17
REMARK   13  A    between atoms: C12_18  and  C13_19
REMARK   14  A    between atoms: C16_23  and  O6_24
ROOT
HETATM    1  C11 UNL     1      47.890   9.092  -1.076  1.00  0.00     0.020 C
HETATM    2  C12 UNL     1      48.875   8.491  -0.163  1.00  0.00    -0.025 C
HETATM    3  C17 UNL     1      50.142   9.219   0.011  1.00  0.00     0.048 C
HETATM    4  C18 UNL     1      50.887   8.822   1.273  1.00  0.00     0.018 C
HETATM    5  C19 UNL     1      49.914  10.705   0.164  1.00  0.00     0.168 C
HETATM    6  C20 UNL     1      48.941  11.123   1.194  1.00  0.00     0.039 C
HETATM    7  C21 UNL     1      47.525  10.824   0.748  1.00  0.00     0.049 C
HETATM    8  C22 UNL     1      47.524  10.516  -0.728  1.00  0.00     0.123 C
HETATM    9  C23 UNL     1      46.182  10.980  -1.235  1.00  0.00     0.055 C
HETATM   10  O7  UNL     1      48.412  11.422  -1.318  1.00  0.00    -0.225 OA
HETATM   11  O8  UNL     1      49.657  11.209  -1.104  1.00  0.00    -0.234 OA
ENDROOT
BRANCH   1  12
HETATM   12  C10 UNL     1      46.790   8.355  -1.695  1.00  0.00     0.075 C
BRANCH  12  13
HETATM   13  C9  UNL     1      46.844   7.741  -2.989  1.00  0.00     0.035 C
BRANCH  13  14
HETATM   14  C8  UNL     1      46.294   6.568  -3.340  1.00  0.00     0.007 C
BRANCH  14  15
HETATM   15  C7  UNL     1      45.589   6.345  -4.601  1.00  0.00     0.141 C
BRANCH  15  16
HETATM   16  C6  UNL     1      45.328   7.558  -5.458  1.00  0.00     0.036 C
BRANCH  16  17
HETATM   17  C5  UNL     1      45.677   7.346  -6.911  1.00  0.00     0.003 C
BRANCH  17  18
HETATM   18  C4  UNL     1      46.325   8.597  -7.506  1.00  0.00     0.010 C
BRANCH  18  19
HETATM   19  C3  UNL     1      46.944   9.374  -6.332  1.00  0.00     0.111 C
BRANCH  19  20
HETATM   20  C2  UNL     1      47.648  10.591  -6.874  1.00  0.00     0.258 C
HETATM   21  O2  UNL     1      47.302  11.085  -7.947  1.00  0.00    -0.265 OA
BRANCH  20  22
HETATM   22  O1  UNL     1      48.682  11.137  -6.152  1.00  0.00    -0.326 OA
HETATM   23  C1  UNL     1      48.882  11.187  -4.801  1.00  0.00     0.213 C
ENDBRANCH  20  22
ENDBRANCH  19  20
ENDBRANCH  18  19
ENDBRANCH  17  18
ENDBRANCH  16  17
ENDBRANCH  15  16
BRANCH  15  24
HETATM   24  O3  UNL     1      46.447   5.567  -5.453  1.00  0.00    -0.392 OA
ATOM     25  H3  UNL     1      47.279   5.636  -5.000  1.00  0.00     0.210 HD
ENDBRANCH  15  24
ENDBRANCH  14  15
ENDBRANCH  13  14
ENDBRANCH  12  13
BRANCH  12  26
HETATM   26  O4  UNL     1      46.190   7.506  -0.682  1.00  0.00    -0.360 OA
ATOM     27  H4  UNL     1      45.551   7.959  -0.143  1.00  0.00     0.217 HD
ENDBRANCH  12  26
ENDBRANCH   1  12
BRANCH   2  28
HETATM   28  C13 UNL     1      49.119   7.027  -0.273  1.00  0.00     0.031 A
HETATM   29  C14 UNL     1      49.520   6.300  -1.370  1.00  0.00     0.041 A
HETATM   30  C15 UNL     1      49.394   4.938  -1.075  1.00  0.00     0.146 A
HETATM   31  O5  UNL     1      48.948   4.836   0.120  1.00  0.00    -0.300 OA
HETATM   32  C16 UNL     1      48.768   6.023   0.640  1.00  0.00     0.193 A
BRANCH  32  33
HETATM   33  O6  UNL     1      48.301   6.162   1.928  1.00  0.00    -0.340 OA
ATOM     34  H6  UNL     1      48.136   5.484   2.572  1.00  0.00     0.220 HD
ENDBRANCH  32  33
ENDBRANCH   2  28
TORSDOF 14
ENDMDL