MODEL 3
REMARK VINA RESULT: -6.711494298      3.241      6.273
REMARK  12 active torsions:
REMARK  status: ('A' for Active; 'I' for Inactive)
REMARK    1  A    between atoms: O1_2  and  C2_3
REMARK    2  A    between atoms: C2_3  and  C3_4
REMARK    3  A    between atoms: C3_4  and  C4_5
REMARK    4  A    between atoms: C4_5  and  O2_7
REMARK    5  A    between atoms: O2_7  and  S1_8
REMARK    6  A    between atoms: S1_8  and  C6_11
REMARK    7  A    between atoms: C10_15  and  N1_16
REMARK    8  A    between atoms: C11_18  and  C12_19
REMARK    9  A    between atoms: C18_25  and  C19_26
REMARK   10  A    between atoms: N2_27  and  O5_29
REMARK   11  A    between atoms: O5_29  and  C20_30
REMARK   12  A    between atoms: C20_30  and  O6_34
ROOT
HETATM    1  C6  UNL     1      48.179   6.053  -1.996  1.00  0.00     0.100 A
HETATM    2  C7  UNL     1      48.745   4.969  -2.634  1.00  0.00     0.027 A
HETATM    3  C8  UNL     1      48.192   4.445  -3.778  1.00  0.00     0.004 A
HETATM    4  C9  UNL     1      47.037   5.027  -4.298  1.00  0.00     0.030 A
HETATM    5  C10 UNL     1      46.436   6.108  -3.700  1.00  0.00     0.045 A
HETATM    6  C18 UNL     1      47.030   6.607  -2.542  1.00  0.00     0.032 A
ENDROOT
BRANCH   1   7
HETATM    7  S1  UNL     1      48.917   6.683  -0.538  1.00  0.00     0.299 S
HETATM    8  O3  UNL     1      47.798   7.081   0.395  1.00  0.00    -0.193 OA
HETATM    9  O4  UNL     1      49.747   5.619   0.123  1.00  0.00    -0.193 OA
BRANCH   7  10
HETATM   10  O2  UNL     1      49.841   8.011  -0.958  1.00  0.00    -0.267 OA
BRANCH  10  11
HETATM   11  C4  UNL     1      49.669   9.096  -0.138  1.00  0.00     0.140 C
HETATM   12  C5  UNL     1      50.243  10.376  -0.705  1.00  0.00     0.041 C
BRANCH  11  13
HETATM   13  C3  UNL     1      50.204   8.876   1.273  1.00  0.00     0.059 C
BRANCH  13  14
HETATM   14  C2  UNL     1      49.879  10.070   2.134  1.00  0.00     0.169 C
BRANCH  14  15
HETATM   15  O1  UNL     1      48.548  10.138   2.465  1.00  0.00    -0.396 OA
HETATM   16  C1  UNL     1      47.993  11.380   2.319  1.00  0.00     0.201 C
ENDBRANCH  14  15
ENDBRANCH  13  14
ENDBRANCH  11  13
ENDBRANCH  10  11
ENDBRANCH   7  10
ENDBRANCH   1   7
BRANCH   6  17
HETATM   17  C19 UNL     1      46.425   7.737  -1.893  1.00  0.00     0.130 C
HETATM   18  N2  UNL     1      46.952   8.917  -1.944  1.00  0.00    -0.267 N
ATOM     19  H2  UNL     1      47.823   9.047  -2.460  1.00  0.00     0.194 HD
BRANCH  18  20
HETATM   20  O5  UNL     1      46.387   9.983  -1.337  1.00  0.00    -0.195 OA
BRANCH  20  21
HETATM   21  C20 UNL     1      46.783  11.291  -1.544  1.00  0.00     0.278 C
HETATM   22  N3  UNL     1      47.716  11.553  -2.374  1.00  0.00    -0.358 N
ATOM     23  H32 UNL     1      48.140  10.764  -2.860  1.00  0.00     0.160 HD
ATOM     24  H31 UNL     1      48.009  12.519  -2.527  1.00  0.00     0.160 HD
BRANCH  21  25
HETATM   25  O6  UNL     1      46.203  12.371  -0.879  1.00  0.00    -0.326 OA
ATOM     26  H6  UNL     1      46.457  12.631  -0.001  1.00  0.00     0.221 HD
ENDBRANCH  21  25
ENDBRANCH  20  21
ENDBRANCH  18  20
ENDBRANCH   6  17
BRANCH   5  27
HETATM   27  N1  UNL     1      45.281   6.658  -4.255  1.00  0.00    -0.368 N
HETATM   28  C11 UNL     1      45.147   7.523  -5.160  1.00  0.00     0.066 C
ATOM     29  H1  UNL     1      44.406   6.304  -3.866  1.00  0.00     0.165 HD
BRANCH  28  30
HETATM   30  C12 UNL     1      46.202   8.218  -5.909  1.00  0.00     0.024 C
HETATM   31  C13 UNL     1      46.307   9.636  -5.366  1.00  0.00     0.010 C
HETATM   32  C14 UNL     1      47.688  10.136  -5.745  1.00  0.00     0.001 C
HETATM   33  C15 UNL     1      48.102   9.465  -7.020  1.00  0.00     0.000 C
HETATM   34  C16 UNL     1      46.941   9.256  -7.980  1.00  0.00     0.001 C
HETATM   35  C17 UNL     1      45.874   8.360  -7.384  1.00  0.00     0.010 C
ENDBRANCH  28  30
ENDBRANCH   5  27
TORSDOF 12
ENDMDL