MODEL 4
REMARK VINA RESULT: -6.583485523      2.924      5.527
REMARK  11 active torsions:
REMARK  status: ('A' for Active; 'I' for Inactive)
REMARK    1  A    between atoms: C2_2  and  C3_3
REMARK    2  A    between atoms: C3_3  and  C4_4
REMARK    3  A    between atoms: C4_4  and  C5_5
REMARK    4  A    between atoms: C6_7  and  C7_8
REMARK    5  A    between atoms: C7_8  and  C8_9
REMARK    6  A    between atoms: C8_9  and  C9_10
REMARK    7  A    between atoms: C9_10  and  C10_11
REMARK    8  A    between atoms: C13_14  and  N1_15
REMARK    9  A    between atoms: C17_23  and  O3_24
REMARK   10  A    between atoms: C20_29  and  O5_30
REMARK   11  A    between atoms: O5_30  and  C21_31
ROOT
HETATM    1  C5  UNL     1      45.864   4.283  -5.653  1.00  0.00     0.171 C
HETATM    2  O1  UNL     1      46.448   5.465  -5.185  1.00  0.00    -0.362 OA
HETATM    3  C6  UNL     1      46.159   5.497  -3.764  1.00  0.00     0.139 C
HETATM    4  C13 UNL     1      47.481   5.099  -3.161  1.00  0.00     0.258 C
HETATM    5  C14 UNL     1      47.503   4.054  -2.156  1.00  0.00     0.023 A
HETATM    6  C15 UNL     1      48.410   3.679  -1.157  1.00  0.00     0.061 A
HETATM    7  C16 UNL     1      49.678   4.418  -0.931  1.00  0.00     0.077 C
HETATM    8  O2  UNL     1      47.920   2.647  -0.552  1.00  0.00    -0.292 OA
HETATM    9  C17 UNL     1      46.766   2.274  -1.034  1.00  0.00     0.198 A
HETATM   10  C18 UNL     1      46.471   3.163  -2.071  1.00  0.00     0.083 A
HETATM   11  C19 UNL     1      45.349   3.301  -2.987  1.00  0.00     0.209 C
HETATM   12  O4  UNL     1      44.684   2.332  -3.332  1.00  0.00    -0.288 OA
HETATM   13  C20 UNL     1      44.993   4.670  -3.526  1.00  0.00     0.209 C
HETATM   14  C23 UNL     1      44.543   4.331  -4.951  1.00  0.00     0.056 C
HETATM   15  N2  UNL     1      43.364   4.175  -5.269  1.00  0.00    -0.401 N
ATOM     16  H21 UNL     1      42.464   4.207  -4.790  1.00  0.00     0.155 HD
ATOM     17  H22 UNL     1      43.064   3.949  -6.217  1.00  0.00     0.155 HD
ENDROOT
BRANCH   3  18
HETATM   18  C7  UNL     1      45.969   7.029  -3.588  1.00  0.00     0.045 C
BRANCH  18  19
HETATM   19  C8  UNL     1      46.085   7.719  -4.899  1.00  0.00     0.004 C
BRANCH  19  20
HETATM   20  C9  UNL     1      46.893   8.965  -4.911  1.00  0.00     0.004 C
BRANCH  20  21
HETATM   21  C10 UNL     1      46.884   9.862  -6.081  1.00  0.00    -0.023 C
HETATM   22  C11 UNL     1      46.904   9.263  -7.445  1.00  0.00     0.009 C
HETATM   23  C12 UNL     1      48.159  10.734  -5.947  1.00  0.00     0.009 C
ENDBRANCH  20  21
ENDBRANCH  19  20
ENDBRANCH  18  19
ENDBRANCH   3  18
BRANCH   4  24
HETATM   24  N1  UNL     1      48.219   6.292  -2.787  1.00  0.00    -0.068 N
ATOM     25  H13 UNL     1      48.984   6.490  -3.433  1.00  0.00     0.275 HD
ATOM     26  H12 UNL     1      47.678   7.143  -2.936  1.00  0.00     0.275 HD
ATOM     27  H11 UNL     1      48.540   6.203  -1.823  1.00  0.00     0.275 HD
ENDBRANCH   4  24
BRANCH  13  28
HETATM   28  O5  UNL     1      43.888   5.170  -2.866  1.00  0.00    -0.292 OA
BRANCH  28  29
HETATM   29  C21 UNL     1      43.057   4.648  -1.945  1.00  0.00     0.256 C
HETATM   30  C22 UNL     1      43.306   4.706  -0.459  1.00  0.00     0.126 C
HETATM   31  O6  UNL     1      42.023   4.082  -2.289  1.00  0.00    -0.266 OA
ENDBRANCH  28  29
ENDBRANCH  13  28
BRANCH   1  32
HETATM   32  C4  UNL     1      45.771   4.434  -7.143  1.00  0.00     0.038 C
BRANCH  32  33
HETATM   33  C3  UNL     1      45.767   5.827  -7.655  1.00  0.00     0.002 C
BRANCH  33  34
HETATM   34  C2  UNL     1      44.370   6.113  -8.206  1.00  0.00    -0.004 C
HETATM   35  C1  UNL     1      44.419   7.163  -9.284  1.00  0.00     0.005 C
ENDBRANCH  33  34
ENDBRANCH  32  33
ENDBRANCH   1  32
BRANCH   9  36
HETATM   36  O3  UNL     1      45.910   1.239  -0.690  1.00  0.00    -0.340 OA
ATOM     37  H3  UNL     1      45.370   0.661  -1.216  1.00  0.00     0.220 HD
ENDBRANCH   9  36
TORSDOF 11
ENDMDL