MODEL 2
REMARK VINA RESULT: -6.951129550      1.138      2.611
REMARK  12 active torsions:
REMARK  status: ('A' for Active; 'I' for Inactive)
REMARK    1  A    between atoms: O1_2  and  C2_3
REMARK    2  A    between atoms: C2_3  and  C3_4
REMARK    3  A    between atoms: C3_4  and  O2_5
REMARK    4  A    between atoms: C3_4  and  C4_7
REMARK    5  A    between atoms: C3_4  and  C21_31
REMARK    6  A    between atoms: C4_7  and  C5_8
REMARK    7  A    between atoms: C5_8  and  C7_10
REMARK    8  A    between atoms: C7_10  and  C8_11
REMARK    9  A    between atoms: C8_11  and  C9_13
REMARK   10  A    between atoms: C10_14  and  O4_15
REMARK   11  A    between atoms: C13_19  and  O5_20
REMARK   12  A    between atoms: C15_22  and  O6_23
ROOT
HETATM    1  C21 UNL     1      48.437  10.751  -0.708  1.00  0.00     0.125 C
HETATM    2  C22 UNL     1      49.281  10.833  -1.933  1.00  0.00     0.028 C
HETATM    3  C23 UNL     1      47.118  11.333  -1.026  1.00  0.00     0.066 C
HETATM    4  N1  UNL     1      46.075  11.775  -1.267  1.00  0.00    -0.197 NA
ENDROOT
BRANCH   1   5
HETATM    5  C3  UNL     1      48.269   9.328  -0.173  1.00  0.00     0.095 C
BRANCH   5   6
HETATM    6  C2  UNL     1      49.027   9.237   1.112  1.00  0.00     0.206 C
BRANCH   6   7
HETATM    7  O1  UNL     1      48.468   9.783   2.209  1.00  0.00    -0.393 OA
HETATM    8  C1  UNL     1      48.960  10.927   2.734  1.00  0.00     0.201 C
ENDBRANCH   6   7
ENDBRANCH   5   6
BRANCH   5   9
HETATM    9  O2  UNL     1      46.915   9.178   0.040  1.00  0.00    -0.386 OA
ATOM     10  H2  UNL     1      46.442   9.147  -0.783  1.00  0.00     0.210 HD
ENDBRANCH   5   9
BRANCH   5  11
HETATM   11  C4  UNL     1      48.852   8.348  -1.169  1.00  0.00     0.046 C
BRANCH  11  12
HETATM   12  C5  UNL     1      47.890   7.429  -1.813  1.00  0.00    -0.008 C
HETATM   13  C6  UNL     1      47.174   8.057  -2.955  1.00  0.00     0.010 C
BRANCH  12  14
HETATM   14  C7  UNL     1      48.448   6.052  -2.157  1.00  0.00     0.088 C
BRANCH  14  15
HETATM   15  C8  UNL     1      47.801   4.933  -1.526  1.00  0.00     0.165 C
HETATM   16  O3  UNL     1      48.450   3.819  -1.588  1.00  0.00    -0.292 OA
BRANCH  15  17
HETATM   17  C9  UNL     1      46.539   4.877  -0.839  1.00  0.00     0.080 A
HETATM   18  C10 UNL     1      46.535   4.814   0.580  1.00  0.00     0.095 A
HETATM   19  C11 UNL     1      45.402   4.763   1.335  1.00  0.00     0.034 A
HETATM   20  C12 UNL     1      44.193   4.774   0.658  1.00  0.00     0.119 A
HETATM   21  C20 UNL     1      45.374   4.698   2.785  1.00  0.00     0.016 A
HETATM   22  C13 UNL     1      44.172   4.834  -0.717  1.00  0.00     0.137 A
HETATM   23  O7  UNL     1      43.042   4.721   1.419  1.00  0.00    -0.333 OA
HETATM   24  C15 UNL     1      45.331   4.886  -1.483  1.00  0.00     0.118 A
HETATM   25  C16 UNL     1      42.953   4.659   2.803  1.00  0.00     0.078 A
HETATM   26  C17 UNL     1      42.212   3.364   3.157  1.00  0.00     0.051 C
HETATM   27  C18 UNL     1      42.164   5.839   3.381  1.00  0.00     0.051 C
HETATM   28  C19 UNL     1      44.257   4.650   3.490  1.00  0.00     0.012 A
BRANCH  18  29
HETATM   29  O4  UNL     1      47.755   4.805   1.232  1.00  0.00    -0.359 OA
ATOM     30  H4  UNL     1      48.154   3.964   1.419  1.00  0.00     0.217 HD
ENDBRANCH  18  29
BRANCH  22  31
HETATM   31  O5  UNL     1      42.962   4.844  -1.395  1.00  0.00    -0.351 OA
HETATM   32  C14 UNL     1      42.284   3.713  -1.845  1.00  0.00     0.210 C
ENDBRANCH  22  31
BRANCH  24  33
HETATM   33  O6  UNL     1      45.210   4.948  -2.873  1.00  0.00    -0.357 OA
ATOM     34  H6  UNL     1      44.551   4.464  -3.356  1.00  0.00     0.217 HD
ENDBRANCH  24  33
ENDBRANCH  15  17
ENDBRANCH  14  15
ENDBRANCH  12  14
ENDBRANCH  11  12
ENDBRANCH   5  11
ENDBRANCH   1   5
TORSDOF 12
ENDMDL