MODEL 4
REMARK VINA RESULT: -7.488948778      2.708      5.807
REMARK  15 active torsions:
REMARK  status: ('A' for Active; 'I' for Inactive)
REMARK    1  A    between atoms: C2_2  and  O1_5
REMARK    2  A    between atoms: O1_5  and  C5_6
REMARK    3  A    between atoms: C5_6  and  C6_8
REMARK    4  A    between atoms: C6_8  and  C7_9
REMARK    5  A    between atoms: C7_9  and  C8_10
REMARK    6  A    between atoms: C8_10  and  C9_11
REMARK    7  A    between atoms: C9_11  and  C10_12
REMARK    8  A    between atoms: C10_12  and  C11_13
REMARK    9  A    between atoms: C11_13  and  C12_14
REMARK   10  A    between atoms: C11_13  and  N1_23
REMARK   11  A    between atoms: C12_14  and  C13_15
REMARK   12  A    between atoms: C18_20  and  O3_21
REMARK   13  A    between atoms: N1_23  and  N2_25
REMARK   14  A    between atoms: N2_25  and  C19_27
REMARK   15  A    between atoms: N5_35  and  O4_37
ROOT
HETATM    1  C11 UNL     1      47.420   9.366  -3.036  1.00  0.00     0.023 C
ENDROOT
BRANCH   1   2
HETATM    2  C10 UNL     1      47.111   9.636  -4.411  1.00  0.00    -0.000 C
BRANCH   2   3
HETATM    3  C9  UNL     1      47.909  10.522  -5.255  1.00  0.00     0.029 C
BRANCH   3   4
HETATM    4  C8  UNL     1      47.812  10.468  -6.730  1.00  0.00     0.010 C
BRANCH   4   5
HETATM    5  C7  UNL     1      47.713   9.106  -7.294  1.00  0.00     0.066 C
BRANCH   5   6
HETATM    6  C6  UNL     1      46.570   9.021  -8.262  1.00  0.00     0.106 C
HETATM    7  N5  UNL     1      46.559   9.824  -9.249  1.00  0.00    -0.267 N
ATOM      8  H5  UNL     1      47.304  10.511  -9.365  1.00  0.00     0.194 HD
BRANCH   6   9
HETATM    9  C5  UNL     1      45.541   8.050  -8.070  1.00  0.00     0.308 C
HETATM   10  O2  UNL     1      45.014   7.369  -8.978  1.00  0.00    -0.258 OA
BRANCH   9  11
HETATM   11  O1  UNL     1      45.055   7.810  -6.782  1.00  0.00    -0.306 OA
BRANCH  11  12
HETATM   12  C2  UNL     1      45.160   6.552  -6.214  1.00  0.00     0.060 C
HETATM   13  C1  UNL     1      46.525   5.942  -6.316  1.00  0.00     0.046 C
HETATM   14  C3  UNL     1      44.163   5.549  -6.738  1.00  0.00     0.046 C
HETATM   15  C4  UNL     1      44.857   6.706  -4.716  1.00  0.00     0.046 C
ENDBRANCH  11  12
ENDBRANCH   9  11
ENDBRANCH   6   9
BRANCH   7  16
HETATM   16  O4  UNL     1      45.531   9.753 -10.153  1.00  0.00    -0.290 OA
ATOM     17  H4  UNL     1      45.545   9.074 -10.816  1.00  0.00     0.244 HD
ENDBRANCH   7  16
ENDBRANCH   5   6
ENDBRANCH   4   5
ENDBRANCH   3   4
ENDBRANCH   2   3
ENDBRANCH   1   2
BRANCH   1  18
HETATM   18  C12 UNL     1      46.966   8.311  -2.125  1.00  0.00     0.065 C
BRANCH  18  19
HETATM   19  C13 UNL     1      47.965   7.258  -1.874  1.00  0.00     0.020 C
HETATM   20  C14 UNL     1      47.979   6.041  -2.726  1.00  0.00     0.007 C
HETATM   21  C15 UNL     1      49.331   5.366  -2.501  1.00  0.00     0.001 C
HETATM   22  C16 UNL     1      49.599   5.033  -1.075  1.00  0.00     0.002 C
HETATM   23  C17 UNL     1      49.271   6.168  -0.129  1.00  0.00     0.032 C
HETATM   24  C18 UNL     1      47.915   6.759  -0.427  1.00  0.00     0.122 C
BRANCH  24  25
HETATM   25  O3  UNL     1      47.645   7.769   0.465  1.00  0.00    -0.395 OA
ATOM     26  H3  UNL     1      46.865   7.597   0.980  1.00  0.00     0.210 HD
ENDBRANCH  24  25
ENDBRANCH  18  19
ENDBRANCH   1  18
BRANCH   1  27
HETATM   27  N1  UNL     1      48.310  10.181  -2.456  1.00  0.00    -0.291 N
ATOM     28  H1  UNL     1      49.295  10.062  -2.692  1.00  0.00     0.187 HD
BRANCH  27  29
HETATM   29  N2  UNL     1      47.974  11.165  -1.565  1.00  0.00    -0.132 N
ATOM     30  H2  UNL     1      47.431  11.978  -1.858  1.00  0.00     0.205 HD
BRANCH  29  31
HETATM   31  C19 UNL     1      48.365  11.032  -0.346  1.00  0.00     0.696 A
HETATM   32  N3  UNL     1      47.632  11.565   0.660  1.00  0.00    -0.200 N
HETATM   33  C20 UNL     1      47.997  11.452   1.947  1.00  0.00     0.107 A
ATOM     34  H3  UNL     1      46.775  12.067   0.432  1.00  0.00     0.183 HD
HETATM   35  C21 UNL     1      49.149  10.781   2.296  1.00  0.00     0.035 A
HETATM   36  C22 UNL     1      49.900  10.235   1.274  1.00  0.00     0.107 A
HETATM   37  N4  UNL     1      49.486  10.378  -0.002  1.00  0.00    -0.200 N
ATOM     38  H4  UNL     1      50.055   9.968  -0.743  1.00  0.00     0.183 HD
ENDBRANCH  29  31
ENDBRANCH  27  29
ENDBRANCH   1  27
TORSDOF 15
ENDMDL