MODEL 2
REMARK VINA RESULT: -8.093839503      2.872      6.338
REMARK  11 active torsions:
REMARK  status: ('A' for Active; 'I' for Inactive)
REMARK    1  A    between atoms: C2_2  and  C3_3
REMARK    2  A    between atoms: C3_3  and  C4_4
REMARK    3  A    between atoms: C4_4  and  C5_5
REMARK    4  A    between atoms: C5_5  and  C6_6
REMARK    5  A    between atoms: C11_11  and  C12_12
REMARK    6  A    between atoms: C12_12  and  O1_13
REMARK    7  A    between atoms: C12_12  and  C13_15
REMARK    8  A    between atoms: C13_15  and  O2_16
REMARK    9  A    between atoms: C13_15  and  C14_18
REMARK   10  A    between atoms: C17_21  and  N1_22
REMARK   11  A    between atoms: C19_26  and  N2_27
ROOT
HETATM    1  C12 UNL     1      47.257   5.951  -3.180  1.00  0.00     0.161 C
ENDROOT
BRANCH   1   2
HETATM    2  C11 UNL     1      48.060   6.182  -1.990  1.00  0.00     0.067 C
HETATM    3  C10 UNL     1      48.717   7.518  -1.898  1.00  0.00     0.051 C
HETATM    4  C4  UNL     1      49.004   7.746  -0.403  1.00  0.00     0.068 C
HETATM    5  O7  UNL     1      49.493   6.746   0.295  1.00  0.00    -0.374 OA
HETATM    6  C21 UNL     1      49.511   5.450  -0.129  1.00  0.00     0.221 C
HETATM    7  C20 UNL     1      49.079   5.256  -1.531  1.00  0.00     0.011 C
HETATM    8  N3  UNL     1      49.571   4.350  -2.219  1.00  0.00    -0.403 N
ATOM      9  H32 UNL     1      49.273   4.216  -3.185  1.00  0.00     0.155 HD
ATOM     10  H31 UNL     1      50.287   3.700  -1.896  1.00  0.00     0.155 HD
BRANCH   4  11
HETATM   11  C3  UNL     1      49.959   8.924  -0.403  1.00  0.00     0.064 C
BRANCH  11  12
HETATM   12  C2  UNL     1      50.598   9.217   0.873  1.00  0.00    -0.034 C
HETATM   13  C1  UNL     1      51.696   9.601   1.404  1.00  0.00     0.007 C
ENDBRANCH  11  12
ENDBRANCH   4  11
BRANCH   4  14
HETATM   14  C5  UNL     1      47.656   8.238   0.152  1.00  0.00     0.065 C
BRANCH  14  15
HETATM   15  C6  UNL     1      47.107   9.328  -0.678  1.00  0.00    -0.022 C
HETATM   16  C7  UNL     1      47.031  10.594  -0.389  1.00  0.00    -0.091 C
HETATM   17  C8  UNL     1      46.403  11.554  -1.416  1.00  0.00     0.042 C
HETATM   18  C9  UNL     1      47.516  11.268   0.836  1.00  0.00     0.042 C
ENDBRANCH  14  15
ENDBRANCH   4  14
ENDBRANCH   1   2
BRANCH   1  19
HETATM   19  O1  UNL     1      47.286   4.611  -3.436  1.00  0.00    -0.392 OA
ATOM     20  H1  UNL     1      46.497   4.234  -3.063  1.00  0.00     0.210 HD
ENDBRANCH   1  19
BRANCH   1  21
HETATM   21  C13 UNL     1      45.955   6.613  -3.458  1.00  0.00     0.183 C
BRANCH  21  22
HETATM   22  O2  UNL     1      45.016   5.681  -3.981  1.00  0.00    -0.388 OA
ATOM     23  H2  UNL     1      44.136   6.038  -3.953  1.00  0.00     0.210 HD
ENDBRANCH  21  22
BRANCH  21  24
HETATM   24  C14 UNL     1      46.274   7.555  -4.596  1.00  0.00     0.006 A
HETATM   25  C15 UNL     1      46.623   8.867  -4.306  1.00  0.00     0.015 A
HETATM   26  C16 UNL     1      46.904   9.781  -5.298  1.00  0.00     0.037 A
HETATM   27  C17 UNL     1      46.847   9.414  -6.639  1.00  0.00     0.105 A
HETATM   28  C18 UNL     1      46.515   8.125  -6.938  1.00  0.00     0.072 A
HETATM   29  C19 UNL     1      46.229   7.185  -5.895  1.00  0.00     0.114 A
BRANCH  27  30
HETATM   30  N1  UNL     1      47.058  10.405  -7.614  1.00  0.00    -0.116 N
HETATM   31  O3  UNL     1      47.695  11.469  -7.338  1.00  0.00    -0.532 OA
HETATM   32  O4  UNL     1      46.626  10.285  -8.911  1.00  0.00    -0.532 OA
ENDBRANCH  27  30
BRANCH  29  33
HETATM   33  N2  UNL     1      45.903   5.881  -6.326  1.00  0.00    -0.115 N
HETATM   34  O5  UNL     1      46.657   4.928  -6.430  1.00  0.00    -0.532 OA
HETATM   35  O6  UNL     1      44.584   5.657  -6.724  1.00  0.00    -0.532 OA
ENDBRANCH  29  33
ENDBRANCH  21  24
ENDBRANCH   1  21
TORSDOF 11
ENDMDL