MODEL 3
REMARK VINA RESULT: -7.179802606      1.975      2.894
REMARK  12 active torsions:
REMARK  status: ('A' for Active; 'I' for Inactive)
REMARK    1  A    between atoms: C2_2  and  C3_3
REMARK    2  A    between atoms: C3_3  and  C4_4
REMARK    3  A    between atoms: C4_4  and  C5_5
REMARK    4  A    between atoms: C5_5  and  O2_7
REMARK    5  A    between atoms: O2_7  and  C6_8
REMARK    6  A    between atoms: C6_8  and  C7_9
REMARK    7  A    between atoms: C7_9  and  S1_10
REMARK    8  A    between atoms: S1_10  and  C8_11
REMARK    9  A    between atoms: C13_19  and  N2_20
REMARK   10  A    between atoms: C15_26  and  C16_27
REMARK   11  A    between atoms: C16_27  and  C17_28
REMARK   12  A    between atoms: C17_28  and  O3_29
ROOT
HETATM    1  C8  UNL     1      47.927  10.018  -1.502  1.00  0.00     0.146 A
HETATM    2  N1  UNL     1      48.068  10.608  -2.695  1.00  0.00    -0.330 N
ATOM      3  H1  UNL     1      48.506  11.528  -2.756  1.00  0.00     0.168 HD
HETATM    4  C9  UNL     1      47.629   9.987  -3.839  1.00  0.00     0.091 A
HETATM    5  S2  UNL     1      47.641  10.476  -5.466  1.00  0.00    -0.075 SA
HETATM    6  C10 UNL     1      46.880   9.090  -6.157  1.00  0.00     0.001 A
HETATM    7  C11 UNL     1      46.648   8.301  -5.099  1.00  0.00    -0.026 A
HETATM    8  C12 UNL     1      47.035   8.764  -3.855  1.00  0.00     0.049 A
HETATM    9  C13 UNL     1      46.902   8.177  -2.576  1.00  0.00     0.114 A
HETATM   10  N3  UNL     1      47.361   8.843  -1.463  1.00  0.00    -0.323 N
ATOM     11  H3  UNL     1      47.252   8.392  -0.555  1.00  0.00     0.169 HD
HETATM   12  C14 UNL     1      46.054   6.893  -5.283  1.00  0.00     0.056 C
HETATM   13  C15 UNL     1      46.229   6.334  -6.622  1.00  0.00     0.054 C
HETATM   14  S3  UNL     1      45.477   7.486  -7.820  1.00  0.00    -0.159 SA
HETATM   15  C18 UNL     1      46.554   8.921  -7.598  1.00  0.00     0.121 C
ENDROOT
BRANCH   1  16
HETATM   16  S1  UNL     1      48.489  10.783   0.014  1.00  0.00    -0.092 SA
BRANCH  16  17
HETATM   17  C7  UNL     1      50.038   9.972   0.495  1.00  0.00     0.109 C
BRANCH  17  18
HETATM   18  C6  UNL     1      49.649   8.749   1.334  1.00  0.00     0.189 C
BRANCH  18  19
HETATM   19  O2  UNL     1      49.687   7.652   0.465  1.00  0.00    -0.321 OA
BRANCH  19  20
HETATM   20  C5  UNL     1      49.018   6.468   0.665  1.00  0.00     0.258 C
HETATM   21  O1  UNL     1      48.321   6.352   1.700  1.00  0.00    -0.265 OA
BRANCH  20  22
HETATM   22  C4  UNL     1      49.122   5.350  -0.332  1.00  0.00     0.111 C
BRANCH  22  23
HETATM   23  C3  UNL     1      49.551   5.910  -1.665  1.00  0.00     0.009 C
BRANCH  23  24
HETATM   24  C2  UNL     1      49.713   4.809  -2.669  1.00  0.00    -0.004 C
HETATM   25  C1  UNL     1      48.477   4.599  -3.480  1.00  0.00     0.005 C
ENDBRANCH  23  24
ENDBRANCH  22  23
ENDBRANCH  20  22
ENDBRANCH  19  20
ENDBRANCH  18  19
ENDBRANCH  17  18
ENDBRANCH  16  17
ENDBRANCH   1  16
BRANCH   9  26
HETATM   26  N2  UNL     1      46.327   7.108  -2.311  1.00  0.00    -0.385 N
ATOM     27  H22 UNL     1      45.355   7.083  -2.619  1.00  0.00     0.157 HD
ATOM     28  H21 UNL     1      46.751   6.282  -1.888  1.00  0.00     0.157 HD
ENDBRANCH   9  26
BRANCH  13  29
HETATM   29  C16 UNL     1      45.725   4.954  -6.755  1.00  0.00     0.041 C
BRANCH  29  30
HETATM   30  C17 UNL     1      45.349   4.442  -8.086  1.00  0.00     0.165 C
BRANCH  30  31
HETATM   31  O3  UNL     1      46.283   3.714  -8.782  1.00  0.00    -0.401 OA
ATOM     32  H3  UNL     1      46.160   3.613  -9.719  1.00  0.00     0.209 HD
ENDBRANCH  30  31
ENDBRANCH  29  30
ENDBRANCH  13  29
TORSDOF 12
ENDMDL