MODEL 2
REMARK VINA RESULT: -7.483428298      1.547      1.737
REMARK  7 active torsions:
REMARK  status: ('A' for Active; 'I' for Inactive)
REMARK    1  A    between atoms: C2_2  and  O1_3
REMARK    2  A    between atoms: C2_2  and  N1_5
REMARK    3  A    between atoms: N2_8  and  C5_9
REMARK    4  A    between atoms: C5_9  and  C6_10
REMARK    5  A    between atoms: C6_10  and  N3_11
REMARK    6  A    between atoms: N3_11  and  C7_13
REMARK    7  A    between atoms: C11_24  and  N7_25
ROOT
HETATM    1  C7  UNL     1      -3.533   4.517  11.318  1.00  0.00     0.132 A
HETATM    2  N4  UNL     1      -2.795   5.514  10.810  1.00  0.00    -0.337 N
ATOM      3  H4  UNL     1      -3.078   6.480  10.976  1.00  0.00     0.168 HD
HETATM    4  C8  UNL     1      -1.672   5.261  10.075  1.00  0.00     0.182 A
HETATM    5  N5  UNL     1      -1.268   3.997   9.835  1.00  0.00    -0.346 N
ATOM      6  H5  UNL     1      -0.426   3.829   9.284  1.00  0.00     0.167 HD
HETATM    7  C9  UNL     1      -1.976   2.945  10.323  1.00  0.00     0.133 A
HETATM    8  C10 UNL     1      -1.570   1.655  10.082  1.00  0.00     0.288 A
HETATM    9  O2  UNL     1      -0.550   1.375   9.415  1.00  0.00    -0.265 OA
HETATM   10  N6  UNL     1      -2.310   0.658  10.590  1.00  0.00    -0.154 N
ATOM     11  H6  UNL     1      -2.029  -0.308  10.425  1.00  0.00     0.187 HD
HETATM   12  C11 UNL     1      -3.426   0.912  11.321  1.00  0.00     0.679 A
HETATM   13  N8  UNL     1      -3.815   2.176  11.552  1.00  0.00    -0.186 N
ATOM     14  H8  UNL     1      -4.657   2.343  12.103  1.00  0.00     0.184 HD
HETATM   15  C12 UNL     1      -3.124   3.228  11.073  1.00  0.00     0.125 A
ENDROOT
BRANCH   1  16
HETATM   16  N3  UNL     1      -4.565   4.742  11.995  1.00  0.00    -0.373 N
ATOM     17  H3  UNL     1      -5.430   4.364  11.610  1.00  0.00     0.161 HD
BRANCH  16  18
HETATM   18  C6  UNL     1      -4.702   5.453  13.227  1.00  0.00     0.141 C
BRANCH  18  19
HETATM   19  C5  UNL     1      -3.799   5.014  14.315  1.00  0.00     0.143 C
BRANCH  19  20
HETATM   20  N2  UNL     1      -4.356   3.968  15.087  1.00  0.00    -0.374 N
HETATM   21  C4  UNL     1      -5.781   3.969  15.174  1.00  0.00     0.140 C
HETATM   22  C3  UNL     1      -6.348   2.652  15.653  1.00  0.00     0.136 C
HETATM   23  N1  UNL     1      -5.436   2.093  16.613  1.00  0.00    -0.201 NA
HETATM   24  N9  UNL     1      -4.243   1.750  15.993  1.00  0.00    -0.313 N
HETATM   25  C13 UNL     1      -3.848   2.663  14.934  1.00  0.00     0.190 C
ATOM     26  H9  UNL     1      -3.693   0.933  16.258  1.00  0.00     0.181 HD
BRANCH  23  27
HETATM   27  C2  UNL     1      -6.029   0.930  17.247  1.00  0.00     0.208 C
HETATM   28  C1  UNL     1      -7.526   1.012  17.037  1.00  0.00     0.058 C
BRANCH  27  29
HETATM   29  O1  UNL     1      -5.580  -0.252  16.670  1.00  0.00    -0.380 OA
ATOM     30  H1  UNL     1      -5.973  -0.325  15.808  1.00  0.00     0.211 HD
ENDBRANCH  27  29
ENDBRANCH  23  27
ENDBRANCH  19  20
ENDBRANCH  18  19
ENDBRANCH  16  18
ENDBRANCH   1  16
BRANCH  12  31
HETATM   31  N7  UNL     1      -4.109  -0.074  11.791  1.00  0.00    -0.234 N
ATOM     32  H72 UNL     1      -3.726  -1.019  11.774  1.00  0.00     0.174 HD
ATOM     33  H71 UNL     1      -5.036   0.101  12.180  1.00  0.00     0.174 HD
ENDBRANCH  12  31
TORSDOF 7
ENDMDL