MODEL 3
REMARK VINA RESULT: -6.822190720      0.956      1.028
REMARK  9 active torsions:
REMARK  status: ('A' for Active; 'I' for Inactive)
REMARK    1  A    between atoms: N1_1  and  C1_4
REMARK    2  A    between atoms: C2_7  and  N3_8
REMARK    3  A    between atoms: N3_8  and  N4_10
REMARK    4  A    between atoms: C3_15  and  N6_16
REMARK    5  A    between atoms: N6_16  and  N7_18
REMARK    6  A    between atoms: N8_20  and  C4_22
REMARK    7  A    between atoms: N10_25  and  O1_26
REMARK    8  A    between atoms: O1_26  and  C5_27
REMARK    9  A    between atoms: C5_27  and  C6_28
ROOT
HETATM    1  C1  UNL     1      -2.049   0.891  10.697  1.00  0.00     0.732 A
HETATM    2  N2  UNL     1      -2.423  -0.388  10.544  1.00  0.00    -0.018 N
ATOM      3  H2  UNL     1      -2.016  -0.950   9.797  1.00  0.00     0.203 HD
HETATM    4  C2  UNL     1      -3.325  -0.927  11.366  1.00  0.00     0.725 A
HETATM    5  N5  UNL     1      -3.855  -0.157  12.357  1.00  0.00    -0.016 N
ATOM      6  H5  UNL     1      -4.546  -0.552  12.995  1.00  0.00     0.203 HD
HETATM    7  C3  UNL     1      -3.466   1.123  12.494  1.00  0.00     0.754 A
HETATM    8  N10 UNL     1      -2.545   1.685  11.659  1.00  0.00     0.131 N
ENDROOT
BRANCH   7   9
HETATM    9  N6  UNL     1      -3.978   1.818  13.427  1.00  0.00    -0.114 N
ATOM     10  H6  UNL     1      -4.923   2.169  13.273  1.00  0.00     0.207 HD
BRANCH   9  11
HETATM   11  N7  UNL     1      -3.386   2.145  14.620  1.00  0.00    -0.226 N
HETATM   12  N8  UNL     1      -3.710   1.766  15.761  1.00  0.00    -0.264 N
ATOM     13  H8  UNL     1      -3.153   2.113  16.542  1.00  0.00     0.190 HD
ATOM     14  H7  UNL     1      -2.585   2.773  14.567  1.00  0.00     0.209 HD
BRANCH  12  15
HETATM   15  C4  UNL     1      -4.784   0.898  16.071  1.00  0.00     0.200 C
HETATM   16  N9  UNL     1      -4.842  -0.354  15.402  1.00  0.00    -0.068 NA
HETATM   17  S1  UNL     1      -5.960   1.242  17.145  1.00  0.00    -0.043 SA
ENDBRANCH  12  15
ENDBRANCH   9  11
ENDBRANCH   7   9
BRANCH   8  18
HETATM   18  O1  UNL     1      -2.196   2.978  11.847  1.00  0.00    -0.243 OA
BRANCH  18  19
HETATM   19  C5  UNL     1      -2.653   4.111  11.194  1.00  0.00     0.247 C
BRANCH  19  20
HETATM   20  C6  UNL     1      -3.264   5.128  12.124  1.00  0.00     0.273 C
HETATM   21  N11 UNL     1      -3.290   6.455  11.518  1.00  0.00    -0.059 N
HETATM   22  C7  UNL     1      -3.630   7.354  12.602  1.00  0.00     0.244 C
ATOM     23 2H11 UNL     1      -2.430   6.704  11.029  1.00  0.00     0.278 HD
ATOM     24 1H11 UNL     1      -3.909   6.529  10.710  1.00  0.00     0.278 HD
HETATM   25  C8  UNL     1      -2.443   7.300  13.575  1.00  0.00     0.103 C
HETATM   26  S2  UNL     1      -2.143   5.483  13.538  1.00  0.00    -0.132 SA
ENDBRANCH  19  20
ENDBRANCH  18  19
ENDBRANCH   8  18
BRANCH   4  27
HETATM   27  N3  UNL     1      -3.717  -2.166  11.255  1.00  0.00    -0.138 N
ATOM     28  H3  UNL     1      -4.701  -2.398  11.119  1.00  0.00     0.205 HD
BRANCH  27  29
HETATM   29  N4  UNL     1      -2.742  -3.165  11.327  1.00  0.00    -0.331 N
ATOM     30  H42 UNL     1      -1.771  -2.952  11.100  1.00  0.00     0.177 HD
ATOM     31  H41 UNL     1      -3.040  -4.098  11.612  1.00  0.00     0.177 HD
ENDBRANCH  27  29
ENDBRANCH   4  27
BRANCH   1  32
HETATM   32  N1  UNL     1      -1.182   1.341   9.876  1.00  0.00    -0.231 N
ATOM     33  H12 UNL     1      -0.186   1.227  10.065  1.00  0.00     0.174 HD
ATOM     34  H11 UNL     1      -1.536   1.807   9.040  1.00  0.00     0.174 HD
ENDBRANCH   1  32
TORSDOF 9
ENDMDL