MODEL 1
REMARK VINA RESULT: -6.097221001      0.000      0.000
REMARK  11 active torsions:
REMARK  status: ('A' for Active; 'I' for Inactive)
REMARK    1  A    between atoms: O1_2  and  N1_3
REMARK    2  A    between atoms: N1_3  and  C2_4
REMARK    3  A    between atoms: C2_4  and  C3_5
REMARK    4  A    between atoms: C3_5  and  O3_7
REMARK    5  A    between atoms: C7_12  and  N2_13
REMARK    6  A    between atoms: N2_13  and  C8_15
REMARK    7  A    between atoms: C8_15  and  N3_17
REMARK    8  A    between atoms: N3_17  and  N4_19
REMARK    9  A    between atoms: N4_19  and  C9_21
REMARK   10  A    between atoms: C9_21  and  O4_25
REMARK   11  A    between atoms: O4_25  and  N6_26
ROOT
HETATM    1  N2  UNL     1      -4.443   3.814  13.085  1.00  0.00    -0.358 N
ATOM      2  H2  UNL     1      -5.248   3.983  12.481  1.00  0.00     0.162 HD
ENDROOT
BRANCH   1   3
HETATM    3  C7  UNL     1      -3.135   3.753  12.483  1.00  0.00     0.130 C
HETATM    4  C2  UNL     1      -3.022   2.541  11.635  1.00  0.00     0.173 C
HETATM    5  C5  UNL     1      -4.027   2.658  10.511  1.00  0.00     0.116 C
HETATM    6  S1  UNL     1      -3.681   4.390  10.019  1.00  0.00    -0.164 SA
HETATM    7  C6  UNL     1      -2.957   4.965  11.605  1.00  0.00     0.102 C
BRANCH   4   8
HETATM    8  N1  UNL     1      -3.257   1.366  12.455  1.00  0.00    -0.078 NA
BRANCH   8   9
HETATM    9  O1  UNL     1      -4.412   0.742  12.103  1.00  0.00    -0.290 OA
HETATM   10  C1  UNL     1      -4.184  -0.571  11.713  1.00  0.00     0.231 C
ENDBRANCH   8   9
ENDBRANCH   4   8
BRANCH   4  11
HETATM   11  C3  UNL     1      -1.692   2.407  10.982  1.00  0.00     0.288 C
HETATM   12  O2  UNL     1      -0.644   2.583  11.630  1.00  0.00    -0.263 OA
BRANCH  11  13
HETATM   13  O3  UNL     1      -1.597   2.087   9.648  1.00  0.00    -0.325 OA
HETATM   14  C4  UNL     1      -0.589   2.546   8.786  1.00  0.00     0.213 C
ENDBRANCH  11  13
ENDBRANCH   4  11
ENDBRANCH   1   3
BRANCH   1  15
HETATM   15  C8  UNL     1      -4.668   3.648  14.482  1.00  0.00     0.187 C
HETATM   16  S2  UNL     1      -6.153   3.949  15.071  1.00  0.00    -0.040 SA
BRANCH  15  17
HETATM   17  N3  UNL     1      -3.648   3.248  15.376  1.00  0.00    -0.273 N
ATOM     18  H3  UNL     1      -3.179   3.963  15.934  1.00  0.00     0.189 HD
BRANCH  17  19
HETATM   19  N4  UNL     1      -3.262   1.934  15.526  1.00  0.00    -0.262 N
ATOM     20  H4  UNL     1      -2.287   1.677  15.368  1.00  0.00     0.190 HD
BRANCH  19  21
HETATM   21  C9  UNL     1      -4.199   0.930  15.895  1.00  0.00     0.255 C
HETATM   22  N5  UNL     1      -4.455  -0.057  15.104  1.00  0.00    -0.363 N
ATOM     23  H52 UNL     1      -3.958  -0.077  14.214  1.00  0.00     0.159 HD
ATOM     24  H51 UNL     1      -5.126  -0.778  15.370  1.00  0.00     0.159 HD
BRANCH  21  25
HETATM   25  O4  UNL     1      -4.875   0.958  17.109  1.00  0.00    -0.207 OA
BRANCH  25  26
HETATM   26  N6  UNL     1      -5.870   0.053  17.424  1.00  0.00    -0.302 N
ATOM     27  H62 UNL     1      -5.729  -0.920  17.154  1.00  0.00     0.184 HD
ATOM     28  H61 UNL     1      -6.725   0.325  17.909  1.00  0.00     0.184 HD
ENDBRANCH  25  26
ENDBRANCH  21  25
ENDBRANCH  19  21
ENDBRANCH  17  19
ENDBRANCH  15  17
ENDBRANCH   1  15
TORSDOF 11
ENDMDL