MODEL 4
REMARK VINA RESULT: -8.090456156      1.029      1.152
REMARK  4 active torsions:
REMARK  status: ('A' for Active; 'I' for Inactive)
REMARK    1  A    between atoms: C2_2  and  N1_3
REMARK    2  A    between atoms: N4_14  and  C7_16
REMARK    3  A    between atoms: C8_21  and  C9_22
REMARK    4  A    between atoms: C9_22  and  C10_23
ROOT
HETATM    1  N1  UNL     1       0.666   4.593   8.992  1.00  0.00    -0.283 N
HETATM    2  C3  UNL     1       0.800   3.667   8.035  1.00  0.00     0.328 A
HETATM    3  O1  UNL     1       1.562   3.723   7.034  1.00  0.00    -0.246 OA
HETATM    4  N2  UNL     1      -0.011   2.622   8.281  1.00  0.00    -0.301 N
ATOM      5  H2  UNL     1      -0.097   1.786   7.702  1.00  0.00     0.171 HD
HETATM    6  C4  UNL     1      -0.687   2.862   9.412  1.00  0.00     0.150 A
HETATM    7  C5  UNL     1      -1.643   2.146  10.132  1.00  0.00     0.290 A
HETATM    8  O2  UNL     1      -2.024   1.030   9.725  1.00  0.00    -0.265 OA
HETATM    9  N3  UNL     1      -2.106   2.731  11.257  1.00  0.00    -0.153 N
ATOM     10  H3  UNL     1      -2.807   2.231  11.805  1.00  0.00     0.187 HD
HETATM   11  C6  UNL     1      -1.701   3.925  11.695  1.00  0.00     0.701 A
HETATM   12  N4  UNL     1      -2.142   4.488  12.771  1.00  0.00    -0.020 N
ATOM     13  H4  UNL     1      -1.774   5.404  13.030  1.00  0.00     0.203 HD
HETATM   14  N10 UNL     1      -0.772   4.587  10.966  1.00  0.00    -0.173 N
ATOM     15  H10 UNL     1      -0.456   5.500  11.292  1.00  0.00     0.186 HD
HETATM   16  C12 UNL     1      -0.256   4.097   9.849  1.00  0.00     0.160 A
ENDROOT
BRANCH  12  17
HETATM   17  C7  UNL     1      -3.111   3.888  13.605  1.00  0.00     0.714 A
HETATM   18  N5  UNL     1      -2.736   3.143  14.647  1.00  0.00    -0.131 N
HETATM   19  N6  UNL     1      -3.628   2.572  15.440  1.00  0.00    -0.285 N
ATOM     20  H5  UNL     1      -1.742   3.012  14.836  1.00  0.00     0.205 HD
HETATM   21  C8  UNL     1      -4.937   2.742  15.197  1.00  0.00     0.101 A
ATOM     22  H6  UNL     1      -3.323   2.006  16.231  1.00  0.00     0.187 HD
HETATM   23  C11 UNL     1      -5.364   3.499  14.139  1.00  0.00     0.284 A
HETATM   24  O3  UNL     1      -6.582   3.631  13.947  1.00  0.00    -0.265 OA
HETATM   25  N9  UNL     1      -4.412   4.059  13.361  1.00  0.00    -0.152 N
ATOM     26  H9  UNL     1      -4.696   4.629  12.564  1.00  0.00     0.187 HD
BRANCH  21  27
HETATM   27  C9  UNL     1      -5.914   2.087  16.106  1.00  0.00     0.137 C
BRANCH  27  28
HETATM   28  C10 UNL     1      -5.575   0.685  16.391  1.00  0.00     0.092 C
HETATM   29  N7  UNL     1      -5.835   0.191  17.548  1.00  0.00    -0.391 N
ATOM     30  H72 UNL     1      -6.275   0.789  18.248  1.00  0.00     0.157 HD
ATOM     31  H71 UNL     1      -5.599  -0.781  17.746  1.00  0.00     0.157 HD
HETATM   32  N8  UNL     1      -4.963  -0.146  15.419  1.00  0.00    -0.088 NA
ENDBRANCH  27  28
ENDBRANCH  21  27
ENDBRANCH  12  17
BRANCH   1  33
HETATM   33  C2  UNL     1       1.365   5.879   9.103  1.00  0.00     0.131 C
HETATM   34  C1  UNL     1       2.551   5.664  10.020  1.00  0.00     0.027 C
ENDBRANCH   1  33
TORSDOF 4
ENDMDL