MODEL 1
REMARK VINA RESULT: -7.799795297      0.000      0.000
REMARK  4 active torsions:
REMARK  status: ('A' for Active; 'I' for Inactive)
REMARK    1  A    between atoms: N1_2  and  C2_4
REMARK    2  A    between atoms: C3_7  and  N3_8
REMARK    3  A    between atoms: C6_11  and  N4_12
REMARK    4  A    between atoms: C10_22  and  C11_23
REMARK       I    between atoms: C11_23  and  N7_25
REMARK       I    between atoms: N7_25  and  C12_27
REMARK       I    between atoms: C12_27  and  N8_28
REMARK       I    between atoms: C12_27  and  N9_32
ROOT
HETATM    1  C2  UNL     1      -2.969   0.213  11.229  1.00  0.00     0.147 A
HETATM    2  N2  UNL     1      -3.717   0.447  12.315  1.00  0.00    -0.174 N
ATOM      3  H2  UNL     1      -4.343  -0.282  12.657  1.00  0.00     0.186 HD
HETATM    4  C3  UNL     1      -3.660   1.638  12.974  1.00  0.00     0.683 A
HETATM    5  N5  UNL     1      -2.838   2.622  12.543  1.00  0.00    -0.174 N
ATOM      6  H5  UNL     1      -2.801   3.511  13.043  1.00  0.00     0.186 HD
HETATM    7  C9  UNL     1      -2.079   2.432  11.469  1.00  0.00     0.153 A
HETATM    8  N6  UNL     1      -1.186   3.230  10.833  1.00  0.00    -0.322 N
ATOM      9  H6  UNL     1      -0.936   4.182  11.103  1.00  0.00     0.169 HD
HETATM   10  C10 UNL     1      -0.686   2.552   9.787  1.00  0.00     0.177 A
HETATM   11  N10 UNL     1      -1.266   1.340   9.775  1.00  0.00    -0.332 N
ATOM     12  H10 UNL     1      -1.076   0.610   9.089  1.00  0.00     0.168 HD
HETATM   13  C13 UNL     1      -2.123   1.231  10.788  1.00  0.00     0.123 A
ENDROOT
BRANCH  10  14
HETATM   14  C11 UNL     1       0.302   3.068   8.854  1.00  0.00     0.288 C
HETATM   15  O1  UNL     1       1.508   3.125   9.200  1.00  0.00    -0.264 OA
HETATM   16  N7  UNL     1      -0.062   3.514   7.557  1.00  0.00    -0.305 N
HETATM   17  C12 UNL     1       0.927   4.026   6.635  1.00  0.00     0.483 C
ATOM     18  H7  UNL     1      -1.040   3.472   7.269  1.00  0.00     0.166 HD
HETATM   19  N8  UNL     1       0.579   5.429   6.397  1.00  0.00    -0.033 N
HETATM   20  N9  UNL     1       0.973   3.308   5.390  1.00  0.00    -0.033 N
ATOM     21  H83 UNL     1      -0.380   5.560   6.076  1.00  0.00     0.278 HD
ATOM     22  H82 UNL     1       0.501   5.978   7.253  1.00  0.00     0.278 HD
ATOM     23  H81 UNL     1       1.278   5.790   5.747  1.00  0.00     0.278 HD
ATOM     24  H93 UNL     1       1.111   2.311   5.552  1.00  0.00     0.278 HD
ATOM     25  H92 UNL     1       0.051   3.281   4.953  1.00  0.00     0.278 HD
ATOM     26  H91 UNL     1       1.671   3.669   4.740  1.00  0.00     0.278 HD
ENDBRANCH  10  14
BRANCH   1  27
HETATM   27  N1  UNL     1      -3.008  -0.901  10.589  1.00  0.00    -0.378 N
HETATM   28  C1  UNL     1      -3.076  -2.177  11.273  1.00  0.00     0.147 C
ATOM     29  H1  UNL     1      -2.991  -0.886   9.569  1.00  0.00     0.160 HD
ENDBRANCH   1  27
BRANCH   4  30
HETATM   30  N3  UNL     1      -4.450   1.883  14.119  1.00  0.00    -0.215 N
HETATM   31  C4  UNL     1      -5.451   2.915  14.253  1.00  0.00     0.143 C
HETATM   32  C5  UNL     1      -6.037   2.748  15.640  1.00  0.00     0.055 C
HETATM   33  C6  UNL     1      -5.774   1.306  15.933  1.00  0.00     0.205 C
HETATM   34  C8  UNL     1      -4.369   1.116  15.350  1.00  0.00     0.174 C
BRANCH  33  35
HETATM   35  N4  UNL     1      -5.695   1.013  17.343  1.00  0.00    -0.073 N
HETATM   36  C7  UNL     1      -6.417   1.974  18.138  1.00  0.00     0.267 C
ATOM     37  H42 UNL     1      -6.006   0.061  17.540  1.00  0.00     0.277 HD
ATOM     38  H41 UNL     1      -4.726   0.932  17.650  1.00  0.00     0.277 HD
ENDBRANCH  33  35
ENDBRANCH   4  30
TORSDOF 4
ENDMDL