MODEL 2
REMARK VINA RESULT: -7.220194155      3.093      5.564
REMARK  8 active torsions:
REMARK  status: ('A' for Active; 'I' for Inactive)
REMARK    1  A    between atoms: C2_2  and  C4_4
REMARK    2  A    between atoms: C4_4  and  C5_5
REMARK    3  A    between atoms: C5_5  and  N1_6
REMARK    4  A    between atoms: N1_6  and  C6_8
REMARK    5  A    between atoms: C7_11  and  N3_12
REMARK    6  A    between atoms: C9_14  and  N4_15
REMARK    7  A    between atoms: C11_20  and  N5_21
REMARK    8  A    between atoms: C13_28  and  N7_29
REMARK       I    between atoms: N7_29  and  C14_31
REMARK       I    between atoms: C14_31  and  N8_32
REMARK       I    between atoms: C14_31  and  N9_36
ROOT
HETATM    1  C6  UNL     1      -4.740   2.843  13.155  1.00  0.00     0.707 A
HETATM    2  N2  UNL     1      -3.713   3.636  12.768  1.00  0.00    -0.021 N
ATOM      3  H2  UNL     1      -3.710   4.634  12.976  1.00  0.00     0.203 HD
HETATM    4  C7  UNL     1      -2.701   3.061  12.101  1.00  0.00     0.709 A
HETATM    5  N6  UNL     1      -2.729   1.716  11.834  1.00  0.00    -0.021 N
ATOM      6  H6  UNL     1      -1.948   1.300  11.326  1.00  0.00     0.203 HD
HETATM    7  C13 UNL     1      -3.743   0.932  12.215  1.00  0.00     0.710 A
HETATM    8  N10 UNL     1      -4.750   1.531  12.885  1.00  0.00    -0.021 N
ATOM      9  H10 UNL     1      -5.543   0.968  13.195  1.00  0.00     0.203 HD
ENDROOT
BRANCH   4  10
HETATM   10  N3  UNL     1      -1.582   3.818  11.658  1.00  0.00    -0.213 N
HETATM   11  C8  UNL     1      -1.583   5.227  11.488  1.00  0.00     0.174 C
HETATM   12  C9  UNL     1      -1.248   5.455  10.004  1.00  0.00     0.204 C
HETATM   13  C10 UNL     1       0.212   5.103   9.889  1.00  0.00     0.069 C
HETATM   14  C11 UNL     1       0.641   3.875  10.583  1.00  0.00     0.204 C
HETATM   15  C12 UNL     1      -0.349   3.112  11.354  1.00  0.00     0.174 C
BRANCH  12  16
HETATM   16  N4  UNL     1      -1.992   4.503   9.211  1.00  0.00    -0.073 N
ATOM     17  H43 UNL     1      -1.746   4.542   8.222  1.00  0.00     0.274 HD
ATOM     18  H42 UNL     1      -1.708   3.539   9.390  1.00  0.00     0.274 HD
ATOM     19  H41 UNL     1      -2.988   4.652   9.372  1.00  0.00     0.274 HD
ENDBRANCH  12  16
BRANCH  14  20
HETATM   20  N5  UNL     1       1.802   4.210  11.429  1.00  0.00    -0.073 N
ATOM     21  H53 UNL     1       1.590   4.927  12.122  1.00  0.00     0.274 HD
ATOM     22  H52 UNL     1       2.046   3.460  12.076  1.00  0.00     0.274 HD
ATOM     23  H51 UNL     1       2.576   4.469  10.817  1.00  0.00     0.274 HD
ENDBRANCH  14  20
ENDBRANCH   4  10
BRANCH   1  24
HETATM   24  N1  UNL     1      -5.706   3.409  13.796  1.00  0.00    -0.225 N
ATOM     25  H1  UNL     1      -6.569   3.624  13.293  1.00  0.00     0.177 HD
BRANCH  24  26
HETATM   26  C5  UNL     1      -5.615   3.751  15.195  1.00  0.00     0.138 C
BRANCH  26  27
HETATM   27  C4  UNL     1      -6.828   3.193  15.909  1.00  0.00     0.024 C
BRANCH  27  28
HETATM   28  C2  UNL     1      -6.356   2.173  16.944  1.00  0.00    -0.021 C
HETATM   29  C1  UNL     1      -7.381   1.075  17.011  1.00  0.00     0.009 C
HETATM   30  C3  UNL     1      -4.983   1.669  16.599  1.00  0.00     0.009 C
ENDBRANCH  27  28
ENDBRANCH  26  27
ENDBRANCH  24  26
ENDBRANCH   1  24
BRANCH   7  31
HETATM   31  N7  UNL     1      -3.730  -0.329  11.943  1.00  0.00    -0.172 N
HETATM   32  C14 UNL     1      -2.759  -0.959  11.114  1.00  0.00     0.494 C
HETATM   33  N8  UNL     1      -2.780  -2.393  11.404  1.00  0.00    -0.032 N
HETATM   34  N9  UNL     1      -3.177  -0.804   9.724  1.00  0.00    -0.032 N
ATOM     35  H83 UNL     1      -2.646  -2.598  12.394  1.00  0.00     0.278 HD
ATOM     36  H82 UNL     1      -3.709  -2.803  11.305  1.00  0.00     0.278 HD
ATOM     37  H81 UNL     1      -2.084  -2.844  10.810  1.00  0.00     0.278 HD
ATOM     38  H93 UNL     1      -4.121  -1.150   9.556  1.00  0.00     0.278 HD
ATOM     39  H92 UNL     1      -3.340   0.170   9.469  1.00  0.00     0.278 HD
ATOM     40  H91 UNL     1      -2.481  -1.255   9.130  1.00  0.00     0.278 HD
ATOM     41  H7  UNL     1      -4.463  -0.913  12.349  1.00  0.00     0.181 HD
ENDBRANCH   7  31
TORSDOF 8
ENDMDL