MODEL 4
REMARK VINA RESULT: -8.366200284      1.189      1.512
REMARK  6 active torsions:
REMARK  status: ('A' for Active; 'I' for Inactive)
REMARK    1  A    between atoms: C2_5  and  C3_6
REMARK    2  A    between atoms: N3_13  and  N4_15
REMARK    3  A    between atoms: N5_17  and  N6_19
REMARK    4  A    between atoms: N6_19  and  C6_20
REMARK    5  A    between atoms: C6_20  and  C7_21
REMARK    6  A    between atoms: C8_22  and  O4_23
ROOT
HETATM    1  N4  UNL     1      -2.855   5.080  13.458  1.00  0.00    -0.216 N
ATOM      2  H4  UNL     1      -2.270   5.536  14.158  1.00  0.00     0.211 HD
HETATM    3  N5  UNL     1      -2.354   4.595  12.396  1.00  0.00    -0.162 N
ATOM      4  H5  UNL     1      -1.345   4.683  12.279  1.00  0.00     0.225 HD
ENDROOT
BRANCH   1   5
HETATM    5  N3  UNL     1      -4.237   4.965  13.629  1.00  0.00    -0.265 N
HETATM    6  C5  UNL     1      -4.680   4.050  14.456  1.00  0.00     0.186 C
HETATM    7  C1  UNL     1      -3.758   3.180  15.175  1.00  0.00     0.287 C
HETATM    8  N2  UNL     1      -6.087   3.890  14.669  1.00  0.00    -0.368 N
HETATM    9  O1  UNL     1      -2.519   3.307  15.002  1.00  0.00    -0.264 OA
HETATM   10  N1  UNL     1      -4.317   2.212  16.055  1.00  0.00    -0.338 N
HETATM   11  C2  UNL     1      -5.706   1.857  15.846  1.00  0.00     0.203 C
ATOM     12  H1  UNL     1      -3.765   1.787  16.800  1.00  0.00     0.163 HD
HETATM   13  C4  UNL     1      -6.493   3.149  15.848  1.00  0.00     0.157 C
ATOM     14  H2  UNL     1      -6.772   4.277  14.020  1.00  0.00     0.161 HD
ATOM     15  H3  UNL     1      -4.881   5.574  13.125  1.00  0.00     0.190 HD
BRANCH  11  16
HETATM   16  C3  UNL     1      -6.198   0.874  16.808  1.00  0.00     0.198 C
HETATM   17  O2  UNL     1      -5.428   0.249  17.558  1.00  0.00    -0.646 OA
HETATM   18  O3  UNL     1      -7.560   0.634  16.884  1.00  0.00    -0.646 OA
ENDBRANCH  11  16
ENDBRANCH   1   5
BRANCH   3  19
HETATM   19  N6  UNL     1      -3.005   4.000  11.450  1.00  0.00    -0.321 NA
BRANCH  19  20
HETATM   20  C6  UNL     1      -3.389   3.131  10.714  1.00  0.00     0.232 C
BRANCH  20  21
HETATM   21  C7  UNL     1      -3.316   1.690  10.897  1.00  0.00     0.114 A
HETATM   22  C8  UNL     1      -4.500   0.959  11.080  1.00  0.00     0.162 A
HETATM   23  N7  UNL     1      -4.519  -0.369  11.255  1.00  0.00    -0.288 N
HETATM   24  C9  UNL     1      -3.341  -1.026  11.257  1.00  0.00     0.329 A
ATOM     25  H7  UNL     1      -5.399  -0.869  11.383  1.00  0.00     0.172 HD
HETATM   26  O5  UNL     1      -3.277  -2.273  11.415  1.00  0.00    -0.247 OA
HETATM   27  N8  UNL     1      -2.206  -0.362  11.086  1.00  0.00    -0.275 N
HETATM   28  C10 UNL     1      -2.139   0.987  10.904  1.00  0.00     0.266 A
ATOM     29  H8  UNL     1      -1.334  -0.891  11.093  1.00  0.00     0.173 HD
HETATM   30  O6  UNL     1      -1.043   1.552  10.751  1.00  0.00    -0.267 OA
BRANCH  22  31
HETATM   31  O4  UNL     1      -5.722   1.638  11.079  1.00  0.00    -0.345 OA
ATOM     32  H4  UNL     1      -6.358   1.441  11.757  1.00  0.00     0.219 HD
ENDBRANCH  22  31
ENDBRANCH  20  21
ENDBRANCH  19  20
ENDBRANCH   3  19
TORSDOF 6
ENDMDL