MODEL 3
REMARK VINA RESULT: -7.498059966      0.933      2.430
REMARK  5 active torsions:
REMARK  status: ('A' for Active; 'I' for Inactive)
REMARK    1  A    between atoms: C4_6  and  N2_7
REMARK    2  A    between atoms: C7_14  and  C8_15
REMARK    3  A    between atoms: C10_17  and  C11_18
REMARK    4  A    between atoms: C11_18  and  N4_19
REMARK    5  A    between atoms: C11_18  and  N5_23
ROOT
HETATM    1  C8  UNL     1      -4.830   3.617  12.533  1.00  0.00     0.035 C
HETATM    2  C9  UNL     1      -4.540   2.236  12.292  1.00  0.00     0.060 A
HETATM    3  C10 UNL     1      -4.325   1.432  13.424  1.00  0.00     0.085 A
HETATM    4  N6  UNL     1      -4.108   0.131  13.240  1.00  0.00    -0.307 N
ATOM      5  H6  UNL     1      -3.952  -0.461  14.056  1.00  0.00     0.170 HD
HETATM    6  C12 UNL     1      -4.086  -0.434  12.022  1.00  0.00     0.327 A
HETATM    7  O3  UNL     1      -3.875  -1.676  11.918  1.00  0.00    -0.247 OA
HETATM    8  N7  UNL     1      -4.294   0.346  10.947  1.00  0.00    -0.275 N
ATOM      9  H7  UNL     1      -4.279  -0.080  10.021  1.00  0.00     0.173 HD
HETATM   10  C13 UNL     1      -4.520   1.666  11.050  1.00  0.00     0.261 A
HETATM   11  O4  UNL     1      -4.715   2.367   9.993  1.00  0.00    -0.267 OA
ENDROOT
BRANCH   1  12
HETATM   12  C7  UNL     1      -4.184   4.723  12.527  1.00  0.00     0.015 A
HETATM   13  C3  UNL     1      -2.812   4.764  12.224  1.00  0.00     0.057 A
HETATM   14  C2  UNL     1      -2.166   3.653  11.940  1.00  0.00    -0.000 C
HETATM   15  N1  UNL     1      -2.113   5.938  12.216  1.00  0.00    -0.192 N
HETATM   16  C1  UNL     1      -0.686   3.755  11.621  1.00  0.00     0.038 C
HETATM   17  C4  UNL     1      -2.713   7.085  12.494  1.00  0.00     0.676 A
ATOM     18  H1  UNL     1      -1.118   5.931  11.992  1.00  0.00     0.184 HD
HETATM   19  N3  UNL     1      -4.010   7.102  12.786  1.00  0.00    -0.195 N
HETATM   20  C5  UNL     1      -4.746   5.936  12.805  1.00  0.00     0.035 A
ATOM     21  H3  UNL     1      -4.467   7.989  13.000  1.00  0.00     0.184 HD
HETATM   22  C6  UNL     1      -6.148   6.123  13.154  1.00  0.00     0.070 C
BRANCH  17  23
HETATM   23  N2  UNL     1      -2.060   8.226  12.491  1.00  0.00    -0.234 N
ATOM     24  H22 UNL     1      -2.255   8.893  11.744  1.00  0.00     0.174 HD
ATOM     25  H21 UNL     1      -1.374   8.454  13.211  1.00  0.00     0.174 HD
ENDBRANCH  17  23
ENDBRANCH   1  12
BRANCH   3  26
HETATM   26  C11 UNL     1      -4.342   2.029  14.803  1.00  0.00     0.401 C
BRANCH  26  27
HETATM   27  N4  UNL     1      -3.048   2.585  15.137  1.00  0.00    -0.047 N
ATOM     28  H43 UNL     1      -2.311   1.881  15.093  1.00  0.00     0.277 HD
ATOM     29  H42 UNL     1      -2.706   3.211  14.408  1.00  0.00     0.277 HD
ATOM     30  H41 UNL     1      -3.076   3.044  16.047  1.00  0.00     0.277 HD
ENDBRANCH  26  27
BRANCH  26  31
HETATM   31  N5  UNL     1      -4.708   0.971  15.703  1.00  0.00    -0.117 N
HETATM   32  O1  UNL     1      -3.846   0.337  16.320  1.00  0.00    -0.534 OA
HETATM   33  O2  UNL     1      -6.021   0.654  15.886  1.00  0.00    -0.534 OA
ENDBRANCH  26  31
ENDBRANCH   3  26
TORSDOF 5
ENDMDL