MODEL 4
REMARK VINA RESULT: -7.990564346      1.540      3.550
REMARK  6 active torsions:
REMARK  status: ('A' for Active; 'I' for Inactive)
REMARK    1  A    between atoms: N1_1  and  C1_4
REMARK    2  A    between atoms: N4_14  and  C6_16
REMARK    3  A    between atoms: C6_16  and  C7_17
REMARK    4  A    between atoms: C7_17  and  S1_18
REMARK    5  A    between atoms: S1_18  and  C8_19
REMARK    6  A    between atoms: C9_24  and  N7_25
ROOT
HETATM    1  C1  UNL     1      -0.129   3.061   9.287  1.00  0.00     0.680 A
HETATM    2  N2  UNL     1      -0.483   1.785   9.518  1.00  0.00    -0.176 N
ATOM      3  H2  UNL     1       0.063   1.027   9.109  1.00  0.00     0.186 HD
HETATM    4  C2  UNL     1      -1.564   1.495  10.295  1.00  0.00     0.142 A
HETATM    5  C3  UNL     1      -2.283   2.535  10.836  1.00  0.00     0.108 A
HETATM    6  C4  UNL     1      -1.887   3.841  10.575  1.00  0.00     0.276 A
HETATM    7  O1  UNL     1      -2.588   4.745  11.100  1.00  0.00    -0.267 OA
HETATM    8  N3  UNL     1      -0.824   4.080   9.810  1.00  0.00    -0.155 N
ATOM      9  H3  UNL     1      -0.538   5.042   9.621  1.00  0.00     0.187 HD
HETATM   10  C5  UNL     1      -3.445   2.265  11.672  1.00  0.00     0.108 A
HETATM   11  N4  UNL     1      -4.097   3.215  12.162  1.00  0.00    -0.364 N
ATOM     12  H4  UNL     1      -3.724   4.129  11.910  1.00  0.00     0.165 HD
HETATM   13  C10 UNL     1      -3.802   0.881  11.903  1.00  0.00     0.267 A
HETATM   14  O3  UNL     1      -4.770   0.509  12.596  1.00  0.00    -0.280 OA
HETATM   15  C11 UNL     1      -3.004  -0.217  11.303  1.00  0.00     0.299 A
HETATM   16  O4  UNL     1      -3.297  -1.425  11.492  1.00  0.00    -0.264 OA
HETATM   17  N8  UNL     1      -1.885   0.120  10.501  1.00  0.00    -0.305 N
ATOM     18  H8  UNL     1      -1.317  -0.612  10.075  1.00  0.00     0.170 HD
ENDROOT
BRANCH  11  19
HETATM   19  C6  UNL     1      -5.232   3.290  12.986  1.00  0.00     0.072 C
BRANCH  19  20
HETATM   20  C7  UNL     1      -5.071   4.096  14.237  1.00  0.00     0.125 C
BRANCH  20  21
HETATM   21  S1  UNL     1      -4.091   3.144  15.423  1.00  0.00    -0.102 SA
BRANCH  21  22
HETATM   22  C8  UNL     1      -4.944   1.657  15.841  1.00  0.00     0.136 A
HETATM   23  N5  UNL     1      -4.562   0.385  15.664  1.00  0.00    -0.268 N
HETATM   24  N6  UNL     1      -5.507  -0.426  16.123  1.00  0.00     0.029 NA
ATOM     25  H5  UNL     1      -3.682   0.085  15.243  1.00  0.00     0.185 HD
HETATM   26  O2  UNL     1      -6.483   0.315  16.588  1.00  0.00    -0.203 OA
HETATM   27  C9  UNL     1      -6.191   1.574  16.440  1.00  0.00     0.196 A
BRANCH  27  28
HETATM   28  N7  UNL     1      -6.927   2.553  16.789  1.00  0.00    -0.376 N
ATOM     29  H72 UNL     1      -6.597   3.481  17.053  1.00  0.00     0.158 HD
ATOM     30  H71 UNL     1      -7.945   2.550  16.854  1.00  0.00     0.158 HD
ENDBRANCH  27  28
ENDBRANCH  21  22
ENDBRANCH  20  21
ENDBRANCH  19  20
ENDBRANCH  11  19
BRANCH   1  31
HETATM   31  N1  UNL     1       0.896   3.289   8.549  1.00  0.00    -0.234 N
ATOM     32  H12 UNL     1       1.799   2.876   8.783  1.00  0.00     0.174 HD
ATOM     33  H11 UNL     1       0.784   3.886   7.731  1.00  0.00     0.174 HD
ENDBRANCH   1  31
TORSDOF 6
ENDMDL