MODEL 4
REMARK VINA RESULT: -6.890240592      3.201      6.431
REMARK  7 active torsions:
REMARK  status: ('A' for Active; 'I' for Inactive)
REMARK    1  A    between atoms: C1_4  and  S1_6
REMARK    2  A    between atoms: S1_6  and  C2_7
REMARK    3  A    between atoms: C2_7  and  C3_8
REMARK    4  A    between atoms: C3_8  and  N3_9
REMARK    5  A    between atoms: C4_10  and  N4_11
REMARK    6  A    between atoms: C8_23  and  N9_24
REMARK    7  A    between atoms: N10_27  and  O2_28
ROOT
HETATM    1  N3  UNL     1      -4.059   3.869  13.645  1.00  0.00    -0.178 N
HETATM    2  C4  UNL     1      -4.473   5.136  13.956  1.00  0.00     0.688 A
HETATM    3  N7  UNL     1      -5.401   5.018  14.919  1.00  0.00    -0.183 N
ATOM      4  H7  UNL     1      -5.887   5.806  15.346  1.00  0.00     0.184 HD
HETATM    5  C6  UNL     1      -5.611   3.732  15.251  1.00  0.00     0.146 A
HETATM    6  C7  UNL     1      -6.489   3.263  16.198  1.00  0.00     0.289 C
HETATM    7  O1  UNL     1      -7.372   4.069  16.569  1.00  0.00    -0.265 OA
HETATM    8  N8  UNL     1      -6.546   2.064  16.789  1.00  0.00    -0.152 N
ATOM      9  H8  UNL     1      -7.217   1.950  17.549  1.00  0.00     0.187 HD
HETATM   10  C8  UNL     1      -5.787   0.987  16.466  1.00  0.00     0.705 C
HETATM   11  N10 UNL     1      -5.010   0.771  15.384  1.00  0.00    -0.062 N
HETATM   12  C9  UNL     1      -4.628   1.641  14.431  1.00  0.00     0.174 C
HETATM   13  C10 UNL     1      -4.744   3.019  14.426  1.00  0.00     0.103 A
ENDROOT
BRANCH   1  14
HETATM   14  C3  UNL     1      -3.062   3.501  12.660  1.00  0.00     0.158 C
BRANCH  14  15
HETATM   15  C2  UNL     1      -3.669   2.994  11.369  1.00  0.00     0.103 C
BRANCH  15  16
HETATM   16  S1  UNL     1      -2.990   1.377  11.000  1.00  0.00    -0.096 SA
BRANCH  16  17
HETATM   17  C1  UNL     1      -4.200   0.088  10.972  1.00  0.00     0.147 C
HETATM   18  N1  UNL     1      -4.152  -0.813  11.894  1.00  0.00    -0.382 N
ATOM     19  H12 UNL     1      -4.851  -1.557  11.878  1.00  0.00     0.157 HD
ATOM     20  H11 UNL     1      -3.415  -0.736  12.595  1.00  0.00     0.157 HD
HETATM   21  N2  UNL     1      -5.224  -0.019   9.998  1.00  0.00    -0.075 NA
ENDBRANCH  16  17
ENDBRANCH  15  16
ENDBRANCH  14  15
ENDBRANCH   1  14
BRANCH   2  22
HETATM   22  N4  UNL     1      -4.013   6.345  13.375  1.00  0.00    -0.165 N
HETATM   23  C5  UNL     1      -4.694   6.918  12.466  1.00  0.00     0.215 C
HETATM   24  N5  UNL     1      -4.214   8.129  11.897  1.00  0.00    -0.066 NA
HETATM   25  N6  UNL     1      -5.917   6.392  11.997  1.00  0.00    -0.066 NA
ATOM     26  H4  UNL     1      -3.134   6.756  13.687  1.00  0.00     0.186 HD
ENDBRANCH   2  22
BRANCH  11  27
HETATM   27  O2  UNL     1      -4.520  -0.503  15.197  1.00  0.00    -0.270 OA
ATOM     28  H2  UNL     1      -4.480  -1.073  15.955  1.00  0.00     0.245 HD
ENDBRANCH  11  27
BRANCH  10  29
HETATM   29  N9  UNL     1      -5.807   0.019  17.317  1.00  0.00    -0.232 N
ATOM     30  H92 UNL     1      -5.033  -0.641  17.230  1.00  0.00     0.174 HD
ATOM     31  H91 UNL     1      -6.588   0.026  17.973  1.00  0.00     0.174 HD
ENDBRANCH  10  29
TORSDOF 7
ENDMDL