MODEL 4
REMARK VINA RESULT: -7.869525626      1.234      1.936
REMARK  7 active torsions:
REMARK  status: ('A' for Active; 'I' for Inactive)
REMARK    1  A    between atoms: N1_2  and  N2_4
REMARK    2  A    between atoms: N2_4  and  C1_6
REMARK    3  A    between atoms: C2_12  and  S1_13
REMARK    4  A    between atoms: S1_13  and  N5_16
REMARK    5  A    between atoms: N5_16  and  C3_18
REMARK    6  A    between atoms: C4_22  and  N7_23
REMARK    7  A    between atoms: N7_23  and  C5_25
ROOT
HETATM    1  C3  UNL     1     111.274  53.750  14.489  1.00  0.00     0.157 A
HETATM    2  N6  UNL     1     112.514  54.229  14.528  1.00  0.00    -0.308 N
ATOM      3  H6  UNL     1     113.241  54.147  15.238  1.00  0.00     0.176 HD
HETATM    4  S2  UNL     1     112.511  55.001  13.061  1.00  0.00     0.009 SA
HETATM    5  C4  UNL     1     110.995  54.294  13.246  1.00  0.00     0.134 A
ENDROOT
BRANCH   1   6
HETATM    6  N5  UNL     1     110.506  52.962  15.391  1.00  0.00    -0.262 N
ATOM      7  H5  UNL     1     109.937  53.428  16.098  1.00  0.00     0.180 HD
BRANCH   6   8
HETATM    8  S1  UNL     1     110.508  51.252  15.323  1.00  0.00     0.285 S
HETATM    9  O4  UNL     1     109.061  50.784  15.234  1.00  0.00    -0.198 OA
HETATM   10  O5  UNL     1     111.171  50.743  14.075  1.00  0.00    -0.198 OA
BRANCH   8  11
HETATM   11  C2  UNL     1     111.294  50.504  16.697  1.00  0.00     0.219 A
HETATM   12  C1  UNL     1     110.605  49.750  17.627  1.00  0.00     0.189 A
HETATM   13  N3  UNL     1     111.504  49.354  18.516  1.00  0.00    -0.221 N
HETATM   14  O3  UNL     1     112.658  49.824  18.167  1.00  0.00    -0.154 OA
ATOM     15  H3  UNL     1     111.317  48.777  19.337  1.00  0.00     0.198 HD
HETATM   16  N4  UNL     1     112.576  50.519  17.082  1.00  0.00    -0.225 N
ATOM     17  H4  UNL     1     113.345  50.992  16.607  1.00  0.00     0.198 HD
BRANCH  12  18
HETATM   18  N2  UNL     1     109.331  49.475  17.639  1.00  0.00    -0.221 N
ATOM     19  H2  UNL     1     108.662  50.244  17.701  1.00  0.00     0.195 HD
BRANCH  18  20
HETATM   20  N1  UNL     1     108.852  48.174  17.572  1.00  0.00    -0.037 N
HETATM   21  O1  UNL     1     107.884  47.919  16.830  1.00  0.00    -0.516 OA
HETATM   22  O2  UNL     1     109.392  47.131  18.285  1.00  0.00    -0.516 OA
ENDBRANCH  18  20
ENDBRANCH  12  18
ENDBRANCH   8  11
ENDBRANCH   6   8
ENDBRANCH   1   6
BRANCH   5  23
HETATM   23  N7  UNL     1     109.831  54.268  12.408  1.00  0.00    -0.354 N
ATOM     24  H7  UNL     1     109.829  53.704  11.557  1.00  0.00     0.162 HD
BRANCH  23  25
HETATM   25  C5  UNL     1     108.661  55.040  12.765  1.00  0.00     0.237 C
HETATM   26  C6  UNL     1     107.692  55.127  11.668  1.00  0.00     0.129 C
HETATM   27  N8  UNL     1     107.007  56.231  11.578  1.00  0.00    -0.296 N
HETATM   28  N9  UNL     1     107.160  57.284  12.452  1.00  0.00    -0.203 N
ATOM     29  H8  UNL     1     106.326  56.319  10.825  1.00  0.00     0.187 HD
HETATM   30  C7  UNL     1     106.478  58.531  12.628  1.00  0.00     0.298 C
HETATM   31  N12 UNL     1     108.145  57.262  13.418  1.00  0.00    -0.012 NA
HETATM   32  N10 UNL     1     107.466  59.320  13.350  1.00  0.00    -0.105 NA
HETATM   33  N11 UNL     1     108.643  58.562  13.352  1.00  0.00    -0.013 NA
HETATM   34  N13 UNL     1     109.077  56.279  13.309  1.00  0.00    -0.292 N
ATOM     35  H13 UNL     1     110.041  56.428  13.607  1.00  0.00     0.180 HD
ENDBRANCH  23  25
ENDBRANCH   5  23
TORSDOF 7
ENDMDL