MODEL 3
REMARK VINA RESULT: -7.174211368      2.048      4.818
REMARK  12 active torsions:
REMARK  status: ('A' for Active; 'I' for Inactive)
REMARK    1  A    between atoms: C2_2  and  C3_4
REMARK    2  A    between atoms: C6_15  and  C7_16
REMARK    3  A    between atoms: C7_16  and  O3_17
REMARK    4  A    between atoms: C7_16  and  N7_34
REMARK    5  A    between atoms: O3_17  and  C8_18
REMARK    6  A    between atoms: C8_18  and  C9_20
REMARK    7  A    between atoms: C10_24  and  C11_25
REMARK    8  A    between atoms: C11_25  and  N5_26
REMARK    9  A    between atoms: C11_25  and  O6_30
REMARK   10  A    between atoms: C12_37  and  O7_38
REMARK   11  A    between atoms: C13_40  and  O8_41
REMARK   12  A    between atoms: C14_43  and  O9_44
ROOT
HETATM    1  C7  UNL     1     111.119  53.639  14.066  1.00  0.00     0.309 C
ENDROOT
BRANCH   1   2
HETATM    2  C6  UNL     1     110.138  54.638  13.669  1.00  0.00     0.094 A
HETATM    3  C3  UNL     1     110.034  55.901  14.258  1.00  0.00     0.107 A
HETATM    4  N1  UNL     1     109.079  56.791  13.834  1.00  0.00    -0.334 N
HETATM    5  C4  UNL     1     108.254  56.424  12.850  1.00  0.00     0.169 A
ATOM      6  H1  UNL     1     109.001  57.713  14.263  1.00  0.00     0.168 HD
HETATM    7  N2  UNL     1     107.348  57.284  12.457  1.00  0.00    -0.381 N
HETATM    8  C5  UNL     1     108.359  55.179  12.273  1.00  0.00     0.289 A
ATOM      9  H22 UNL     1     107.270  58.206  12.885  1.00  0.00     0.157 HD
ATOM     10  H21 UNL     1     106.718  57.004  11.705  1.00  0.00     0.157 HD
HETATM   11  O2  UNL     1     107.565  54.851  11.338  1.00  0.00    -0.264 OA
HETATM   12  N3  UNL     1     109.283  54.300  12.674  1.00  0.00    -0.318 N
ATOM     13  H3  UNL     1     109.344  53.382  12.233  1.00  0.00     0.169 HD
BRANCH   3  14
HETATM   14  C2  UNL     1     110.886  56.374  15.307  1.00  0.00     0.174 C
HETATM   15  C1  UNL     1     111.952  57.373  14.989  1.00  0.00     0.098 C
HETATM   16  O1  UNL     1     110.828  56.032  16.486  1.00  0.00    -0.291 OA
ENDBRANCH   3  14
ENDBRANCH   1   2
BRANCH   1  17
HETATM   17  O3  UNL     1     110.716  52.308  14.071  1.00  0.00    -0.281 OA
BRANCH  17  18
HETATM   18  C8  UNL     1     109.971  51.803  15.121  1.00  0.00     0.331 C
HETATM   19  O4  UNL     1     108.759  52.188  15.268  1.00  0.00    -0.256 OA
BRANCH  18  20
HETATM   20  C9  UNL     1     110.494  50.849  16.079  1.00  0.00     0.204 A
HETATM   21  N4  UNL     1     111.766  50.562  16.371  1.00  0.00    -0.238 N
HETATM   22  O5  UNL     1     111.811  49.636  17.298  1.00  0.00    -0.218 OA
ATOM     23  H4  UNL     1     112.580  50.997  15.937  1.00  0.00     0.197 HD
HETATM   24  C10 UNL     1     110.567  49.316  17.616  1.00  0.00     0.205 A
HETATM   25  N6  UNL     1     109.736  50.069  16.860  1.00  0.00    -0.315 N
ATOM     26  H6  UNL     1     108.717  50.047  16.880  1.00  0.00     0.169 HD
BRANCH  24  27
HETATM   27  C11 UNL     1     110.102  48.325  18.608  1.00  0.00     0.394 C
BRANCH  27  28
HETATM   28  N5  UNL     1     111.210  47.565  19.161  1.00  0.00    -0.045 N
ATOM     29  H53 UNL     1     112.019  47.578  18.539  1.00  0.00     0.277 HD
ATOM     30  H52 UNL     1     111.622  48.038  19.965  1.00  0.00     0.277 HD
ATOM     31  H51 UNL     1     110.931  46.612  19.391  1.00  0.00     0.277 HD
ENDBRANCH  27  28
BRANCH  27  32
HETATM   32  O6  UNL     1     109.240  47.446  17.947  1.00  0.00    -0.364 OA
ATOM     33  H6  UNL     1     108.843  46.889  18.607  1.00  0.00     0.212 HD
ENDBRANCH  27  32
ENDBRANCH  24  27
ENDBRANCH  18  20
ENDBRANCH  17  18
ENDBRANCH   1  17
BRANCH   1  34
HETATM   34  N7  UNL     1     112.410  53.840  13.390  1.00  0.00    -0.230 N
HETATM   35  N8  UNL     1     112.665  54.790  12.480  1.00  0.00    -0.271 N
HETATM   36  C12 UNL     1     113.920  54.710  12.027  1.00  0.00     0.193 A
ATOM     37  H8  UNL     1     111.988  55.487  12.172  1.00  0.00     0.189 HD
HETATM   38  C13 UNL     1     114.508  53.650  12.682  1.00  0.00     0.171 A
HETATM   39  C14 UNL     1     113.541  53.129  13.524  1.00  0.00     0.198 A
BRANCH  36  40
HETATM   40  O7  UNL     1     114.535  55.544  11.066  1.00  0.00    -0.343 OA
ATOM     41  H7  UNL     1     114.814  56.444  11.183  1.00  0.00     0.219 HD
ENDBRANCH  36  40
BRANCH  38  42
HETATM   42  O8  UNL     1     115.811  53.198  12.525  1.00  0.00    -0.353 OA
ATOM     43  H8  UNL     1     116.273  52.588  13.089  1.00  0.00     0.218 HD
ENDBRANCH  38  42
BRANCH  39  44
HETATM   44  O9  UNL     1     113.732  52.038  14.369  1.00  0.00    -0.343 OA
ATOM     45  H9  UNL     1     114.524  51.835  14.853  1.00  0.00     0.219 HD
ENDBRANCH  39  44
ENDBRANCH   1  34
TORSDOF 12
ENDMDL