MODEL 1
REMARK VINA RESULT: -8.153478555      0.000      0.000
REMARK  11 active torsions:
REMARK  status: ('A' for Active; 'I' for Inactive)
REMARK    1  A    between atoms: N1_1  and  C1_4
REMARK    2  A    between atoms: C1_4  and  C2_6
REMARK    3  A    between atoms: C2_6  and  O1_7
REMARK    4  A    between atoms: O1_7  and  C3_8
REMARK    5  A    between atoms: C3_8  and  C4_10
REMARK    6  A    between atoms: C4_10  and  N3_11
REMARK    7  A    between atoms: C5_15  and  C6_16
REMARK    8  A    between atoms: C6_16  and  C7_17
REMARK    9  A    between atoms: C9_23  and  N8_24
REMARK   10  A    between atoms: C10_29  and  N10_30
REMARK   11  A    between atoms: C12_36  and  C13_37
ROOT
HETATM    1  C7  UNL     1     110.311  53.292  13.662  1.00  0.00     0.051 A
HETATM    2  N6  UNL     1     109.368  53.525  12.695  1.00  0.00    -0.341 N
ATOM      3  H6  UNL     1     109.128  52.799  12.021  1.00  0.00     0.167 HD
HETATM    4  C8  UNL     1     108.769  54.717  12.650  1.00  0.00     0.152 A
HETATM    5  N7  UNL     1     107.828  55.022  11.735  1.00  0.00    -0.174 N
ATOM      6  H7  UNL     1     107.556  54.329  11.039  1.00  0.00     0.186 HD
HETATM    7  C9  UNL     1     107.247  56.231  11.733  1.00  0.00     0.679 A
HETATM    8  N9  UNL     1     107.570  57.189  12.634  1.00  0.00    -0.175 N
ATOM      9  H9  UNL     1     107.112  58.099  12.610  1.00  0.00     0.186 HD
HETATM   10  C10 UNL     1     108.496  56.923  13.551  1.00  0.00     0.145 A
HETATM   11  C11 UNL     1     109.119  55.678  13.580  1.00  0.00     0.122 A
HETATM   12  N11 UNL     1     110.033  55.450  14.515  1.00  0.00    -0.343 N
ATOM     13  H11 UNL     1     110.267  56.182  15.184  1.00  0.00     0.166 HD
HETATM   14  C12 UNL     1     110.670  54.230  14.586  1.00  0.00     0.133 A
ENDROOT
BRANCH   1  15
HETATM   15  C6  UNL     1     110.866  51.904  13.721  1.00  0.00     0.138 C
BRANCH  15  16
HETATM   16  C5  UNL     1     110.575  51.246  15.014  1.00  0.00     0.115 A
HETATM   17  N5  UNL     1     109.491  51.111  15.767  1.00  0.00    -0.270 N
HETATM   18  N4  UNL     1     109.772  50.404  16.845  1.00  0.00    -0.003 NA
ATOM     19  H5  UNL     1     108.573  51.498  15.545  1.00  0.00     0.185 HD
HETATM   20  N3  UNL     1     111.077  50.063  16.806  1.00  0.00    -0.207 N
HETATM   21  N12 UNL     1     111.535  50.574  15.709  1.00  0.00    -0.272 N
ATOM     22  H12 UNL     1     112.503  50.483  15.400  1.00  0.00     0.189 HD
BRANCH  20  23
HETATM   23  C4  UNL     1     111.808  49.283  17.767  1.00  0.00     0.278 C
BRANCH  23  24
HETATM   24  C3  UNL     1     110.919  48.528  18.667  1.00  0.00     0.283 C
HETATM   25  O2  UNL     1     110.450  47.423  18.225  1.00  0.00    -0.263 OA
BRANCH  24  26
HETATM   26  O1  UNL     1     110.546  48.902  19.933  1.00  0.00    -0.263 OA
BRANCH  26  27
HETATM   27  C2  UNL     1     111.360  49.043  21.064  1.00  0.00     0.310 A
HETATM   28  N13 UNL     1     112.484  48.150  21.113  1.00  0.00    -0.268 N
HETATM   29  N14 UNL     1     112.063  47.502  22.074  1.00  0.00    -0.242 N
ATOM     30  H13 UNL     1     113.332  48.078  20.550  1.00  0.00     0.186 HD
HETATM   31  N15 UNL     1     110.931  48.255  22.171  1.00  0.00    -0.055 NA
ATOM     32  H14 UNL     1     112.426  46.705  22.597  1.00  0.00     0.203 HD
BRANCH  27  33
HETATM   33  C1  UNL     1     111.673  50.434  21.484  1.00  0.00     0.164 C
HETATM   34  N2  UNL     1     112.555  51.206  20.692  1.00  0.00    -0.081 NA
BRANCH  33  35
HETATM   35  N1  UNL     1     111.175  50.917  22.545  1.00  0.00    -0.386 N
ATOM     36  H12 UNL     1     110.404  51.585  22.501  1.00  0.00     0.157 HD
ATOM     37  H11 UNL     1     111.529  50.631  23.457  1.00  0.00     0.157 HD
ENDBRANCH  33  35
ENDBRANCH  27  33
ENDBRANCH  26  27
ENDBRANCH  24  26
ENDBRANCH  23  24
ENDBRANCH  20  23
ENDBRANCH  15  16
ENDBRANCH   1  15
BRANCH  14  38
HETATM   38  C13 UNL     1     111.727  54.086  15.586  1.00  0.00     0.228 C
HETATM   39  O3  UNL     1     111.358  53.706  16.751  1.00  0.00    -0.643 OA
HETATM   40  O4  UNL     1     113.067  54.313  15.435  1.00  0.00    -0.643 OA
ENDBRANCH  14  38
BRANCH   7  41
HETATM   41  N8  UNL     1     106.345  56.497  10.847  1.00  0.00    -0.234 N
ATOM     42  H82 UNL     1     105.462  56.903  11.157  1.00  0.00     0.174 HD
ATOM     43  H81 UNL     1     106.535  56.297   9.865  1.00  0.00     0.174 HD
ENDBRANCH   7  41
BRANCH  10  44
HETATM   44  N10 UNL     1     108.796  57.842  14.408  1.00  0.00    -0.383 N
ATOM     45 2H10 UNL     1     108.151  58.102  15.154  1.00  0.00     0.157 HD
ATOM     46 1H10 UNL     1     109.698  58.311  14.322  1.00  0.00     0.157 HD
ENDBRANCH  10  44
TORSDOF 11
ENDMDL