MODEL 5
REMARK VINA RESULT: -6.493543604      1.243      2.284
REMARK  13 active torsions:
REMARK  status: ('A' for Active; 'I' for Inactive)
REMARK    1  A    between atoms: N1_1  and  N2_4
REMARK    2  A    between atoms: N2_4  and  C1_6
REMARK    3  A    between atoms: N3_7  and  N4_8
REMARK    4  A    between atoms: N7_15  and  C2_16
REMARK    5  A    between atoms: C2_16  and  C3_17
REMARK    6  A    between atoms: C2_16  and  C4_20
REMARK    7  A    between atoms: C2_16  and  C7_32
REMARK    8  A    between atoms: C3_17  and  O1_18
REMARK    9  A    between atoms: C4_20  and  C5_21
REMARK   10  A    between atoms: N10_28  and  N11_29
REMARK   11  A    between atoms: C9_34  and  N12_35
REMARK   12  A    between atoms: C10_38  and  O4_39
REMARK   13  A    between atoms: C12_42  and  O5_43
ROOT
HETATM    1  C2  UNL     1     110.063  55.025  14.394  1.00  0.00     0.130 C
ENDROOT
BRANCH   1   2
HETATM    2  N7  UNL     1     111.252  54.968  13.527  1.00  0.00    -0.086 N
HETATM    3  C1  UNL     1     112.383  55.605  13.470  1.00  0.00     0.752 A
HETATM    4  N3  UNL     1     113.146  55.126  12.443  1.00  0.00    -0.008 N
HETATM    5  N5  UNL     1     112.427  54.188  11.900  1.00  0.00    -0.191 N
HETATM    6  N6  UNL     1     111.277  54.072  12.536  1.00  0.00    -0.208 N
ATOM      7  H5  UNL     1     112.710  53.624  11.098  1.00  0.00     0.212 HD
ATOM      8  H6  UNL     1     110.535  53.411  12.311  1.00  0.00     0.210 HD
BRANCH   3   9
HETATM    9  N2  UNL     1     112.785  56.531  14.218  1.00  0.00    -0.134 N
ATOM     10  H2  UNL     1     112.419  57.461  14.012  1.00  0.00     0.205 HD
BRANCH   9  11
HETATM   11  N1  UNL     1     113.650  56.449  15.273  1.00  0.00    -0.331 N
ATOM     12  H12 UNL     1     113.423  55.728  15.958  1.00  0.00     0.177 HD
ATOM     13  H11 UNL     1     114.481  57.014  15.452  1.00  0.00     0.177 HD
ENDBRANCH   9  11
ENDBRANCH   3   9
BRANCH   4  14
HETATM   14  N4  UNL     1     114.407  55.520  12.036  1.00  0.00    -0.308 N
ATOM     15  H42 UNL     1     114.662  56.442  11.682  1.00  0.00     0.179 HD
ATOM     16  H41 UNL     1     115.274  54.983  12.016  1.00  0.00     0.179 HD
ENDBRANCH   4  14
ENDBRANCH   1   2
BRANCH   1  17
HETATM   17  C3  UNL     1     110.144  55.828  15.594  1.00  0.00     0.203 C
BRANCH  17  18
HETATM   18  O1  UNL     1     111.117  55.606  16.522  1.00  0.00    -0.398 OA
ATOM     19  H1  UNL     1     111.014  55.902  17.418  1.00  0.00     0.209 HD
ENDBRANCH  17  18
ENDBRANCH   1  17
BRANCH   1  20
HETATM   20  C4  UNL     1     109.746  53.572  14.652  1.00  0.00     0.121 C
BRANCH  20  21
HETATM   21  C5  UNL     1     110.635  52.789  15.480  1.00  0.00     0.123 A
HETATM   22  N8  UNL     1     111.870  52.932  15.993  1.00  0.00    -0.285 N
HETATM   23  N9  UNL     1     112.248  51.910  16.704  1.00  0.00    -0.273 N
ATOM     24  H8  UNL     1     112.451  53.756  15.840  1.00  0.00     0.188 HD
HETATM   25  C6  UNL     1     111.245  51.020  16.692  1.00  0.00     0.213 A
ATOM     26  H9  UNL     1     113.143  51.806  17.183  1.00  0.00     0.189 HD
HETATM   27  S1  UNL     1     111.265  49.569  17.456  1.00  0.00    -0.037 SA
HETATM   28  N10 UNL     1     110.273  51.548  15.953  1.00  0.00    -0.222 N
BRANCH  28  29
HETATM   29  N11 UNL     1     109.054  50.888  15.717  1.00  0.00    -0.335 N
ATOM     30 2H11 UNL     1     108.944  50.176  14.995  1.00  0.00     0.177 HD
ATOM     31 1H11 UNL     1     108.178  51.037  16.218  1.00  0.00     0.177 HD
ENDBRANCH  28  29
ENDBRANCH  20  21
ENDBRANCH   1  20
BRANCH   1  32
HETATM   32  C7  UNL     1     109.038  55.580  13.463  1.00  0.00     0.011 A
HETATM   33  C8  UNL     1     108.602  56.892  13.467  1.00  0.00     0.051 A
HETATM   34  C9  UNL     1     107.631  57.413  12.633  1.00  0.00     0.136 A
HETATM   35  C10 UNL     1     107.036  56.587  11.721  1.00  0.00     0.101 A
HETATM   36  C11 UNL     1     107.411  55.277  11.657  1.00  0.00     0.076 A
HETATM   37  C12 UNL     1     108.382  54.793  12.504  1.00  0.00     0.077 A
BRANCH  34  38
HETATM   38  N12 UNL     1     107.260  58.808  12.732  1.00  0.00    -0.113 N
HETATM   39  O2  UNL     1     106.071  59.134  12.718  1.00  0.00    -0.532 OA
HETATM   40  O3  UNL     1     108.197  59.799  12.843  1.00  0.00    -0.532 OA
ENDBRANCH  34  38
BRANCH  35  41
HETATM   41  O4  UNL     1     106.058  57.108  10.878  1.00  0.00    -0.358 OA
ATOM     42  H4  UNL     1     105.962  56.743  10.006  1.00  0.00     0.217 HD
ENDBRANCH  35  41
BRANCH  37  43
HETATM   43  O5  UNL     1     108.704  53.477  12.391  1.00  0.00    -0.360 OA
ATOM     44  H5  UNL     1     109.619  53.222  12.386  1.00  0.00     0.217 HD
ENDBRANCH  37  43
ENDBRANCH   1  32
TORSDOF 13
ENDMDL