MODEL 4
REMARK VINA RESULT: -7.059512639      2.163      3.515
REMARK  13 active torsions:
REMARK  status: ('A' for Active; 'I' for Inactive)
REMARK    1  A    between atoms: C2_2  and  O1_3
REMARK    2  A    between atoms: C2_2  and  N1_5
REMARK    3  A    between atoms: N1_5  and  C3_7
REMARK    4  A    between atoms: C4_10  and  N3_11
REMARK    5  A    between atoms: C5_16  and  C6_17
REMARK       I    between atoms: C6_17  and  N6_19
REMARK    6  A    between atoms: N6_19  and  N7_21
REMARK    7  A    between atoms: N7_21  and  C7_23
REMARK    8  A    between atoms: C7_23  and  C8_27
REMARK    9  A    between atoms: C10_35  and  C11_36
REMARK   10  A    between atoms: C11_36  and  O4_37
REMARK   11  A    between atoms: C11_36  and  C12_39
REMARK   12  A    between atoms: C12_39  and  O5_40
REMARK   13  A    between atoms: C12_39  and  O6_42
ROOT
HETATM    1  N3  UNL     1     110.175  53.835  14.143  1.00  0.00    -0.162 N
HETATM    2  N4  UNL     1     110.262  53.053  13.109  1.00  0.00    -0.218 N
ATOM      3  H4  UNL     1     110.080  53.338  12.146  1.00  0.00     0.210 HD
HETATM    4  N5  UNL     1     110.619  51.839  13.479  1.00  0.00    -0.264 N
ATOM      5  H5  UNL     1     110.755  51.036  12.866  1.00  0.00     0.190 HD
HETATM    6  C5  UNL     1     110.769  51.855  14.802  1.00  0.00     0.208 A
HETATM    7  N11 UNL     1     110.474  53.142  15.186  1.00  0.00    -0.255 N
ATOM      8  H11 UNL     1     110.489  53.492  16.144  1.00  0.00     0.191 HD
ENDROOT
BRANCH   1   9
HETATM    9  C4  UNL     1     109.935  55.277  14.125  1.00  0.00     0.169 A
HETATM   10  N2  UNL     1     108.949  55.776  13.377  1.00  0.00    -0.319 N
HETATM   11  C3  UNL     1     108.615  57.069  13.506  1.00  0.00     0.148 A
ATOM     12  H2  UNL     1     108.454  55.180  12.713  1.00  0.00     0.169 HD
HETATM   13  S1  UNL     1     109.699  57.608  14.702  1.00  0.00    -0.048 SA
HETATM   14  C10 UNL     1     110.562  56.109  14.982  1.00  0.00     0.090 A
BRANCH  11  15
HETATM   15  N1  UNL     1     107.720  57.626  12.819  1.00  0.00    -0.344 N
ATOM     16  H1  UNL     1     107.624  57.073  11.967  1.00  0.00     0.164 HD
BRANCH  15  17
HETATM   17  C2  UNL     1     106.828  58.641  12.719  1.00  0.00     0.215 C
HETATM   18  C1  UNL     1     105.766  58.475  13.836  1.00  0.00     0.063 C
BRANCH  17  19
HETATM   19  O1  UNL     1     107.352  59.933  12.873  1.00  0.00    -0.377 OA
ATOM     20  H1  UNL     1     107.800  59.935  13.711  1.00  0.00     0.212 HD
ENDBRANCH  17  19
ENDBRANCH  15  17
ENDBRANCH  11  15
BRANCH  14  21
HETATM   21  C11 UNL     1     111.817  55.984  15.759  1.00  0.00     0.119 C
BRANCH  21  22
HETATM   22  O4  UNL     1     112.894  55.373  15.241  1.00  0.00    -0.359 OA
ATOM     23  H4  UNL     1     113.584  55.040  15.801  1.00  0.00     0.217 HD
ENDBRANCH  21  22
BRANCH  21  24
HETATM   24  C12 UNL     1     111.740  56.023  17.256  1.00  0.00     0.313 C
BRANCH  24  25
HETATM   25  O5  UNL     1     112.957  55.641  17.808  1.00  0.00    -0.365 OA
ATOM     26  H5  UNL     1     112.813  55.145  18.605  1.00  0.00     0.213 HD
ENDBRANCH  24  25
BRANCH  24  27
HETATM   27  O6  UNL     1     110.881  54.881  17.617  1.00  0.00    -0.365 OA
ATOM     28  H6  UNL     1     111.480  54.227  17.959  1.00  0.00     0.213 HD
ENDBRANCH  24  27
ENDBRANCH  21  24
ENDBRANCH  14  21
ENDBRANCH   1   9
BRANCH   6  29
HETATM   29  C6  UNL     1     111.220  50.770  15.626  1.00  0.00     0.306 C
HETATM   30  O2  UNL     1     112.280  50.148  15.325  1.00  0.00    -0.262 OA
HETATM   31  N6  UNL     1     110.523  50.343  16.774  1.00  0.00    -0.262 N
ATOM     32  H6  UNL     1     109.667  50.827  17.044  1.00  0.00     0.190 HD
BRANCH  31  33
HETATM   33  N7  UNL     1     110.972  49.274  17.550  1.00  0.00    -0.281 N
ATOM     34  H7  UNL     1     110.622  48.343  17.329  1.00  0.00     0.188 HD
BRANCH  33  35
HETATM   35  C7  UNL     1     111.873  49.401  18.615  1.00  0.00     0.143 C
HETATM   36  N8  UNL     1     113.122  49.638  18.406  1.00  0.00    -0.383 N
ATOM     37  H82 UNL     1     113.403  49.751  17.432  1.00  0.00     0.157 HD
ATOM     38  H81 UNL     1     113.779  49.730  19.181  1.00  0.00     0.157 HD
BRANCH  35  39
HETATM   39  C8  UNL     1     111.470  49.238  20.013  1.00  0.00     0.115 A
HETATM   40  C9  UNL     1     111.110  48.084  20.623  1.00  0.00     0.198 A
HETATM   41  O3  UNL     1     110.792  48.348  21.885  1.00  0.00    -0.234 OA
HETATM   42  N9  UNL     1     110.930  49.601  22.100  1.00  0.00     0.026 NA
HETATM   43  N10 UNL     1     111.350  50.213  20.977  1.00  0.00    -0.273 N
ATOM     44  H10 UNL     1     111.542  51.207  20.862  1.00  0.00     0.185 HD
ENDBRANCH  35  39
ENDBRANCH  33  35
ENDBRANCH  31  33
ENDBRANCH   6  29
TORSDOF 13
ENDMDL