MODEL 3
REMARK VINA RESULT: -5.919596502      2.688      4.650
REMARK  12 active torsions:
REMARK  status: ('A' for Active; 'I' for Inactive)
REMARK    1  A    between atoms: O1_2  and  C2_3
REMARK    2  A    between atoms: C2_3  and  C3_5
REMARK    3  A    between atoms: C4_6  and  N1_7
REMARK    4  A    between atoms: N1_7  and  C5_9
REMARK    5  A    between atoms: C7_16  and  C8_17
REMARK    6  A    between atoms: C8_17  and  N4_18
REMARK    7  A    between atoms: C8_17  and  O3_22
REMARK    8  A    between atoms: C9_24  and  C10_25
REMARK    9  A    between atoms: C10_25  and  O4_26
REMARK   10  A    between atoms: C10_25  and  C11_28
REMARK   11  A    between atoms: N5_33  and  N6_35
REMARK   12  A    between atoms: C14_42  and  O8_43
ROOT
HETATM    1  C5  UNL     1     111.806  51.031  16.600  1.00  0.00     0.230 A
HETATM    2  N2  UNL     1     111.270  50.754  15.413  1.00  0.00    -0.308 N
ATOM      3  H2  UNL     1     111.210  49.780  15.115  1.00  0.00     0.171 HD
HETATM    4  C6  UNL     1     110.811  51.698  14.606  1.00  0.00     0.115 A
HETATM    5  N3  UNL     1     110.303  51.387  13.474  1.00  0.00    -0.385 N
ATOM      6  H31 UNL     1     109.950  52.115  12.853  1.00  0.00     0.157 HD
ATOM      7  H32 UNL     1     110.233  50.421  13.154  1.00  0.00     0.157 HD
HETATM    8  C7  UNL     1     110.909  53.043  15.052  1.00  0.00     0.074 A
HETATM    9  C9  UNL     1     111.459  53.318  16.264  1.00  0.00     0.110 A
HETATM   10  O7  UNL     1     111.878  52.256  16.970  1.00  0.00    -0.280 OA
ENDROOT
BRANCH   1  11
HETATM   11  N1  UNL     1     112.281  49.948  17.420  1.00  0.00    -0.319 N
ATOM     12  H1  UNL     1     112.677  49.128  16.961  1.00  0.00     0.169 HD
BRANCH  11  13
HETATM   13  C4  UNL     1     112.223  49.969  18.821  1.00  0.00     0.086 C
HETATM   14  C3  UNL     1     111.330  49.247  19.452  1.00  0.00     0.117 C
HETATM   15  C15 UNL     1     111.207  49.252  20.921  1.00  0.00     0.202 C
HETATM   16  C14 UNL     1     111.677  50.487  21.649  1.00  0.00     0.244 C
HETATM   17  O9  UNL     1     110.740  48.293  21.574  1.00  0.00    -0.289 OA
HETATM   18  C13 UNL     1     113.066  50.729  21.097  1.00  0.00     0.070 C
HETATM   19  C12 UNL     1     113.165  50.773  19.645  1.00  0.00     0.100 C
HETATM   20  N7  UNL     1     114.065  50.855  21.844  1.00  0.00    -0.398 N
HETATM   21  N5  UNL     1     114.013  51.482  19.052  1.00  0.00    -0.303 N
ATOM     22  H5  UNL     1     113.943  51.411  18.036  1.00  0.00     0.186 HD
ATOM     23  H72 UNL     1     115.000  51.018  21.473  1.00  0.00     0.156 HD
ATOM     24  H71 UNL     1     113.995  50.824  22.861  1.00  0.00     0.156 HD
BRANCH  14  25
HETATM   25  C2  UNL     1     110.375  48.400  18.710  1.00  0.00     0.299 C
HETATM   26  O2  UNL     1     110.633  47.201  18.450  1.00  0.00    -0.259 OA
BRANCH  25  27
HETATM   27  O1  UNL     1     109.167  48.904  18.280  1.00  0.00    -0.322 OA
HETATM   28  C1  UNL     1     108.378  48.256  17.301  1.00  0.00     0.213 C
ENDBRANCH  25  27
ENDBRANCH  14  25
BRANCH  16  29
HETATM   29  O8  UNL     1     111.792  50.193  22.987  1.00  0.00    -0.381 OA
ATOM     30  H8  UNL     1     112.714  50.077  23.186  1.00  0.00     0.211 HD
ENDBRANCH  16  29
BRANCH  21  31
HETATM   31  N6  UNL     1     114.996  52.319  19.447  1.00  0.00    -0.345 N
ATOM     32  H62 UNL     1     114.727  53.294  19.317  1.00  0.00     0.176 HD
ATOM     33  H61 UNL     1     115.929  52.195  19.839  1.00  0.00     0.176 HD
ENDBRANCH  21  31
ENDBRANCH  11  13
ENDBRANCH   1  11
BRANCH   9  34
HETATM   34  C10 UNL     1     111.621  54.648  16.830  1.00  0.00     0.276 C
BRANCH  34  35
HETATM   35  O4  UNL     1     110.680  55.140  17.670  1.00  0.00    -0.378 OA
ATOM     36  H4  UNL     1     110.917  55.367  18.561  1.00  0.00     0.211 HD
ENDBRANCH  34  35
BRANCH  34  37
HETATM   37  C11 UNL     1     113.006  54.884  17.344  1.00  0.00     0.209 C
HETATM   38  O5  UNL     1     113.859  55.339  16.562  1.00  0.00    -0.646 OA
HETATM   39  O6  UNL     1     113.340  54.609  18.646  1.00  0.00    -0.646 OA
ENDBRANCH  34  37
ENDBRANCH   9  34
BRANCH   8  40
HETATM   40  C8  UNL     1     110.379  54.004  14.095  1.00  0.00     0.357 C
BRANCH  40  41
HETATM   41  N4  UNL     1     111.547  54.794  13.599  1.00  0.00    -0.049 N
ATOM     42  H43 UNL     1     111.779  54.605  12.624  1.00  0.00     0.277 HD
ATOM     43  H42 UNL     1     111.345  55.788  13.491  1.00  0.00     0.277 HD
ATOM     44  H41 UNL     1     112.317  54.605  14.241  1.00  0.00     0.277 HD
ENDBRANCH  40  41
BRANCH  40  45
HETATM   45  O3  UNL     1     109.539  54.919  14.752  1.00  0.00    -0.366 OA
ATOM     46  H3  UNL     1     108.830  55.178  14.175  1.00  0.00     0.212 HD
ENDBRANCH  40  45
ENDBRANCH   8  40
TORSDOF 12
ENDMDL