MODEL 5
REMARK VINA RESULT: -7.161183993      1.383      2.616
REMARK  12 active torsions:
REMARK  status: ('A' for Active; 'I' for Inactive)
REMARK    1  A    between atoms: C2_2  and  C3_3
REMARK    2  A    between atoms: C2_2  and  N10_33
REMARK    3  A    between atoms: C3_3  and  O1_4
REMARK    4  A    between atoms: C3_3  and  C4_6
REMARK    5  A    between atoms: C4_6  and  N1_7
REMARK    6  A    between atoms: C5_12  and  C6_13
REMARK    7  A    between atoms: C10_18  and  N5_19
REMARK    8  A    between atoms: C11_24  and  N7_25
REMARK    9  A    between atoms: C13_36  and  C14_37
REMARK   10  A    between atoms: C14_37  and  N12_38
REMARK   11  A    between atoms: N13_42  and  N14_43
REMARK   12  A    between atoms: C15_46  and  N15_47
ROOT
HETATM    1  N1  UNL     1     111.574  52.739  14.805  1.00  0.00    -0.215 N
HETATM    2  N2  UNL     1     112.776  53.193  15.099  1.00  0.00    -0.224 N
ATOM      3  H2  UNL     1     113.249  53.963  14.625  1.00  0.00     0.210 HD
HETATM    4  N3  UNL     1     113.275  52.493  16.107  1.00  0.00    -0.268 N
ATOM      5  H3  UNL     1     114.190  52.635  16.533  1.00  0.00     0.190 HD
HETATM    6  C5  UNL     1     112.378  51.569  16.472  1.00  0.00     0.151 A
HETATM    7  N9  UNL     1     111.333  51.762  15.631  1.00  0.00    -0.266 N
ATOM      8  H9  UNL     1     110.472  51.213  15.643  1.00  0.00     0.190 HD
ENDROOT
BRANCH   1   9
HETATM    9  C4  UNL     1     110.662  53.219  13.761  1.00  0.00     0.205 C
BRANCH   9  10
HETATM   10  C3  UNL     1     109.685  54.215  14.312  1.00  0.00     0.164 C
BRANCH  10  11
HETATM   11  C2  UNL     1     109.986  55.627  13.860  1.00  0.00     0.153 C
HETATM   12  C1  UNL     1     110.290  56.423  15.137  1.00  0.00     0.038 C
BRANCH  11  13
HETATM   13  N10 UNL     1     108.809  56.250  13.281  1.00  0.00    -0.114 N
HETATM   14  N11 UNL     1     108.242  57.379  13.676  1.00  0.00    -0.269 N
HETATM   15  C13 UNL     1     107.169  57.651  12.909  1.00  0.00     0.162 A
ATOM     16  H11 UNL     1     108.569  57.958  14.449  1.00  0.00     0.189 HD
HETATM   17  N13 UNL     1     107.064  56.646  11.997  1.00  0.00    -0.076 N
HETATM   18  C15 UNL     1     108.086  55.797  12.250  1.00  0.00     0.715 A
BRANCH  15  19
HETATM   19  C14 UNL     1     106.230  58.807  12.982  1.00  0.00     0.309 C
BRANCH  19  20
HETATM   20  N12 UNL     1     105.350  58.674  14.124  1.00  0.00    -0.073 N
ATOM     21 3H12 UNL     1     104.460  59.148  13.974  1.00  0.00     0.274 HD
ATOM     22 2H12 UNL     1     105.001  57.721  14.225  1.00  0.00     0.274 HD
ATOM     23 1H12 UNL     1     105.814  59.000  14.972  1.00  0.00     0.274 HD
ENDBRANCH  19  20
ENDBRANCH  15  19
BRANCH  17  24
HETATM   24  N14 UNL     1     106.107  56.496  10.996  1.00  0.00    -0.323 N
ATOM     25 2H14 UNL     1     105.552  55.658  10.820  1.00  0.00     0.178 HD
ATOM     26 1H14 UNL     1     105.817  57.182  10.299  1.00  0.00     0.178 HD
ENDBRANCH  17  24
BRANCH  18  27
HETATM   27  N15 UNL     1     108.318  54.718  11.589  1.00  0.00    -0.231 N
ATOM     28 2H15 UNL     1     109.224  54.252  11.545  1.00  0.00     0.174 HD
ATOM     29 1H15 UNL     1     107.635  54.202  11.035  1.00  0.00     0.174 HD
ENDBRANCH  18  27
ENDBRANCH  11  13
ENDBRANCH  10  11
BRANCH  10  30
HETATM   30  O1  UNL     1     109.818  54.198  15.708  1.00  0.00    -0.392 OA
ATOM     31  H1  UNL     1     110.662  53.803  15.899  1.00  0.00     0.210 HD
ENDBRANCH  10  30
ENDBRANCH   9  10
ENDBRANCH   1   9
BRANCH   6  32
HETATM   32  C6  UNL     1     112.487  50.576  17.529  1.00  0.00     0.056 A
HETATM   33  C7  UNL     1     113.609  50.379  18.305  1.00  0.00     0.108 A
HETATM   34  N4  UNL     1     113.380  49.373  19.200  1.00  0.00    -0.355 N
HETATM   35  C8  UNL     1     114.347  48.917  20.155  1.00  0.00     0.156 C
HETATM   36  C9  UNL     1     112.137  48.899  19.036  1.00  0.00     0.107 A
HETATM   37  C10 UNL     1     111.388  47.916  19.642  1.00  0.00     0.144 A
HETATM   38  C12 UNL     1     111.574  49.653  17.989  1.00  0.00     0.095 A
HETATM   39  N6  UNL     1     110.118  47.751  19.156  1.00  0.00    -0.175 N
HETATM   40  C11 UNL     1     109.597  48.471  18.164  1.00  0.00     0.678 A
ATOM     41  H6  UNL     1     109.534  47.031  19.581  1.00  0.00     0.186 HD
HETATM   42  N8  UNL     1     110.313  49.422  17.573  1.00  0.00    -0.189 N
ATOM     43  H8  UNL     1     109.912  49.972  16.813  1.00  0.00     0.184 HD
BRANCH  37  44
HETATM   44  N5  UNL     1     111.817  47.198  20.586  1.00  0.00    -0.383 N
ATOM     45  H52 UNL     1     112.795  46.911  20.622  1.00  0.00     0.157 HD
ATOM     46  H51 UNL     1     111.231  46.866  21.352  1.00  0.00     0.157 HD
ENDBRANCH  37  44
BRANCH  40  47
HETATM   47  N7  UNL     1     108.374  48.272  17.734  1.00  0.00    -0.234 N
ATOM     48  H72 UNL     1     108.252  47.719  16.886  1.00  0.00     0.174 HD
ATOM     49  H71 UNL     1     107.564  48.654  18.223  1.00  0.00     0.174 HD
ENDBRANCH  40  47
ENDBRANCH   6  32
TORSDOF 12
ENDMDL