MODEL 1
REMARK VINA RESULT: -6.707128852      0.000      0.000
REMARK  8 active torsions:
REMARK  status: ('A' for Active; 'I' for Inactive)
REMARK    1  A    between atoms: S1_2  and  C2_3
REMARK    2  A    between atoms: N3_9  and  C4_11
REMARK    3  A    between atoms: C5_13  and  C6_14
REMARK    4  A    between atoms: C9_22  and  C10_23
REMARK    5  A    between atoms: C10_23  and  N8_24
REMARK    6  A    between atoms: N8_24  and  N9_26
REMARK       I    between atoms: N9_26  and  C11_28
REMARK       I    between atoms: C11_28  and  N10_30
REMARK    7  A    between atoms: N10_30  and  N11_32
REMARK    8  A    between atoms: N11_32  and  O3_34
ROOT
HETATM    1  C6  UNL     1     113.677  55.152  13.853  1.00  0.00     0.122 C
HETATM    2  N4  UNL     1     114.115  55.910  12.953  1.00  0.00    -0.304 N
ATOM      3  H4  UNL     1     114.233  55.481  12.035  1.00  0.00     0.177 HD
HETATM    4  C7  UNL     1     114.456  57.239  13.034  1.00  0.00     0.181 C
HETATM    5  N5  UNL     1     114.746  58.345  13.077  1.00  0.00    -0.172 NA
ENDROOT
BRANCH   1   6
HETATM    6  C5  UNL     1     113.451  55.650  15.241  1.00  0.00     0.271 C
HETATM    7  O1  UNL     1     112.185  56.123  15.450  1.00  0.00    -0.336 OA
HETATM    8  C4  UNL     1     111.280  55.162  15.790  1.00  0.00     0.271 C
HETATM    9  C12 UNL     1     111.726  54.379  16.980  1.00  0.00     0.325 C
HETATM   10  N7  UNL     1     113.091  54.770  17.364  1.00  0.00    -0.196 NA
HETATM   11  N12 UNL     1     112.023  52.981  16.582  1.00  0.00    -0.046 N
HETATM   12  N6  UNL     1     113.838  54.689  16.215  1.00  0.00    -0.125 NA
HETATM   13  C8  UNL     1     113.437  53.667  18.242  1.00  0.00     0.147 C
HETATM   14  C9  UNL     1     112.492  52.524  17.866  1.00  0.00     0.221 C
ATOM     15 2H12 UNL     1     112.649  52.849  15.787  1.00  0.00     0.279 HD
ATOM     16 1H12 UNL     1     111.265  52.451  16.151  1.00  0.00     0.279 HD
BRANCH   8  17
HETATM   17  N3  UNL     1     110.897  54.254  14.764  1.00  0.00    -0.340 N
HETATM   18  C3  UNL     1     110.001  54.469  13.874  1.00  0.00     0.163 A
HETATM   19  N2  UNL     1     109.548  53.741  12.877  1.00  0.00    -0.278 N
HETATM   20  S2  UNL     1     109.057  55.892  13.724  1.00  0.00    -0.027 SA
HETATM   21  N1  UNL     1     108.627  54.209  12.127  1.00  0.00    -0.286 N
ATOM     22  H2  UNL     1     109.929  52.811  12.705  1.00  0.00     0.189 HD
HETATM   23  C2  UNL     1     108.135  55.414  12.349  1.00  0.00     0.129 A
ATOM     24  H1  UNL     1     108.270  53.649  11.353  1.00  0.00     0.188 HD
ATOM     25  H3  UNL     1     111.377  53.355  14.734  1.00  0.00     0.164 HD
BRANCH  23  26
HETATM   26  S1  UNL     1     106.854  56.315  11.447  1.00  0.00    -0.108 SA
HETATM   27  C1  UNL     1     106.635  57.872  12.394  1.00  0.00     0.097 C
ENDBRANCH  23  26
ENDBRANCH   8  17
BRANCH  14  28
HETATM   28  C10 UNL     1     113.205  51.204  17.907  1.00  0.00     0.173 C
BRANCH  28  29
HETATM   29  N8  UNL     1     112.577  50.340  16.949  1.00  0.00    -0.330 N
ATOM     30  H8  UNL     1     112.753  50.452  15.950  1.00  0.00     0.180 HD
BRANCH  29  31
HETATM   31  N9  UNL     1     111.744  49.374  17.402  1.00  0.00    -0.255 N
HETATM   32  C11 UNL     1     110.347  49.509  17.287  1.00  0.00     0.354 C
HETATM   33  O2  UNL     1     109.845  50.536  16.743  1.00  0.00    -0.244 OA
HETATM   34  N10 UNL     1     109.497  48.500  17.783  1.00  0.00    -0.231 N
ATOM     35  H10 UNL     1     109.908  47.676  18.220  1.00  0.00     0.193 HD
ATOM     36  H9  UNL     1     112.134  48.536  17.833  1.00  0.00     0.191 HD
BRANCH  34  37
HETATM   37  N11 UNL     1     108.113  48.599  17.692  1.00  0.00    -0.206 N
ATOM     38  H11 UNL     1     107.532  48.880  18.481  1.00  0.00     0.215 HD
BRANCH  37  39
HETATM   39  O3  UNL     1     107.601  48.300  16.499  1.00  0.00    -0.274 OA
ATOM     40  H3  UNL     1     107.988  48.763  15.766  1.00  0.00     0.246 HD
ENDBRANCH  37  39
ENDBRANCH  34  37
ENDBRANCH  29  31
ENDBRANCH  28  29
ENDBRANCH  14  28
ENDBRANCH   1   6
TORSDOF 8
ENDMDL