MODEL 3
REMARK VINA RESULT: -6.134218073      4.296      5.996
REMARK  14 active torsions:
REMARK  status: ('A' for Active; 'I' for Inactive)
REMARK    1  A    between atoms: C2_2  and  O1_5
REMARK    2  A    between atoms: O1_5  and  C5_6
REMARK    3  A    between atoms: C5_6  and  O3_8
REMARK    4  A    between atoms: O3_8  and  N1_9
REMARK    5  A    between atoms: N1_9  and  C6_11
REMARK    6  A    between atoms: C7_12  and  C8_13
REMARK    7  A    between atoms: C8_13  and  O4_14
REMARK    8  A    between atoms: C8_13  and  C9_16
REMARK    9  A    between atoms: C9_16  and  O5_17
REMARK   10  A    between atoms: C9_16  and  C10_19
REMARK   11  A    between atoms: C10_19  and  O6_20
REMARK   12  A    between atoms: C10_19  and  O7_22
REMARK   13  A    between atoms: C13_30  and  O9_32
REMARK   14  A    between atoms: N4_34  and  O10_35
ROOT
HETATM    1  C6  UNL     1     112.718  51.289  17.419  1.00  0.00     0.149 A
HETATM    2  C7  UNL     1     112.653  50.048  18.108  1.00  0.00     0.087 A
HETATM    3  C11 UNL     1     113.763  49.741  18.846  1.00  0.00     0.260 A
HETATM    4  O8  UNL     1     113.858  48.701  19.508  1.00  0.00    -0.267 OA
HETATM    5  N2  UNL     1     114.840  50.588  18.888  1.00  0.00    -0.294 N
ATOM      6  H2  UNL     1     115.650  50.325  19.450  1.00  0.00     0.172 HD
HETATM    7  C12 UNL     1     114.866  51.738  18.226  1.00  0.00     0.191 A
HETATM    8  N3  UNL     1     113.792  52.091  17.486  1.00  0.00    -0.249 N
HETATM    9  C13 UNL     1     113.834  53.345  16.789  1.00  0.00     0.241 C
HETATM   10  C14 UNL     1     112.901  54.306  17.548  1.00  0.00     0.100 C
HETATM   11  N4  UNL     1     115.085  53.979  16.636  1.00  0.00    -0.224 N
HETATM   12  C15 UNL     1     116.267  53.256  16.930  1.00  0.00     0.279 C
HETATM   13  N5  UNL     1     116.015  52.587  18.224  1.00  0.00    -0.344 N
ATOM     14  H5  UNL     1     116.609  52.721  19.043  1.00  0.00     0.164 HD
ENDROOT
BRANCH   2  15
HETATM   15  C8  UNL     1     111.487  49.184  17.887  1.00  0.00     0.194 C
BRANCH  15  16
HETATM   16  O4  UNL     1     111.963  47.873  17.460  1.00  0.00    -0.388 OA
ATOM     17  H4  UNL     1     111.529  47.650  16.644  1.00  0.00     0.210 HD
ENDBRANCH  15  16
BRANCH  15  18
HETATM   18  C9  UNL     1     110.475  49.001  18.926  1.00  0.00     0.206 C
BRANCH  18  19
HETATM   19  O5  UNL     1     110.608  48.041  19.883  1.00  0.00    -0.388 OA
ATOM     20  H5  UNL     1     110.684  48.268  20.802  1.00  0.00     0.210 HD
ENDBRANCH  18  19
BRANCH  18  21
HETATM   21  C10 UNL     1     109.121  48.807  18.182  1.00  0.00     0.285 C
BRANCH  21  22
HETATM   22  O6  UNL     1     109.086  47.483  17.771  1.00  0.00    -0.369 OA
ATOM     23  H6  UNL     1     108.897  47.496  16.841  1.00  0.00     0.212 HD
ENDBRANCH  21  22
BRANCH  21  24
HETATM   24  O7  UNL     1     109.231  49.592  17.029  1.00  0.00    -0.369 OA
ATOM     25  H7  UNL     1     110.019  49.282  16.598  1.00  0.00     0.212 HD
ENDBRANCH  21  24
ENDBRANCH  18  21
ENDBRANCH  15  18
ENDBRANCH   2  15
BRANCH   1  26
HETATM   26  N1  UNL     1     111.501  51.641  16.706  1.00  0.00    -0.238 N
ATOM     27  H1  UNL     1     110.761  52.178  17.158  1.00  0.00     0.196 HD
BRANCH  26  28
HETATM   28  O3  UNL     1     111.383  51.233  15.426  1.00  0.00    -0.173 OA
BRANCH  28  29
HETATM   29  C5  UNL     1     110.511  51.614  14.463  1.00  0.00     0.429 C
HETATM   30  O2  UNL     1     109.458  50.960  14.334  1.00  0.00    -0.227 OA
BRANCH  29  31
HETATM   31  O1  UNL     1     110.762  52.701  13.628  1.00  0.00    -0.287 OA
BRANCH  31  32
HETATM   32  C2  UNL     1     110.251  53.987  13.853  1.00  0.00     0.062 C
HETATM   33  C1  UNL     1     111.282  55.035  13.451  1.00  0.00     0.046 C
HETATM   34  C3  UNL     1     109.855  54.247  15.285  1.00  0.00     0.046 C
HETATM   35  C4  UNL     1     109.069  54.185  12.896  1.00  0.00     0.046 C
ENDBRANCH  31  32
ENDBRANCH  29  31
ENDBRANCH  28  29
ENDBRANCH  26  28
ENDBRANCH   1  26
BRANCH   9  36
HETATM   36  O9  UNL     1     113.330  53.177  15.473  1.00  0.00    -0.352 OA
ATOM     37  H9  UNL     1     113.976  52.733  14.937  1.00  0.00     0.214 HD
ENDBRANCH   9  36
BRANCH  11  38
HETATM   38  O10 UNL     1     115.172  55.257  17.006  1.00  0.00    -0.286 OA
ATOM     39  H10 UNL     1     115.767  55.814  16.517  1.00  0.00     0.244 HD
ENDBRANCH  11  38
TORSDOF 14
ENDMDL