MODEL 4
REMARK VINA RESULT: -7.855126627      2.003     10.143
REMARK  12 active torsions:
REMARK  status: ('A' for Active; 'I' for Inactive)
REMARK    1  A    between atoms: N1_1  and  C1_4
REMARK    2  A    between atoms: C2_7  and  N3_8
REMARK    3  A    between atoms: N3_8  and  C3_10
REMARK    4  A    between atoms: C4_16  and  O2_17
REMARK    5  A    between atoms: N9_26  and  C6_27
REMARK    6  A    between atoms: C6_27  and  C7_28
REMARK    7  A    between atoms: C9_30  and  N10_31
REMARK       I    between atoms: N10_31  and  C10_33
REMARK    8  A    between atoms: C10_33  and  C11_35
REMARK    9  A    between atoms: C11_35  and  C12_36
REMARK   10  A    between atoms: C12_36  and  O4_37
REMARK   11  A    between atoms: C12_36  and  O5_39
REMARK   12  A    between atoms: N12_43  and  O6_44
ROOT
HETATM    1  C1  UNL     1     112.475  50.858  16.898  1.00  0.00     0.147 A
HETATM    2  N2  UNL     1     112.979  50.249  17.984  1.00  0.00    -0.174 N
ATOM      3  H2  UNL     1     113.967  50.378  18.200  1.00  0.00     0.186 HD
HETATM    4  C2  UNL     1     112.235  49.474  18.801  1.00  0.00     0.687 A
HETATM    5  N6  UNL     1     110.939  49.284  18.550  1.00  0.00    -0.172 N
ATOM      6  H6  UNL     1     110.381  48.697  19.170  1.00  0.00     0.186 HD
HETATM    7  C5  UNL     1     110.369  49.856  17.492  1.00  0.00     0.169 A
HETATM    8  N7  UNL     1     109.101  49.839  17.017  1.00  0.00    -0.268 N
ATOM      9  H7  UNL     1     108.310  49.340  17.422  1.00  0.00     0.190 HD
HETATM   10  N8  UNL     1     109.082  50.574  15.953  1.00  0.00    -0.238 N
ATOM     11  H8  UNL     1     108.254  50.746  15.383  1.00  0.00     0.208 HD
HETATM   12  N9  UNL     1     110.307  51.084  15.702  1.00  0.00    -0.265 N
HETATM   13  C13 UNL     1     111.121  50.659  16.634  1.00  0.00     0.142 A
ENDROOT
BRANCH  12  14
HETATM   14  C6  UNL     1     110.518  51.894  14.558  1.00  0.00     0.212 C
BRANCH  14  15
HETATM   15  C7  UNL     1     110.259  53.339  14.738  1.00  0.00     0.082 A
HETATM   16  C8  UNL     1     109.562  54.036  13.739  1.00  0.00     0.081 A
HETATM   17  C9  UNL     1     109.421  55.333  14.121  1.00  0.00     0.126 A
HETATM   18  N11 UNL     1     110.017  55.431  15.324  1.00  0.00    -0.259 N
HETATM   19  N12 UNL     1     110.508  54.229  15.670  1.00  0.00    -0.164 N
ATOM     20  H11 UNL     1     110.084  56.281  15.883  1.00  0.00     0.191 HD
BRANCH  17  21
HETATM   21  N10 UNL     1     108.771  56.362  13.378  1.00  0.00    -0.312 N
HETATM   22  C10 UNL     1     108.689  57.681  13.864  1.00  0.00     0.227 C
HETATM   23  O3  UNL     1     109.201  57.953  14.971  1.00  0.00    -0.273 OA
ATOM     24  H10 UNL     1     108.355  56.138  12.474  1.00  0.00     0.170 HD
BRANCH  22  25
HETATM   25  C11 UNL     1     108.013  58.733  13.085  1.00  0.00     0.163 C
BRANCH  25  26
HETATM   26  C12 UNL     1     106.554  58.365  12.941  1.00  0.00     0.262 C
BRANCH  26  27
HETATM   27  O4  UNL     1     105.848  59.535  12.711  1.00  0.00    -0.371 OA
ATOM     28  H4  UNL     1     105.256  59.661  13.443  1.00  0.00     0.212 HD
ENDBRANCH  26  27
BRANCH  26  29
HETATM   29  O5  UNL     1     106.459  57.462  11.892  1.00  0.00    -0.371 OA
ATOM     30  H5  UNL     1     105.840  57.821  11.266  1.00  0.00     0.212 HD
ENDBRANCH  26  29
ENDBRANCH  25  26
ENDBRANCH  22  25
ENDBRANCH  17  21
BRANCH  19  31
HETATM   31  O6  UNL     1     111.158  53.998  16.849  1.00  0.00    -0.268 OA
ATOM     32  H6  UNL     1     112.094  53.881  16.958  1.00  0.00     0.247 HD
ENDBRANCH  19  31
ENDBRANCH  14  15
ENDBRANCH  12  14
BRANCH   1  33
HETATM   33  N1  UNL     1     113.178  51.607  16.132  1.00  0.00    -0.383 N
ATOM     34  H12 UNL     1     114.193  51.503  16.103  1.00  0.00     0.157 HD
ATOM     35  H11 UNL     1     112.769  52.314  15.522  1.00  0.00     0.157 HD
ENDBRANCH   1  33
BRANCH   4  36
HETATM   36  N3  UNL     1     112.808  48.854  19.930  1.00  0.00    -0.170 N
ATOM     37  H3  UNL     1     113.766  48.510  19.865  1.00  0.00     0.186 HD
BRANCH  36  38
HETATM   38  C3  UNL     1     112.177  48.707  21.026  1.00  0.00     0.195 A
HETATM   39  N4  UNL     1     111.379  49.612  21.622  1.00  0.00    -0.221 N
HETATM   40  O1  UNL     1     110.915  49.102  22.721  1.00  0.00    -0.153 OA
ATOM     41  H4  UNL     1     111.173  50.546  21.268  1.00  0.00     0.198 HD
HETATM   42  N5  UNL     1     111.345  47.905  22.912  1.00  0.00    -0.216 N
HETATM   43  C4  UNL     1     112.151  47.604  21.866  1.00  0.00     0.209 A
ATOM     44  H5  UNL     1     111.120  47.298  23.701  1.00  0.00     0.199 HD
BRANCH  43  45
HETATM   45  O2  UNL     1     112.814  46.410  21.689  1.00  0.00    -0.342 OA
ATOM     46  H2  UNL     1     113.740  46.244  21.824  1.00  0.00     0.219 HD
ENDBRANCH  43  45
ENDBRANCH  36  38
ENDBRANCH   4  36
TORSDOF 12
ENDMDL