MODEL 2
REMARK VINA RESULT: -5.261265872      2.422      3.950
REMARK  3 active torsions:
REMARK  status: ('A' for Active; 'I' for Inactive)
REMARK    1  A    between atoms: O1_1  and  C1_3
REMARK    2  A    between atoms: C1_3  and  C2_4
REMARK    3  A    between atoms: C7_12  and  O5_13
ROOT
HETATM    1  C2  UNL     1      -4.401   3.253  13.100  1.00  0.00     0.176 C
HETATM    2  O2  UNL     1      -4.939   3.536  11.872  1.00  0.00    -0.378 OA
HETATM    3  C3  UNL     1      -4.418   2.708  10.863  1.00  0.00     0.203 C
HETATM    4  C4  UNL     1      -4.796   1.317  11.195  1.00  0.00     0.179 C
HETATM    5  O3  UNL     1      -4.316   0.323  10.396  1.00  0.00    -0.357 OA
HETATM    6  C5  UNL     1      -3.981  -0.766  11.234  1.00  0.00     0.339 C
HETATM    7  O4  UNL     1      -4.361  -0.376  12.540  1.00  0.00    -0.356 OA
HETATM    8  C6  UNL     1      -4.072   0.959  12.508  1.00  0.00     0.186 C
HETATM    9  C7  UNL     1      -4.682   1.812  13.556  1.00  0.00     0.180 C
ENDROOT
BRANCH   1  10
HETATM   10  C1  UNL     1      -4.814   4.231  14.137  1.00  0.00     0.198 C
BRANCH  10  11
HETATM   11  O1  UNL     1      -6.089   3.892  14.580  1.00  0.00    -0.398 OA
ATOM     12  H1  UNL     1      -6.028   3.608  15.484  1.00  0.00     0.209 HD
ENDBRANCH  10  11
ENDBRANCH   1  10
BRANCH   9  13
HETATM   13  O5  UNL     1      -4.119   1.674  14.807  1.00  0.00    -0.390 OA
ATOM     14  H5  UNL     1      -3.714   0.815  14.831  1.00  0.00     0.210 HD
ENDBRANCH   9  13
TORSDOF 3
ENDMDL