MODEL 1
REMARK VINA RESULT: -5.415489046      0.000      0.000
REMARK  2 active torsions:
REMARK  status: ('A' for Active; 'I' for Inactive)
REMARK    1  A    between atoms: N1_2  and  C3_4
REMARK    2  A    between atoms: C4_5  and  O1_6
ROOT
HETATM    1  C3  UNL     1      -4.422   2.375  13.318  1.00  0.00     0.344 C
HETATM    2  C4  UNL     1      -3.934   1.030  12.931  1.00  0.00     0.206 C
HETATM    3  C5  UNL     1      -4.048   1.100  11.404  1.00  0.00     0.220 C
HETATM    4  N2  UNL     1      -5.325   1.787  11.286  1.00  0.00    -0.135 NA
HETATM    5  N3  UNL     1      -5.144   2.867  12.154  1.00  0.00    -0.196 NA
HETATM    6  C6  UNL     1      -4.403   3.863  11.410  1.00  0.00     0.131 C
HETATM    7  C7  UNL     1      -3.401   3.228  10.464  1.00  0.00     0.134 C
HETATM    8  N4  UNL     1      -2.988   1.980  10.999  1.00  0.00    -0.395 N
HETATM    9  C8  UNL     1      -1.908   1.339  10.323  1.00  0.00     0.144 C
ENDROOT
BRANCH   1  10
HETATM   10  N1  UNL     1      -5.170   2.457  14.520  1.00  0.00     0.102 N
HETATM   11  C1  UNL     1      -6.138   3.491  14.616  1.00  0.00     0.311 C
HETATM   12  C2  UNL     1      -4.341   2.407  15.691  1.00  0.00     0.311 C
ENDBRANCH   1  10
BRANCH   2  13
HETATM   13  O1  UNL     1      -4.660  -0.034  13.362  1.00  0.00    -0.389 OA
ATOM     14  H1  UNL     1      -4.174  -0.797  13.653  1.00  0.00     0.210 HD
ENDBRANCH   2  13
TORSDOF 2
ENDMDL