MODEL 4
REMARK VINA RESULT: -4.860506046      1.125      2.918
REMARK  3 active torsions:
REMARK  status: ('A' for Active; 'I' for Inactive)
REMARK    1  A    between atoms: C5_7  and  O1_8
REMARK    2  A    between atoms: C6_10  and  C7_11
REMARK    3  A    between atoms: C7_11  and  O2_12
ROOT
HETATM    1  C1  UNL     1      -6.243   5.239  15.700  1.00  0.00     0.315 C
HETATM    2  N1  UNL     1      -6.040   4.164  14.783  1.00  0.00     0.146 N
HETATM    3  C2  UNL     1      -5.388   4.453  13.548  1.00  0.00     0.547 A
HETATM    4  N2  UNL     1      -4.329   3.507  13.927  1.00  0.00     0.151 N
HETATM    5  C3  UNL     1      -4.023   2.500  13.017  1.00  0.00     0.280 C
HETATM    6  C4  UNL     1      -4.313   1.096  13.375  1.00  0.00     0.062 C
HETATM    7  C5  UNL     1      -4.475   0.872  14.874  1.00  0.00     0.130 C
HETATM    8  C6  UNL     1      -5.534   1.851  15.294  1.00  0.00     0.102 C
HETATM    9  C8  UNL     1      -4.996   3.225  15.119  1.00  0.00     0.468 A
ENDROOT
BRANCH   8  10
HETATM   10  C7  UNL     1      -6.025   1.623  16.697  1.00  0.00     0.175 C
BRANCH  10  11
HETATM   11  O2  UNL     1      -6.763   0.449  16.816  1.00  0.00    -0.400 OA
ATOM     12  H2  UNL     1      -7.659   0.554  16.518  1.00  0.00     0.209 HD
ENDBRANCH  10  11
ENDBRANCH   8  10
BRANCH   7  13
HETATM   13  O1  UNL     1      -4.802  -0.436  15.130  1.00  0.00    -0.395 OA
ATOM     14  H1  UNL     1      -5.731  -0.579  14.994  1.00  0.00     0.210 HD
ENDBRANCH   7  13
TORSDOF 3
ENDMDL