MODEL 2
REMARK VINA RESULT: -5.979018901      1.038      1.836
REMARK  3 active torsions:
REMARK  status: ('A' for Active; 'I' for Inactive)
REMARK    1  A    between atoms: O1_1  and  C1_3
REMARK    2  A    between atoms: C4_7  and  N1_8
REMARK    3  A    between atoms: C7_12  and  O4_13
ROOT
HETATM    1  C1  UNL     1      -4.090   4.008  15.186  1.00  0.00     0.179 C
HETATM    2  C2  UNL     1      -4.502   5.259  14.423  1.00  0.00     0.062 C
HETATM    3  C3  UNL     1      -5.952   4.973  14.105  1.00  0.00     0.173 C
HETATM    4  O2  UNL     1      -6.328   3.959  14.987  1.00  0.00    -0.355 OA
HETATM    5  C4  UNL     1      -5.230   3.064  14.992  1.00  0.00     0.394 C
ENDROOT
BRANCH   5   6
HETATM    6  N1  UNL     1      -5.403   2.202  16.108  1.00  0.00     0.176 N
HETATM    7  C5  UNL     1      -6.817   1.940  16.379  1.00  0.00     0.308 C
HETATM    8  C6  UNL     1      -6.644   0.772  17.362  1.00  0.00     0.203 C
HETATM    9  O3  UNL     1      -5.480   0.136  16.979  1.00  0.00    -0.335 OA
HETATM   10  C7  UNL     1      -4.920   0.859  15.926  1.00  0.00     0.509 C
BRANCH  10  11
HETATM   11  O4  UNL     1      -3.530   0.802  16.127  1.00  0.00    -0.347 OA
ATOM     12  H4  UNL     1      -3.176  -0.010  15.784  1.00  0.00     0.214 HD
ENDBRANCH  10  11
ENDBRANCH   5   6
BRANCH   1  13
HETATM   13  O1  UNL     1      -2.877   3.529  14.708  1.00  0.00    -0.391 OA
ATOM     14  H1  UNL     1      -2.323   3.254  15.429  1.00  0.00     0.210 HD
ENDBRANCH   1  13
TORSDOF 3
ENDMDL