MODEL 3
REMARK VINA RESULT: -5.607543316      2.012      3.145
REMARK  3 active torsions:
REMARK  status: ('A' for Active; 'I' for Inactive)
REMARK    1  A    between atoms: O1_1  and  C1_3
REMARK    2  A    between atoms: C1_3  and  C2_4
REMARK    3  A    between atoms: C7_11  and  O4_12
ROOT
HETATM    1  C2  UNL     1      -4.460   0.677  12.732  1.00  0.00     0.153 C
HETATM    2  C3  UNL     1      -4.650   2.131  12.944  1.00  0.00     0.108 C
HETATM    3  C4  UNL     1      -4.629   2.305  14.439  1.00  0.00     0.217 C
HETATM    4  O2  UNL     1      -3.513   2.975  14.900  1.00  0.00    -0.349 OA
HETATM    5  C5  UNL     1      -3.806   4.323  14.851  1.00  0.00     0.198 C
HETATM    6  C6  UNL     1      -5.278   4.361  14.538  1.00  0.00     0.198 C
HETATM    7  O3  UNL     1      -5.698   3.053  14.849  1.00  0.00    -0.349 OA
HETATM    8  C7  UNL     1      -4.631   0.892  14.950  1.00  0.00     0.320 C
HETATM    9  O5  UNL     1      -4.143   0.085  13.937  1.00  0.00    -0.348 OA
ENDROOT
BRANCH   8  10
HETATM   10  O4  UNL     1      -3.752   0.785  16.030  1.00  0.00    -0.366 OA
ATOM     11  H4  UNL     1      -3.536   1.652  16.353  1.00  0.00     0.212 HD
ENDBRANCH   8  10
BRANCH   1  12
HETATM   12  C1  UNL     1      -3.339   0.415  11.719  1.00  0.00     0.196 C
BRANCH  12  13
HETATM   13  O1  UNL     1      -2.364   1.406  11.805  1.00  0.00    -0.398 OA
ATOM     14  H1  UNL     1      -2.689   2.149  12.300  1.00  0.00     0.209 HD
ENDBRANCH  12  13
ENDBRANCH   1  12
TORSDOF 3
ENDMDL