MODEL 1
REMARK VINA RESULT: -5.850109762      0.000      0.000
REMARK  3 active torsions:
REMARK  status: ('A' for Active; 'I' for Inactive)
REMARK    1  A    between atoms: C2_2  and  O1_3
REMARK    2  A    between atoms: C2_2  and  C3_5
REMARK    3  A    between atoms: C5_9  and  O4_10
ROOT
HETATM    1  C3  UNL     1      -5.763   2.035  15.275  1.00  0.00     0.186 C
HETATM    2  O2  UNL     1      -6.112   3.345  14.956  1.00  0.00    -0.348 OA
HETATM    3  C4  UNL     1      -5.030   3.449  14.051  1.00  0.00     0.295 C
HETATM    4  O3  UNL     1      -5.477   3.290  12.782  1.00  0.00    -0.327 OA
HETATM    5  C5  UNL     1      -4.692   2.508  11.963  1.00  0.00     0.283 C
HETATM    6  C6  UNL     1      -4.473   1.185  12.669  1.00  0.00     0.229 C
HETATM    7  O5  UNL     1      -3.874   1.332  13.886  1.00  0.00    -0.373 OA
HETATM    8  C7  UNL     1      -4.406   2.284  14.706  1.00  0.00     0.208 C
ENDROOT
BRANCH   1   9
HETATM    9  C2  UNL     1      -5.868   1.761  16.730  1.00  0.00     0.145 C
HETATM   10  C1  UNL     1      -7.156   1.140  17.159  1.00  0.00     0.042 C
BRANCH   9  11
HETATM   11  O1  UNL     1      -4.845   0.841  17.060  1.00  0.00    -0.393 OA
ATOM     12  H1  UNL     1      -4.729   0.279  16.302  1.00  0.00     0.210 HD
ENDBRANCH   9  11
ENDBRANCH   1   9
BRANCH   5  13
HETATM   13  O4  UNL     1      -5.440   2.241  10.806  1.00  0.00    -0.369 OA
ATOM     14  H4  UNL     1      -5.217   2.908  10.168  1.00  0.00     0.212 HD
ENDBRANCH   5  13
TORSDOF 3
ENDMDL