MODEL 1
REMARK VINA RESULT: -5.010979729      0.000      0.000
REMARK  3 active torsions:
REMARK  status: ('A' for Active; 'I' for Inactive)
REMARK    1  A    between atoms: C2_3  and  O1_4
REMARK    2  A    between atoms: C3_6  and  C4_7
REMARK    3  A    between atoms: C4_7  and  O2_8
ROOT
HETATM    1  C1  UNL     1      -2.575   4.134  12.402  1.00  0.00     0.320 C
HETATM    2  N1  UNL     1      -3.253   2.951  11.964  1.00  0.00     0.177 N
HETATM    3  C2  UNL     1      -4.370   3.187  11.037  1.00  0.00     0.376 C
HETATM    4  C3  UNL     1      -5.012   1.945  11.672  1.00  0.00     0.165 C
HETATM    5  C5  UNL     1      -4.265   2.450  12.895  1.00  0.00     0.386 C
HETATM    6  O3  UNL     1      -4.862   3.470  13.584  1.00  0.00    -0.328 OA
HETATM    7  C6  UNL     1      -5.447   2.908  14.714  1.00  0.00     0.199 C
HETATM    8  C7  UNL     1      -4.870   1.522  14.745  1.00  0.00     0.199 C
HETATM    9  O4  UNL     1      -3.845   1.496  13.776  1.00  0.00    -0.328 OA
ENDROOT
BRANCH   4  10
HETATM   10  C4  UNL     1      -4.468   0.669  11.126  1.00  0.00     0.180 C
BRANCH  10  11
HETATM   11  O2  UNL     1      -5.110   0.240   9.984  1.00  0.00    -0.400 OA
ATOM     12  H2  UNL     1      -4.650  -0.455   9.529  1.00  0.00     0.209 HD
ENDBRANCH  10  11
ENDBRANCH   4  10
BRANCH   3  13
HETATM   13  O1  UNL     1      -4.049   3.057   9.710  1.00  0.00    -0.367 OA
ATOM     14  H1  UNL     1      -3.949   2.161   9.413  1.00  0.00     0.212 HD
ENDBRANCH   3  13
TORSDOF 3
ENDMDL