MODEL 2
REMARK VINA RESULT: -5.222865306      1.551      3.134
REMARK  3 active torsions:
REMARK  status: ('A' for Active; 'I' for Inactive)
REMARK    1  A    between atoms: O1_2  and  C2_3
REMARK    2  A    between atoms: C5_7  and  O3_8
REMARK    3  A    between atoms: C6_11  and  O5_12
ROOT
HETATM    1  C2  UNL     1      -4.658   2.088  12.995  1.00  0.00     0.156 C
HETATM    2  C3  UNL     1      -3.741   3.266  12.966  1.00  0.00     0.200 C
HETATM    3  O2  UNL     1      -3.286   3.450  11.689  1.00  0.00    -0.378 OA
HETATM    4  C4  UNL     1      -3.636   2.398  10.907  1.00  0.00     0.188 C
HETATM    5  C5  UNL     1      -2.680   1.246  10.929  1.00  0.00     0.289 C
HETATM    6  O4  UNL     1      -3.324   0.185  11.564  1.00  0.00    -0.329 OA
HETATM    7  C6  UNL     1      -4.658   0.354  11.182  1.00  0.00     0.269 C
HETATM    8  C7  UNL     1      -4.885   1.798  11.534  1.00  0.00     0.106 C
ENDROOT
BRANCH   1   9
HETATM    9  O1  UNL     1      -4.121   1.028  13.682  1.00  0.00    -0.388 OA
HETATM   10  C1  UNL     1      -4.601   0.999  14.994  1.00  0.00     0.202 C
ENDBRANCH   1   9
BRANCH   7  11
HETATM   11  O5  UNL     1      -4.724   0.250   9.792  1.00  0.00    -0.371 OA
ATOM     12  H5  UNL     1      -5.040   1.078   9.451  1.00  0.00     0.212 HD
ENDBRANCH   7  11
BRANCH   5  13
HETATM   13  O3  UNL     1      -1.473   1.540  11.554  1.00  0.00    -0.368 OA
ATOM     14  H3  UNL     1      -0.955   0.770  11.757  1.00  0.00     0.212 HD
ENDBRANCH   5  13
TORSDOF 3
ENDMDL