MODEL 5
REMARK VINA RESULT: -5.191895745      1.903      4.152
REMARK  3 active torsions:
REMARK  status: ('A' for Active; 'I' for Inactive)
REMARK    1  A    between atoms: O1_1  and  C1_3
REMARK    2  A    between atoms: C1_3  and  O2_4
REMARK    3  A    between atoms: C1_3  and  C2_6
ROOT
HETATM    1  C2  UNL     1      -4.861   2.371  13.645  1.00  0.00     0.182 C
HETATM    2  C3  UNL     1      -5.272   3.222  14.835  1.00  0.00     0.101 C
HETATM    3  C4  UNL     1      -6.062   2.282  15.659  1.00  0.00     0.364 C
HETATM    4  O3  UNL     1      -6.655   2.768  16.782  1.00  0.00    -0.355 OA
HETATM    5  C5  UNL     1      -7.102   1.541  17.333  1.00  0.00     0.201 C
HETATM    6  C6  UNL     1      -5.935   0.575  17.092  1.00  0.00     0.304 C
HETATM    7  N1  UNL     1      -5.088   1.346  16.245  1.00  0.00     0.142 N
HETATM    8  C7  UNL     1      -4.440   0.677  15.194  1.00  0.00     0.444 C
HETATM    9  O4  UNL     1      -4.704   1.056  13.922  1.00  0.00    -0.352 OA
ENDROOT
BRANCH   1  10
HETATM   10  C1  UNL     1      -3.712   3.003  12.892  1.00  0.00     0.282 C
BRANCH  10  11
HETATM   11  O1  UNL     1      -2.847   3.675  13.753  1.00  0.00    -0.369 OA
ATOM     12  H1  UNL     1      -2.586   4.486  13.334  1.00  0.00     0.212 HD
ENDBRANCH  10  11
BRANCH  10  13
HETATM   13  O2  UNL     1      -3.001   1.981  12.279  1.00  0.00    -0.369 OA
ATOM     14  H2  UNL     1      -3.617   1.442  11.797  1.00  0.00     0.212 HD
ENDBRANCH  10  13
ENDBRANCH   1  10
TORSDOF 3
ENDMDL