MODEL 1
REMARK VINA RESULT: -6.302443487      0.000      0.000
REMARK  3 active torsions:
REMARK  status: ('A' for Active; 'I' for Inactive)
REMARK    1  A    between atoms: O1_1  and  C1_3
REMARK    2  A    between atoms: C1_3  and  C2_4
REMARK    3  A    between atoms: C7_12  and  O4_13
ROOT
HETATM    1  C2  UNL     1      -5.579   2.123  16.107  1.00  0.00     0.058 C
HETATM    2  C3  UNL     1      -5.868   3.300  15.173  1.00  0.00     0.130 C
HETATM    3  N1  UNL     1      -4.764   3.753  14.401  1.00  0.00    -0.192 NA
HETATM    4  C4  UNL     1      -4.825   3.632  12.953  1.00  0.00     0.147 C
HETATM    5  C5  UNL     1      -3.855   2.626  12.364  1.00  0.00     0.188 C
HETATM    6  O2  UNL     1      -3.741   1.412  13.108  1.00  0.00    -0.356 OA
HETATM    7  C6  UNL     1      -4.460   1.648  14.168  1.00  0.00     0.310 C
HETATM    8  O3  UNL     1      -3.817   2.821  14.663  1.00  0.00    -0.268 OA
HETATM    9  C7  UNL     1      -4.775   0.996  15.406  1.00  0.00     0.182 C
ENDROOT
BRANCH   1  10
HETATM   10  C1  UNL     1      -6.811   1.603  16.743  1.00  0.00     0.172 C
BRANCH  10  11
HETATM   11  O1  UNL     1      -6.968   0.243  16.685  1.00  0.00    -0.400 OA
ATOM     12  H1  UNL     1      -6.196  -0.264  16.906  1.00  0.00     0.209 HD
ENDBRANCH  10  11
ENDBRANCH   1  10
BRANCH   9  13
HETATM   13  O4  UNL     1      -3.742   0.560  16.200  1.00  0.00    -0.390 OA
ATOM     14  H4  UNL     1      -2.990   0.311  15.675  1.00  0.00     0.210 HD
ENDBRANCH   9  13
TORSDOF 3
ENDMDL