MODEL 2
REMARK VINA RESULT: -7.067039551      2.063      2.670
REMARK  9 active torsions:
REMARK  status: ('A' for Active; 'I' for Inactive)
REMARK    1  A    between atoms: C2_2  and  C3_3
REMARK    2  A    between atoms: C5_5  and  C6_6
REMARK    3  A    between atoms: C6_6  and  C7_7
REMARK    4  A    between atoms: C7_7  and  C8_8
REMARK    5  A    between atoms: C8_8  and  O1_9
REMARK    6  A    between atoms: C8_8  and  C9_11
REMARK    7  A    between atoms: C9_11  and  C10_12
REMARK    8  A    between atoms: C10_12  and  C11_13
REMARK    9  A    between atoms: C11_13  and  O2_14
ROOT
HETATM    1  C6  UNL     1      30.018  47.932  20.808  1.00  0.00     0.041 C
ENDROOT
BRANCH   1   2
HETATM    2  C5  UNL     1      28.813  47.648  21.579  1.00  0.00    -0.057 A
HETATM    3  C4  UNL     1      27.667  47.194  20.952  1.00  0.00     0.019 A
HETATM    4  C3  UNL     1      26.529  46.905  21.674  1.00  0.00    -0.031 A
HETATM    5  C15 UNL     1      26.534  47.072  23.050  1.00  0.00    -0.052 A
HETATM    6  C14 UNL     1      27.669  47.525  23.699  1.00  0.00     0.008 A
HETATM    7  C16 UNL     1      25.288  46.752  23.818  1.00  0.00     0.049 C
HETATM    8  C13 UNL     1      28.811  47.812  22.944  1.00  0.00     0.007 A
BRANCH   4   9
HETATM    9  C2  UNL     1      25.304  46.420  21.025  1.00  0.00     0.002 C
HETATM   10  C1  UNL     1      24.992  46.644  19.775  1.00  0.00     0.012 C
ENDBRANCH   4   9
ENDBRANCH   1   2
BRANCH   1  11
HETATM   11  C7  UNL     1      30.273  49.330  20.416  1.00  0.00     0.036 C
BRANCH  11  12
HETATM   12  C8  UNL     1      29.549  49.880  19.253  1.00  0.00     0.118 C
BRANCH  12  13
HETATM   13  O1  UNL     1      29.890  51.138  18.837  1.00  0.00    -0.396 OA
ATOM     14  H1  UNL     1      30.412  51.210  18.046  1.00  0.00     0.210 HD
ENDBRANCH  12  13
BRANCH  12  15
HETATM   15  C9  UNL     1      29.540  48.964  18.048  1.00  0.00     0.034 C
BRANCH  15  16
HETATM   16  C10 UNL     1      28.076  48.679  17.736  1.00  0.00     0.029 C
BRANCH  16  17
HETATM   17  C11 UNL     1      27.851  48.356  16.302  1.00  0.00     0.167 C
BRANCH  17  18
HETATM   18  O2  UNL     1      26.893  49.116  15.695  1.00  0.00    -0.396 OA
HETATM   19  C12 UNL     1      25.791  48.342  15.386  1.00  0.00     0.201 C
ENDBRANCH  17  18
ENDBRANCH  16  17
ENDBRANCH  15  16
ENDBRANCH  12  15
ENDBRANCH  11  12
ENDBRANCH   1  11
TORSDOF 9
ENDMDL