MODEL 5
REMARK VINA RESULT: -6.914572666      4.060      6.305
REMARK  3 active torsions:
REMARK  status: ('A' for Active; 'I' for Inactive)
REMARK    1  A    between atoms: C2_7  and  C3_8
REMARK    2  A    between atoms: C3_8  and  N3_9
REMARK    3  A    between atoms: C12_22  and  O3_23
ROOT
HETATM    1  N1  UNL     1      33.295  47.447  17.407  1.00  0.00    -0.384 N
ATOM      2  H11 UNL     1      33.983  48.198  17.459  1.00  0.00     0.157 HD
ATOM      3  H12 UNL     1      33.754  46.710  16.871  1.00  0.00     0.157 HD
HETATM    4  C1  UNL     1      32.165  47.375  17.858  1.00  0.00     0.129 A
HETATM    5  N2  UNL     1      31.211  46.332  17.785  1.00  0.00    -0.329 N
ATOM      6  H2  UNL     1      31.332  45.434  17.318  1.00  0.00     0.168 HD
HETATM    7  C2  UNL     1      30.047  46.769  18.485  1.00  0.00     0.112 A
HETATM    8  N4  UNL     1      30.204  47.950  18.962  1.00  0.00    -0.340 N
ATOM      9  H4  UNL     1      29.504  48.462  19.498  1.00  0.00     0.167 HD
HETATM   10  C11 UNL     1      31.502  48.439  18.632  1.00  0.00     0.099 A
HETATM   11  C12 UNL     1      32.005  49.617  18.961  1.00  0.00     0.164 C
ENDROOT
BRANCH   7  12
HETATM   12  C3  UNL     1      28.839  45.921  18.611  1.00  0.00     0.348 C
BRANCH  12  13
HETATM   13  N3  UNL     1      27.800  46.576  19.393  1.00  0.00     0.098 N
HETATM   14  C4  UNL     1      26.574  45.892  19.146  1.00  0.00     0.275 C
HETATM   15  C5  UNL     1      25.437  46.270  20.033  1.00  0.00     0.065 C
HETATM   16  C6  UNL     1      25.934  46.227  21.477  1.00  0.00     0.153 C
HETATM   17  O1  UNL     1      24.952  46.582  22.375  1.00  0.00    -0.381 OA
HETATM   18  C9  UNL     1      27.065  47.193  21.574  1.00  0.00     0.178 C
HETATM   19  C7  UNL     1      25.496  46.411  23.649  1.00  0.00     0.194 C
HETATM   20  C8  UNL     1      26.724  47.206  23.881  1.00  0.00     0.194 C
HETATM   21  O2  UNL     1      27.429  47.598  22.802  1.00  0.00    -0.379 OA
HETATM   22  C10 UNL     1      28.220  46.592  20.761  1.00  0.00     0.307 C
ENDBRANCH  12  13
ENDBRANCH   7  12
BRANCH  11  23
HETATM   23  O3  UNL     1      31.220  50.490  19.699  1.00  0.00    -0.370 OA
ATOM     24  H3  UNL     1      30.277  50.463  19.582  1.00  0.00     0.216 HD
ENDBRANCH  11  23
TORSDOF 3
ENDMDL