MODEL 5
REMARK VINA RESULT: -6.226367833      1.093      2.859
REMARK  8 active torsions:
REMARK  status: ('A' for Active; 'I' for Inactive)
REMARK    1  A    between atoms: C2_2  and  C3_3
REMARK    2  A    between atoms: C3_3  and  C4_4
REMARK    3  A    between atoms: C4_4  and  C5_5
REMARK    4  A    between atoms: C5_5  and  C6_6
REMARK    5  A    between atoms: C6_6  and  C7_7
REMARK    6  A    between atoms: C7_7  and  C8_9
REMARK    7  A    between atoms: C10_11  and  C11_12
REMARK    8  A    between atoms: C13_14  and  O2_15
ROOT
HETATM    1  C8  UNL     1      29.124  48.748  19.107  1.00  0.00     0.016 A
HETATM    2  C9  UNL     1      28.168  48.435  18.120  1.00  0.00     0.025 A
HETATM    3  C10 UNL     1      27.222  47.444  18.274  1.00  0.00    -0.024 A
HETATM    4  C13 UNL     1      27.238  46.743  19.458  1.00  0.00     0.072 A
HETATM    5  C14 UNL     1      28.148  47.008  20.454  1.00  0.00     0.044 A
HETATM    6  C15 UNL     1      29.106  48.030  20.269  1.00  0.00    -0.045 A
HETATM    7  C16 UNL     1      30.049  48.260  21.364  1.00  0.00     0.049 C
ENDROOT
BRANCH   1   8
HETATM    8  C7  UNL     1      30.076  49.800  18.890  1.00  0.00     0.160 C
HETATM    9  O1  UNL     1      29.680  50.994  18.803  1.00  0.00    -0.292 OA
BRANCH   8  10
HETATM   10  C6  UNL     1      31.551  49.644  18.750  1.00  0.00     0.084 C
BRANCH  10  11
HETATM   11  C5  UNL     1      31.879  48.464  17.867  1.00  0.00     0.008 C
BRANCH  11  12
HETATM   12  C4  UNL     1      32.655  47.398  18.599  1.00  0.00     0.004 C
BRANCH  12  13
HETATM   13  C3  UNL     1      32.311  46.015  18.178  1.00  0.00     0.026 C
BRANCH  13  14
HETATM   14  C2  UNL     1      30.867  45.987  17.791  1.00  0.00    -0.037 C
HETATM   15  C1  UNL     1      30.103  44.911  17.883  1.00  0.00     0.007 C
ENDBRANCH  13  14
ENDBRANCH  12  13
ENDBRANCH  11  12
ENDBRANCH  10  11
ENDBRANCH   8  10
ENDBRANCH   1   8
BRANCH   3  16
HETATM   16  C11 UNL     1      26.235  47.150  17.201  1.00  0.00     0.037 C
HETATM   17  C12 UNL     1      25.263  48.289  16.996  1.00  0.00     0.010 C
ENDBRANCH   3  16
BRANCH   4  18
HETATM   18  O2  UNL     1      26.278  45.745  19.599  1.00  0.00    -0.360 OA
ATOM     19  H2  UNL     1      26.448  45.085  20.260  1.00  0.00     0.217 HD
ENDBRANCH   4  18
TORSDOF 8
ENDMDL