MODEL 5
REMARK VINA RESULT: -6.481798684      1.716      4.693
REMARK  7 active torsions:
REMARK  status: ('A' for Active; 'I' for Inactive)
REMARK    1  A    between atoms: C2_2  and  C3_3
REMARK    2  A    between atoms: C3_3  and  C4_4
REMARK    3  A    between atoms: C4_4  and  C5_5
REMARK    4  A    between atoms: C10_11  and  C11_12
REMARK    5  A    between atoms: C11_12  and  C12_14
REMARK    6  A    between atoms: C12_14  and  C13_15
REMARK    7  A    between atoms: C13_15  and  C15_17
ROOT
HETATM    1  C5  UNL     1      27.844  46.738  21.728  1.00  0.00    -0.012 A
HETATM    2  C6  UNL     1      28.237  47.258  22.921  1.00  0.00     0.056 A
HETATM    3  C7  UNL     1      29.588  47.717  23.300  1.00  0.00     0.077 C
HETATM    4  O1  UNL     1      27.213  47.313  23.786  1.00  0.00    -0.319 OA
HETATM    5  C8  UNL     1      26.141  46.849  23.221  1.00  0.00     0.064 A
HETATM    6  C9  UNL     1      24.772  46.734  23.848  1.00  0.00     0.077 C
HETATM    7  C10 UNL     1      26.461  46.469  21.928  1.00  0.00     0.048 A
ENDROOT
BRANCH   7   8
HETATM    8  C11 UNL     1      25.540  45.901  20.965  1.00  0.00     0.163 C
HETATM    9  O2  UNL     1      25.288  44.687  21.036  1.00  0.00    -0.292 OA
BRANCH   8  10
HETATM   10  C12 UNL     1      24.939  46.773  19.953  1.00  0.00     0.088 C
BRANCH  10  11
HETATM   11  C13 UNL     1      25.593  46.685  18.600  1.00  0.00    -0.012 C
HETATM   12  C14 UNL     1      25.611  47.960  17.829  1.00  0.00     0.010 C
BRANCH  11  13
HETATM   13  C15 UNL     1      25.108  45.500  17.790  1.00  0.00     0.000 C
HETATM   14  C16 UNL     1      24.669  46.004  16.418  1.00  0.00     0.005 C
ENDBRANCH  11  13
ENDBRANCH  10  11
ENDBRANCH   8  10
ENDBRANCH   7   8
BRANCH   1  15
HETATM   15  C4  UNL     1      28.507  46.467  20.464  1.00  0.00     0.042 C
BRANCH  15  16
HETATM   16  C3  UNL     1      28.950  47.557  19.599  1.00  0.00     0.004 C
BRANCH  16  17
HETATM   17  C2  UNL     1      30.346  48.084  19.692  1.00  0.00    -0.004 C
HETATM   18  C1  UNL     1      30.410  49.547  20.078  1.00  0.00     0.005 C
ENDBRANCH  16  17
ENDBRANCH  15  16
ENDBRANCH   1  15
TORSDOF 7
ENDMDL