MODEL 2
REMARK VINA RESULT: -6.596198826      1.077      1.237
REMARK  9 active torsions:
REMARK  status: ('A' for Active; 'I' for Inactive)
REMARK    1  A    between atoms: C2_2  and  C3_3
REMARK    2  A    between atoms: C3_3  and  C4_4
REMARK    3  A    between atoms: C4_4  and  C5_5
REMARK    4  A    between atoms: C5_5  and  C6_6
REMARK    5  A    between atoms: C10_10  and  O1_11
REMARK    6  A    between atoms: O1_11  and  C11_12
REMARK    7  A    between atoms: C14_15  and  C15_16
REMARK    8  A    between atoms: C15_16  and  C16_17
REMARK    9  A    between atoms: C16_17  and  O2_18
ROOT
HETATM    1  C6  UNL     1      29.410  48.910  19.685  1.00  0.00    -0.051 A
HETATM    2  C7  UNL     1      29.517  48.599  21.048  1.00  0.00     0.017 A
HETATM    3  C8  UNL     1      28.880  47.544  21.647  1.00  0.00    -0.028 A
HETATM    4  C9  UNL     1      29.048  47.284  23.102  1.00  0.00     0.051 C
HETATM    5  C10 UNL     1      28.092  46.748  20.854  1.00  0.00     0.075 A
HETATM    6  C13 UNL     1      27.969  47.029  19.516  1.00  0.00     0.045 A
HETATM    7  C14 UNL     1      28.618  48.106  18.912  1.00  0.00    -0.047 A
ENDROOT
BRANCH   1   8
HETATM    8  C5  UNL     1      30.222  50.037  19.168  1.00  0.00     0.039 C
BRANCH   8   9
HETATM    9  C4  UNL     1      31.700  49.757  19.203  1.00  0.00     0.005 C
BRANCH   9  10
HETATM   10  C3  UNL     1      32.074  48.802  18.114  1.00  0.00    -0.000 C
BRANCH  10  11
HETATM   11  C2  UNL     1      32.644  47.518  18.634  1.00  0.00    -0.005 C
HETATM   12  C1  UNL     1      31.865  46.337  18.121  1.00  0.00     0.005 C
ENDBRANCH  10  11
ENDBRANCH   9  10
ENDBRANCH   8   9
ENDBRANCH   1   8
BRANCH   7  13
HETATM   13  C15 UNL     1      28.393  48.416  17.489  1.00  0.00     0.065 C
BRANCH  13  14
HETATM   14  C16 UNL     1      26.947  48.436  17.075  1.00  0.00     0.168 C
BRANCH  14  15
HETATM   15  O2  UNL     1      26.820  49.103  15.836  1.00  0.00    -0.401 OA
ATOM     16  H2  UNL     1      26.266  49.867  15.943  1.00  0.00     0.209 HD
ENDBRANCH  14  15
ENDBRANCH  13  14
ENDBRANCH   7  13
BRANCH   5  17
HETATM   17  O1  UNL     1      27.428  45.681  21.375  1.00  0.00    -0.351 OA
BRANCH  17  18
HETATM   18  C11 UNL     1      27.522  44.335  21.103  1.00  0.00     0.171 C
HETATM   19  C12 UNL     1      26.379  43.705  20.398  1.00  0.00     0.034 C
ENDBRANCH  17  18
ENDBRANCH   5  17
TORSDOF 9
ENDMDL