MODEL 1
REMARK VINA RESULT: -6.563594643      0.000      0.000
REMARK  8 active torsions:
REMARK  status: ('A' for Active; 'I' for Inactive)
REMARK    1  A    between atoms: C2_2  and  C4_4
REMARK    2  A    between atoms: C4_4  and  C5_5
REMARK    3  A    between atoms: C5_5  and  C6_6
REMARK    4  A    between atoms: C5_5  and  C12_15
REMARK    5  A    between atoms: C6_6  and  C7_7
REMARK    6  A    between atoms: C10_10  and  C11_11
REMARK    7  A    between atoms: C11_11  and  O1_12
REMARK    8  A    between atoms: C12_15  and  C13_16
ROOT
HETATM    1  C5  UNL     1      27.907  47.091  20.241  1.00  0.00    -0.007 C
ENDROOT
BRANCH   1   2
HETATM    2  C4  UNL     1      28.224  47.930  21.477  1.00  0.00     0.009 C
BRANCH   2   3
HETATM    3  C2  UNL     1      28.537  47.124  22.697  1.00  0.00    -0.022 C
HETATM    4  C1  UNL     1      27.386  47.363  23.669  1.00  0.00     0.009 C
HETATM    5  C3  UNL     1      29.793  47.516  23.397  1.00  0.00     0.009 C
ENDBRANCH   2   3
ENDBRANCH   1   2
BRANCH   1   6
HETATM    6  C6  UNL     1      28.273  47.944  19.082  1.00  0.00     0.069 C
BRANCH   6   7
HETATM    7  C7  UNL     1      29.721  48.291  18.980  1.00  0.00     0.053 A
HETATM    8  C8  UNL     1      30.392  49.466  19.090  1.00  0.00     0.035 A
HETATM    9  C9  UNL     1      31.737  49.219  18.906  1.00  0.00     0.037 A
HETATM   10  C10 UNL     1      31.797  47.853  18.686  1.00  0.00     0.076 A
HETATM   11  O2  UNL     1      30.605  47.343  18.737  1.00  0.00    -0.317 OA
BRANCH  10  12
HETATM   12  C11 UNL     1      33.064  47.104  18.432  1.00  0.00     0.229 C
BRANCH  12  13
HETATM   13  O1  UNL     1      33.504  47.304  17.123  1.00  0.00    -0.394 OA
ATOM     14  H1  UNL     1      33.069  48.051  16.730  1.00  0.00     0.209 HD
ENDBRANCH  12  13
ENDBRANCH  10  12
ENDBRANCH   6   7
ENDBRANCH   1   6
BRANCH   1  15
HETATM   15  C12 UNL     1      26.519  46.622  20.259  1.00  0.00     0.013 C
BRANCH  15  16
HETATM   16  C13 UNL     1      26.136  45.207  20.256  1.00  0.00    -0.051 C
HETATM   17  C14 UNL     1      26.148  44.688  18.766  1.00  0.00     0.014 C
HETATM   18  C15 UNL     1      27.043  44.220  20.942  1.00  0.00     0.014 C
HETATM   19  C16 UNL     1      24.730  44.932  20.725  1.00  0.00     0.014 C
ENDBRANCH  15  16
ENDBRANCH   1  15
TORSDOF 8
ENDMDL