MODEL 5
REMARK VINA RESULT: -6.469818002      1.919      6.079
REMARK  7 active torsions:
REMARK  status: ('A' for Active; 'I' for Inactive)
REMARK    1  A    between atoms: C2_2  and  C3_3
REMARK    2  A    between atoms: C3_3  and  C4_4
REMARK    3  A    between atoms: C4_4  and  O1_6
REMARK    4  A    between atoms: O1_6  and  C6_7
REMARK    5  A    between atoms: C6_7  and  C7_8
REMARK    6  A    between atoms: C11_12  and  O2_13
REMARK    7  A    between atoms: C12_15  and  C13_16
ROOT
HETATM    1  C7  UNL     1      28.943  47.705  20.960  1.00  0.00    -0.033 A
HETATM    2  C8  UNL     1      29.901  48.678  20.771  1.00  0.00     0.019 A
HETATM    3  C9  UNL     1      30.589  48.822  19.583  1.00  0.00    -0.028 A
HETATM    4  C10 UNL     1      31.627  49.857  19.352  1.00  0.00     0.051 C
HETATM    5  C11 UNL     1      30.290  47.944  18.556  1.00  0.00     0.078 A
HETATM    6  C12 UNL     1      29.351  46.954  18.679  1.00  0.00    -0.021 A
HETATM    7  C16 UNL     1      28.683  46.845  19.884  1.00  0.00     0.019 A
ENDROOT
BRANCH   1   8
HETATM    8  C6  UNL     1      28.247  47.580  22.244  1.00  0.00     0.206 C
BRANCH   8   9
HETATM    9  O1  UNL     1      26.889  47.601  22.232  1.00  0.00    -0.382 OA
BRANCH   9  10
HETATM   10  C4  UNL     1      26.253  46.417  22.638  1.00  0.00     0.117 C
HETATM   11  C5  UNL     1      25.369  46.778  23.781  1.00  0.00     0.039 C
BRANCH  10  12
HETATM   12  C3  UNL     1      25.530  45.879  21.457  1.00  0.00     0.031 C
BRANCH  12  13
HETATM   13  C2  UNL     1      25.106  46.778  20.372  1.00  0.00    -0.002 C
HETATM   14  C1  UNL     1      24.290  46.149  19.320  1.00  0.00     0.005 C
ENDBRANCH  12  13
ENDBRANCH  10  12
ENDBRANCH   9  10
ENDBRANCH   8   9
ENDBRANCH   1   8
BRANCH   6  15
HETATM   15  C13 UNL     1      29.034  46.011  17.620  1.00  0.00     0.013 C
HETATM   16  C14 UNL     1      27.537  45.693  17.566  1.00  0.00     0.015 C
HETATM   17  C15 UNL     1      29.765  44.701  17.701  1.00  0.00     0.015 C
ENDBRANCH   6  15
BRANCH   5  18
HETATM   18  O2  UNL     1      30.957  48.068  17.372  1.00  0.00    -0.360 OA
ATOM     19  H2  UNL     1      31.686  47.485  17.195  1.00  0.00     0.217 HD
ENDBRANCH   5  18
TORSDOF 7
ENDMDL