MODEL 5
REMARK VINA RESULT: -6.546723893      3.300      6.139
REMARK  6 active torsions:
REMARK  status: ('A' for Active; 'I' for Inactive)
REMARK    1  A    between atoms: C2_2  and  C3_3
REMARK    2  A    between atoms: C3_3  and  C4_4
REMARK    3  A    between atoms: C10_10  and  O1_11
REMARK    4  A    between atoms: C10_10  and  C11_13
REMARK    5  A    between atoms: C11_13  and  C12_14
REMARK    6  A    between atoms: C12_14  and  C13_15
ROOT
HETATM    1  C3  UNL     1      29.464  48.400  19.503  1.00  0.00    -0.041 C
HETATM    2  C6  UNL     1      30.726  47.627  19.193  1.00  0.00     0.009 C
HETATM    3  C7  UNL     1      30.756  46.807  17.962  1.00  0.00     0.001 C
HETATM    4  C8  UNL     1      29.716  45.750  17.821  1.00  0.00     0.003 C
HETATM    5  C9  UNL     1      28.636  46.103  16.841  1.00  0.00     0.038 C
HETATM    6  C10 UNL     1      27.317  46.417  17.562  1.00  0.00     0.058 C
HETATM    7  C15 UNL     1      27.336  47.731  18.249  1.00  0.00     0.038 C
HETATM    8  C16 UNL     1      28.559  48.526  18.294  1.00  0.00     0.012 C
ENDROOT
BRANCH   6   9
HETATM    9  O1  UNL     1      27.114  45.335  18.422  1.00  0.00    -0.390 OA
ATOM     10  H1  UNL     1      27.986  45.068  18.689  1.00  0.00     0.210 HD
ENDBRANCH   6   9
BRANCH   6  11
HETATM   11  C11 UNL     1      26.265  46.296  16.481  1.00  0.00     0.045 C
BRANCH  11  12
HETATM   12  C12 UNL     1      25.369  47.464  16.297  1.00  0.00     0.081 C
BRANCH  12  13
HETATM   13  C13 UNL     1      25.661  48.039  14.941  1.00  0.00     0.123 C
HETATM   14  C14 UNL     1      25.988  47.190  13.774  1.00  0.00     0.091 C
HETATM   15  O2  UNL     1      25.617  49.269  14.844  1.00  0.00    -0.298 OA
ENDBRANCH  12  13
ENDBRANCH  11  12
ENDBRANCH   6  11
BRANCH   1  16
HETATM   16  C2  UNL     1      28.765  47.916  20.711  1.00  0.00     0.005 C
HETATM   17  C1  UNL     1      29.438  47.920  22.030  1.00  0.00     0.006 C
ENDBRANCH   1  16
BRANCH   1  18
HETATM   18  C4  UNL     1      29.956  49.805  19.761  1.00  0.00     0.005 C
HETATM   19  C5  UNL     1      31.390  50.089  19.648  1.00  0.00     0.006 C
ENDBRANCH   1  18
TORSDOF 6
ENDMDL