MODEL 1
REMARK VINA RESULT: -6.947340245      0.000      0.000
REMARK  7 active torsions:
REMARK  status: ('A' for Active; 'I' for Inactive)
REMARK    1  A    between atoms: C2_2  and  C3_3
REMARK    2  A    between atoms: C3_3  and  C4_4
REMARK    3  A    between atoms: C4_4  and  C5_5
REMARK    4  A    between atoms: C5_5  and  C6_6
REMARK    5  A    between atoms: C6_6  and  C7_8
REMARK    6  A    between atoms: C12_14  and  C13_15
REMARK    7  A    between atoms: C13_15  and  C14_16
ROOT
HETATM    1  C7  UNL     1      27.763  47.365  21.849  1.00  0.00     0.048 A
HETATM    2  C8  UNL     1      28.325  47.398  23.140  1.00  0.00     0.064 A
HETATM    3  C9  UNL     1      29.778  47.643  23.466  1.00  0.00     0.077 C
HETATM    4  O2  UNL     1      27.346  47.178  23.956  1.00  0.00    -0.319 OA
HETATM    5  C10 UNL     1      26.212  47.005  23.357  1.00  0.00     0.056 A
HETATM    6  C11 UNL     1      24.882  46.729  23.996  1.00  0.00     0.077 C
HETATM    7  C12 UNL     1      26.438  47.120  21.962  1.00  0.00    -0.012 A
ENDROOT
BRANCH   1   8
HETATM    8  C6  UNL     1      28.590  47.472  20.682  1.00  0.00     0.162 C
HETATM    9  O1  UNL     1      28.771  46.359  20.037  1.00  0.00    -0.292 OA
BRANCH   8  10
HETATM   10  C5  UNL     1      29.266  48.626  20.107  1.00  0.00     0.084 C
BRANCH  10  11
HETATM   11  C4  UNL     1      30.786  48.426  20.102  1.00  0.00     0.008 C
BRANCH  11  12
HETATM   12  C3  UNL     1      31.361  49.161  18.932  1.00  0.00     0.000 C
BRANCH  12  13
HETATM   13  C2  UNL     1      32.115  48.284  17.982  1.00  0.00    -0.005 C
HETATM   14  C1  UNL     1      32.884  47.183  18.654  1.00  0.00     0.005 C
ENDBRANCH  12  13
ENDBRANCH  11  12
ENDBRANCH  10  11
ENDBRANCH   8  10
ENDBRANCH   1   8
BRANCH   7  15
HETATM   15  C13 UNL     1      25.335  47.029  20.988  1.00  0.00     0.046 C
BRANCH  15  16
HETATM   16  C14 UNL     1      25.209  45.788  20.201  1.00  0.00    -0.018 C
HETATM   17  C15 UNL     1      24.311  44.726  20.728  1.00  0.00     0.010 C
HETATM   18  C16 UNL     1      24.688  46.117  18.780  1.00  0.00     0.010 C
ENDBRANCH  15  16
ENDBRANCH   7  15
TORSDOF 7
ENDMDL