MODEL 5
REMARK VINA RESULT: -7.772023261      1.067      1.312
REMARK  8 active torsions:
REMARK  status: ('A' for Active; 'I' for Inactive)
REMARK    1  A    between atoms: C2_2  and  O2_4
REMARK    2  A    between atoms: O2_4  and  C3_5
REMARK    3  A    between atoms: C3_5  and  C4_6
REMARK    4  A    between atoms: C5_8  and  C6_9
REMARK    5  A    between atoms: N1_12  and  C9_13
REMARK    6  A    between atoms: C15_22  and  O5_23
REMARK    7  A    between atoms: C16_25  and  O6_26
REMARK    8  A    between atoms: C17_28  and  O7_29
ROOT
HETATM    1  C4  UNL     1      -4.521   2.245  13.653  1.00  0.00     0.178 C
HETATM    2  O3  UNL     1      -3.950   3.508  13.505  1.00  0.00    -0.368 OA
HETATM    3  C5  UNL     1      -4.573   4.072  12.388  1.00  0.00     0.188 C
HETATM    4  C15 UNL     1      -4.177   3.355  11.120  1.00  0.00     0.183 C
HETATM    5  C16 UNL     1      -4.366   1.858  11.238  1.00  0.00     0.181 C
HETATM    6  C17 UNL     1      -3.954   1.349  12.603  1.00  0.00     0.180 C
ENDROOT
BRANCH   3   7
HETATM    7  C6  UNL     1      -4.130   5.482  12.285  1.00  0.00    -0.010 A
HETATM    8  C7  UNL     1      -4.397   6.428  11.329  1.00  0.00     0.028 A
HETATM    9  C8  UNL     1      -3.742   7.590  11.693  1.00  0.00     0.092 A
HETATM   10  N1  UNL     1      -3.083   7.398  12.836  1.00  0.00    -0.353 N
HETATM   11  C14 UNL     1      -3.306   6.143  13.201  1.00  0.00     0.101 A
BRANCH  10  12
HETATM   12  C9  UNL     1      -2.284   8.395  13.519  1.00  0.00     0.191 C
HETATM   13  C10 UNL     1      -2.044   9.614  12.681  1.00  0.00     0.036 C
HETATM   14  C11 UNL     1      -0.623   9.768  12.230  1.00  0.00     0.029 C
HETATM   15  C12 UNL     1       0.083   8.485  11.962  1.00  0.00     0.174 C
HETATM   16  O4  UNL     1      -0.135   7.496  12.885  1.00  0.00    -0.325 OA
HETATM   17  C13 UNL     1      -0.938   7.847  13.940  1.00  0.00     0.375 C
HETATM   18  F1  UNL     1      -1.146   6.692  14.699  1.00  0.00    -0.173 F
HETATM   19  F2  UNL     1      -0.371   8.777  14.788  1.00  0.00    -0.173 F
ENDBRANCH  10  12
ENDBRANCH   3   7
BRANCH   4  20
HETATM   20  O5  UNL     1      -2.868   3.636  10.743  1.00  0.00    -0.390 OA
ATOM     21  H5  UNL     1      -2.707   3.440   9.828  1.00  0.00     0.210 HD
ENDBRANCH   4  20
BRANCH   1  22
HETATM   22  C3  UNL     1      -4.312   1.689  15.043  1.00  0.00     0.213 C
BRANCH  22  23
HETATM   23  O2  UNL     1      -5.273   0.741  15.399  1.00  0.00    -0.319 OA
BRANCH  23  24
HETATM   24  C2  UNL     1      -5.751   0.707  16.698  1.00  0.00     0.254 C
HETATM   25  C1  UNL     1      -6.389   1.917  17.330  1.00  0.00     0.126 C
HETATM   26  O1  UNL     1      -5.635  -0.369  17.336  1.00  0.00    -0.266 OA
ENDBRANCH  23  24
ENDBRANCH  22  23
ENDBRANCH   1  22
BRANCH   5  27
HETATM   27  O6  UNL     1      -5.651   1.444  10.988  1.00  0.00    -0.390 OA
ATOM     28  H6  UNL     1      -5.907   0.676  11.485  1.00  0.00     0.210 HD
ENDBRANCH   5  27
BRANCH   6  29
HETATM   29  O7  UNL     1      -4.466   0.068  12.789  1.00  0.00    -0.390 OA
ATOM     30  H7  UNL     1      -4.738  -0.276  11.946  1.00  0.00     0.210 HD
ENDBRANCH   6  29
TORSDOF 8
ENDMDL