MODEL 2
REMARK VINA RESULT: -7.043381476      3.189      4.781
REMARK  9 active torsions:
REMARK  status: ('A' for Active; 'I' for Inactive)
REMARK    1  A    between atoms: C2_2  and  O2_4
REMARK    2  A    between atoms: O2_4  and  C3_5
REMARK    3  A    between atoms: C7_9  and  C8_10
REMARK    4  A    between atoms: C8_10  and  O4_12
REMARK    5  A    between atoms: O4_12  and  C9_13
REMARK    6  A    between atoms: C11_16  and  C12_17
REMARK    7  A    between atoms: C13_20  and  O5_21
REMARK    8  A    between atoms: C14_23  and  O6_24
REMARK    9  A    between atoms: C15_26  and  O7_27
ROOT
HETATM    1  C9  UNL     1      -4.255   5.133  12.277  1.00  0.00     0.172 C
HETATM    2  C10 UNL     1      -4.605   6.587  12.379  1.00  0.00     0.109 C
HETATM    3  S1  UNL     1      -4.853   7.249  10.708  1.00  0.00    -0.153 SA
HETATM    4  C11 UNL     1      -5.147   5.906   9.522  1.00  0.00     0.143 C
HETATM    5  C13 UNL     1      -3.850   5.274   9.089  1.00  0.00     0.168 C
HETATM    6  C14 UNL     1      -3.300   4.321  10.129  1.00  0.00     0.179 C
HETATM    7  C15 UNL     1      -3.026   4.973  11.444  1.00  0.00     0.179 C
ENDROOT
BRANCH   1   8
HETATM    8  O4  UNL     1      -4.186   4.471  13.517  1.00  0.00    -0.312 OA
BRANCH   8   9
HETATM    9  C8  UNL     1      -5.161   3.675  14.046  1.00  0.00     0.266 C
HETATM   10  O3  UNL     1      -6.311   3.734  13.564  1.00  0.00    -0.265 OA
BRANCH   9  11
HETATM   11  C7  UNL     1      -4.841   2.768  15.166  1.00  0.00     0.115 C
HETATM   12  C3  UNL     1      -4.407   1.401  14.771  1.00  0.00     0.145 C
HETATM   13  C4  UNL     1      -4.910   0.477  15.854  1.00  0.00     0.033 C
HETATM   14  C5  UNL     1      -6.055   1.186  16.543  1.00  0.00     0.004 C
HETATM   15  C6  UNL     1      -6.049   2.607  16.067  1.00  0.00     0.017 C
BRANCH  12  16
HETATM   16  O2  UNL     1      -4.734   0.990  13.488  1.00  0.00    -0.315 OA
BRANCH  16  17
HETATM   17  C2  UNL     1      -3.818   0.626  12.513  1.00  0.00     0.255 C
HETATM   18  C1  UNL     1      -3.877  -0.631  11.741  1.00  0.00     0.126 C
HETATM   19  O1  UNL     1      -2.882   1.437  12.286  1.00  0.00    -0.266 OA
ENDBRANCH  16  17
ENDBRANCH  12  16
ENDBRANCH   9  11
ENDBRANCH   8   9
ENDBRANCH   1   8
BRANCH   7  20
HETATM   20  O7  UNL     1      -2.144   4.137  12.156  1.00  0.00    -0.390 OA
ATOM     21  H7  UNL     1      -1.380   4.656  12.376  1.00  0.00     0.210 HD
ENDBRANCH   7  20
BRANCH   6  22
HETATM   22  O6  UNL     1      -4.193   3.255  10.207  1.00  0.00    -0.390 OA
ATOM     23  H6  UNL     1      -5.049   3.628  10.380  1.00  0.00     0.210 HD
ENDBRANCH   6  22
BRANCH   4  24
HETATM   24  C12 UNL     1      -5.794   6.542   8.287  1.00  0.00     0.369 C
HETATM   25  F1  UNL     1      -7.111   6.150   8.223  1.00  0.00    -0.213 F
HETATM   26  F2  UNL     1      -5.623   7.910   8.295  1.00  0.00    -0.213 F
ENDBRANCH   4  24
BRANCH   5  27
HETATM   27  O5  UNL     1      -4.105   4.516   7.948  1.00  0.00    -0.392 OA
ATOM     28  H5  UNL     1      -4.515   3.705   8.224  1.00  0.00     0.210 HD
ENDBRANCH   5  27
TORSDOF 9
ENDMDL