MODEL 1
REMARK VINA RESULT: -8.331911887      0.000      0.000
REMARK  12 active torsions:
REMARK  status: ('A' for Active; 'I' for Inactive)
REMARK    1  A    between atoms: C3_3  and  O1_6
REMARK    2  A    between atoms: O1_6  and  C4_7
REMARK       I    between atoms: C4_7  and  N1_9
REMARK    3  A    between atoms: C5_11  and  O3_12
REMARK    4  A    between atoms: C5_11  and  C6_14
REMARK    5  A    between atoms: C8_17  and  O5_18
REMARK    6  A    between atoms: O5_18  and  C9_19
REMARK    7  A    between atoms: C9_19  and  C10_21
REMARK    8  A    between atoms: C10_21  and  N2_23
REMARK    9  A    between atoms: C12_27  and  O7_28
REMARK   10  A    between atoms: C13_30  and  N3_31
REMARK   11  A    between atoms: N3_31  and  N4_33
REMARK   12  A    between atoms: N4_33  and  N5_34
ROOT
HETATM    1  C1  UNL     1      -6.405   4.073  15.393  1.00  0.00     0.021 C
HETATM    2  C2  UNL     1      -6.238   3.050  16.012  1.00  0.00    -0.007 C
HETATM    3  C3  UNL     1      -6.010   1.800  16.774  1.00  0.00     0.432 C
HETATM    4  F1  UNL     1      -6.035   2.124  18.114  1.00  0.00    -0.162 F
HETATM    5  F2  UNL     1      -7.008   0.939  16.423  1.00  0.00    -0.162 F
ENDROOT
BRANCH   3   6
HETATM    6  O1  UNL     1      -4.725   1.289  16.476  1.00  0.00    -0.222 OA
BRANCH   6   7
HETATM    7  C4  UNL     1      -4.393   0.722  15.253  1.00  0.00     0.372 C
HETATM    8  O2  UNL     1      -4.557  -0.531  15.139  1.00  0.00    -0.238 OA
HETATM    9  N1  UNL     1      -3.893   1.496  14.175  1.00  0.00    -0.282 N
HETATM   10  C5  UNL     1      -3.989   1.160  12.948  1.00  0.00     0.154 C
ATOM     11  H1  UNL     1      -3.428   2.375  14.395  1.00  0.00     0.173 HD
BRANCH  10  12
HETATM   12  O3  UNL     1      -4.610  -0.021  12.614  1.00  0.00    -0.345 OA
ATOM     13  H3  UNL     1      -4.665  -0.279  11.701  1.00  0.00     0.219 HD
ENDBRANCH  10  12
BRANCH  10  14
HETATM   14  C6  UNL     1      -3.450   2.012  11.919  1.00  0.00     0.043 C
HETATM   15  C7  UNL     1      -4.207   2.582  10.976  1.00  0.00     0.151 C
HETATM   16  O4  UNL     1      -3.640   3.396  10.006  1.00  0.00    -0.328 OA
HETATM   17  C8  UNL     1      -2.264   3.494   9.775  1.00  0.00     0.305 C
HETATM   18  C12 UNL     1      -1.597   2.284  10.397  1.00  0.00     0.204 C
HETATM   19  C13 UNL     1      -1.972   2.298  11.869  1.00  0.00     0.187 C
BRANCH  17  20
HETATM   20  O5  UNL     1      -1.940   3.624   8.419  1.00  0.00    -0.285 OA
BRANCH  20  21
HETATM   21  C9  UNL     1      -1.868   4.886   7.853  1.00  0.00     0.291 C
HETATM   22  O6  UNL     1      -0.780   5.506   7.928  1.00  0.00    -0.263 OA
BRANCH  21  23
HETATM   23  C10 UNL     1      -2.999   5.546   7.166  1.00  0.00     0.278 C
HETATM   24  C11 UNL     1      -2.703   5.884   5.742  1.00  0.00     0.050 C
BRANCH  23  25
HETATM   25  N2  UNL     1      -4.218   4.773   7.307  1.00  0.00    -0.066 N
ATOM     26  H23 UNL     1      -4.362   4.470   8.271  1.00  0.00     0.275 HD
ATOM     27  H22 UNL     1      -5.047   5.356   7.203  1.00  0.00     0.275 HD
ATOM     28  H21 UNL     1      -4.229   3.985   6.660  1.00  0.00     0.275 HD
ENDBRANCH  23  25
ENDBRANCH  21  23
ENDBRANCH  20  21
ENDBRANCH  17  20
BRANCH  18  29
HETATM   29  O7  UNL     1      -2.104   1.102   9.855  1.00  0.00    -0.388 OA
ATOM     30  H7  UNL     1      -1.545   0.364  10.070  1.00  0.00     0.210 HD
ENDBRANCH  18  29
BRANCH  19  31
HETATM   31  N3  UNL     1      -1.705   3.590  12.432  1.00  0.00    -0.240 N
ATOM     32  H3  UNL     1      -1.634   4.385  11.796  1.00  0.00     0.198 HD
BRANCH  31  33
HETATM   33  N4  UNL     1      -1.558   3.799  13.625  1.00  0.00    -0.248 NA
BRANCH  33  34
HETATM   34  N5  UNL     1      -1.278   3.989  14.806  1.00  0.00    -0.261 N
ATOM     35  H52 UNL     1      -0.453   3.438  14.569  1.00  0.00     0.193 HD
ATOM     36  H51 UNL     1      -1.141   4.205  15.794  1.00  0.00     0.193 HD
ENDBRANCH  33  34
ENDBRANCH  31  33
ENDBRANCH  19  31
ENDBRANCH  10  14
ENDBRANCH   6   7
ENDBRANCH   3   6
TORSDOF 12
ENDMDL