MODEL 5
REMARK VINA RESULT: -7.497890462      4.860      6.725
REMARK  5 active torsions:
REMARK  status: ('A' for Active; 'I' for Inactive)
REMARK    1  A    between atoms: O1_1  and  C1_3
REMARK    2  A    between atoms: C5_7  and  N1_8
REMARK    3  A    between atoms: C7_13  and  N3_14
REMARK    4  A    between atoms: C12_19  and  C13_20
REMARK    5  A    between atoms: C16_32  and  O2_33
ROOT
HETATM    1  N1  UNL     1      -3.778   3.315  10.936  1.00  0.00    -0.216 N
ATOM      2  H1  UNL     1      -3.619   3.373   9.930  1.00  0.00     0.178 HD
HETATM    3  C6  UNL     1      -4.283   4.366  11.375  1.00  0.00     0.729 A
HETATM    4  N2  UNL     1      -4.502   5.336  10.425  1.00  0.00    -0.020 N
ATOM      5  H2  UNL     1      -4.241   5.128   9.461  1.00  0.00     0.203 HD
HETATM    6  C7  UNL     1      -5.030   6.523  10.683  1.00  0.00     0.710 A
HETATM    7  N4  UNL     1      -5.367   6.766  11.980  1.00  0.00    -0.019 N
ATOM      8  H4  UNL     1      -5.778   7.662  12.241  1.00  0.00     0.203 HD
HETATM    9  C14 UNL     1      -5.154   5.807  12.935  1.00  0.00     0.734 A
HETATM   10  N5  UNL     1      -5.403   5.833  14.263  1.00  0.00    -0.184 N
ATOM     11  H5  UNL     1      -5.811   6.608  14.786  1.00  0.00     0.185 HD
HETATM   12  C15 UNL     1      -5.016   4.655  14.766  1.00  0.00     0.216 A
HETATM   13  N6  UNL     1      -4.532   3.902  13.776  1.00  0.00    -0.260 N
ATOM     14  H6  UNL     1      -4.163   2.955  13.864  1.00  0.00     0.189 HD
HETATM   15  N7  UNL     1      -4.618   4.613  12.652  1.00  0.00     0.092 N
ENDROOT
BRANCH   1  16
HETATM   16  C5  UNL     1      -3.367   2.068  11.449  1.00  0.00     0.130 C
HETATM   17  C4  UNL     1      -2.296   1.476  10.585  1.00  0.00     0.028 C
HETATM   18  C3  UNL     1      -2.207   0.010  10.488  1.00  0.00     0.005 C
HETATM   19  C2  UNL     1      -3.226  -0.747  11.312  1.00  0.00     0.034 C
HETATM   20  C1  UNL     1      -4.561  -0.097  10.926  1.00  0.00     0.148 C
HETATM   21  C16 UNL     1      -4.574   1.211  11.650  1.00  0.00     0.170 C
BRANCH  20  22
HETATM   22  O1  UNL     1      -4.584   0.004   9.557  1.00  0.00    -0.393 OA
ATOM     23  H1  UNL     1      -4.844   0.893   9.344  1.00  0.00     0.210 HD
ENDBRANCH  20  22
BRANCH  21  24
HETATM   24  O2  UNL     1      -4.731   0.879  13.018  1.00  0.00    -0.391 OA
ATOM     25  H2  UNL     1      -3.856   0.683  13.330  1.00  0.00     0.210 HD
ENDBRANCH  21  24
ENDBRANCH   1  16
BRANCH   6  26
HETATM   26  N3  UNL     1      -5.236   7.546   9.741  1.00  0.00    -0.207 N
HETATM   27  C8  UNL     1      -4.553   7.524   8.482  1.00  0.00     0.142 C
HETATM   28  C9  UNL     1      -5.542   7.637   7.375  1.00  0.00     0.020 C
HETATM   29  C10 UNL     1      -6.672   8.581   7.570  1.00  0.00     0.004 C
HETATM   30  C11 UNL     1      -7.213   8.709   8.948  1.00  0.00     0.031 C
HETATM   31  C12 UNL     1      -6.160   8.604  10.039  1.00  0.00     0.167 C
BRANCH  31  32
HETATM   32  C13 UNL     1      -5.509   9.967  10.175  1.00  0.00     0.376 C
HETATM   33  F1  UNL     1      -6.382  10.935  10.607  1.00  0.00    -0.212 F
HETATM   34  F2  UNL     1      -4.332   9.919  10.899  1.00  0.00    -0.212 F
ENDBRANCH  31  32
ENDBRANCH   6  26
TORSDOF 5
ENDMDL