MODEL 2
REMARK VINA RESULT: -7.416930401      2.669      6.953
REMARK  5 active torsions:
REMARK  status: ('A' for Active; 'I' for Inactive)
REMARK    1  A    between atoms: C6_7  and  N1_8
REMARK    2  A    between atoms: C9_16  and  O4_18
REMARK    3  A    between atoms: O4_18  and  C11_19
REMARK    4  A    between atoms: C11_19  and  C12_20
REMARK    5  A    between atoms: C14_22  and  O5_24
ROOT
HETATM    1  C1  UNL     1      -3.009   0.329  11.042  1.00  0.00     0.042 C
HETATM    2  C2  UNL     1      -3.768   1.158  11.996  1.00  0.00     0.150 C
HETATM    3  O1  UNL     1      -2.997   1.898  12.879  1.00  0.00    -0.375 OA
HETATM    4  C3  UNL     1      -2.657   3.101  12.255  1.00  0.00     0.166 C
HETATM    5  C4  UNL     1      -2.895   4.215  13.205  1.00  0.00     0.067 A
HETATM    6  C5  UNL     1      -2.992   3.798  14.690  1.00  0.00     0.060 A
HETATM    7  C6  UNL     1      -4.177   4.349  13.848  1.00  0.00     0.216 A
HETATM    8  C7  UNL     1      -5.249   3.439  13.496  1.00  0.00     0.296 C
HETATM    9  O2  UNL     1      -6.095   3.240  14.400  1.00  0.00    -0.262 OA
HETATM   10  O3  UNL     1      -5.471   2.769  12.326  1.00  0.00    -0.308 OA
HETATM   11  C8  UNL     1      -4.600   2.249  11.361  1.00  0.00     0.197 C
HETATM   12  C9  UNL     1      -3.500   3.254  11.043  1.00  0.00     0.112 C
HETATM   13  C10 UNL     1      -4.151   4.605  10.891  1.00  0.00     0.051 C
ENDROOT
BRANCH  12  14
HETATM   14  O4  UNL     1      -2.887   2.968   9.840  1.00  0.00    -0.374 OA
BRANCH  14  15
HETATM   15  C11 UNL     1      -2.557   4.085   9.137  1.00  0.00     0.180 C
BRANCH  15  16
HETATM   16  C12 UNL     1      -1.145   4.045   8.583  1.00  0.00     0.091 C
HETATM   17  C13 UNL     1      -1.008   5.178   7.614  1.00  0.00     0.051 C
HETATM   18  C14 UNL     1       0.338   5.221   6.947  1.00  0.00     0.060 C
HETATM   19  C15 UNL     1       0.594   4.027   6.067  1.00  0.00     0.046 C
HETATM   20  C16 UNL     1       1.391   5.361   8.025  1.00  0.00     0.095 C
HETATM   21  C17 UNL     1       1.223   4.288   9.048  1.00  0.00     0.055 C
HETATM   22  N2  UNL     1       2.264   3.592   9.362  1.00  0.00    -0.401 N
HETATM   23  C18 UNL     1      -0.106   4.061   9.658  1.00  0.00     0.287 C
ATOM     24  H22 UNL     1       3.180   3.749   8.941  1.00  0.00     0.155 HD
ATOM     25  H21 UNL     1       2.149   2.858  10.061  1.00  0.00     0.155 HD
HETATM   26  F1  UNL     1      -0.048   2.798  10.261  1.00  0.00    -0.199 F
HETATM   27  F2  UNL     1      -0.378   4.991  10.654  1.00  0.00    -0.199 F
BRANCH  18  28
HETATM   28  O5  UNL     1       0.385   6.357   6.142  1.00  0.00    -0.390 OA
ATOM     29  H5  UNL     1       0.303   6.080   5.236  1.00  0.00     0.210 HD
ENDBRANCH  18  28
ENDBRANCH  15  16
ENDBRANCH  14  15
ENDBRANCH  12  14
BRANCH   7  30
HETATM   30  N1  UNL     1      -4.597   5.667  14.312  1.00  0.00    -0.060 N
ATOM     31  H13 UNL     1      -5.089   5.563  15.199  1.00  0.00     0.275 HD
ATOM     32  H12 UNL     1      -3.772   6.193  14.602  1.00  0.00     0.275 HD
ATOM     33  H11 UNL     1      -5.157   6.251  13.691  1.00  0.00     0.275 HD
ENDBRANCH   7  30
TORSDOF 5
ENDMDL