MODEL 5
REMARK VINA RESULT: -6.258274251      2.887      4.997
REMARK  8 active torsions:
REMARK  status: ('A' for Active; 'I' for Inactive)
REMARK    1  A    between atoms: C4_5  and  O1_6
REMARK    2  A    between atoms: C5_8  and  S2_9
REMARK    3  A    between atoms: C7_12  and  C8_13
REMARK    4  A    between atoms: C8_13  and  O3_14
REMARK    5  A    between atoms: C10_17  and  O4_18
REMARK    6  A    between atoms: C10_17  and  C11_20
REMARK    7  A    between atoms: C11_20  and  O6_22
REMARK    8  A    between atoms: O6_22  and  C12_23
ROOT
HETATM    1  C1  UNL     1      -0.961   2.860   9.293  1.00  0.00     0.033 C
HETATM    2  C2  UNL     1      -1.769   3.512  10.095  1.00  0.00     0.044 C
HETATM    3  S1  UNL     1      -2.371   5.181   9.744  1.00  0.00    -0.121 SA
HETATM    4  C3  UNL     1      -3.255   5.589  11.301  1.00  0.00     0.094 C
HETATM    5  C4  UNL     1      -4.063   6.818  11.025  1.00  0.00     0.171 C
HETATM    6  C5  UNL     1      -5.211   7.049  11.931  1.00  0.00     0.212 C
HETATM    7  O2  UNL     1      -5.839   5.968  12.472  1.00  0.00    -0.365 OA
HETATM    8  C7  UNL     1      -4.977   4.918  12.830  1.00  0.00     0.155 C
HETATM    9  C9  UNL     1      -4.292   4.492  11.585  1.00  0.00     0.085 C
HETATM   10  C10 UNL     1      -3.801   3.121  11.447  1.00  0.00     0.224 C
HETATM   11  C14 UNL     1      -2.290   2.977  11.382  1.00  0.00     0.316 C
HETATM   12  F1  UNL     1      -1.614   3.456  12.439  1.00  0.00    -0.196 F
HETATM   13  F2  UNL     1      -2.056   1.595  11.333  1.00  0.00    -0.196 F
ENDROOT
BRANCH  10  14
HETATM   14  O4  UNL     1      -4.176   2.636  10.150  1.00  0.00    -0.374 OA
ATOM     15  H4  UNL     1      -3.813   3.221   9.495  1.00  0.00     0.211 HD
ENDBRANCH  10  14
BRANCH  10  16
HETATM   16  C11 UNL     1      -4.327   2.117  12.396  1.00  0.00     0.300 C
HETATM   17  O5  UNL     1      -5.329   1.407  12.101  1.00  0.00    -0.262 OA
BRANCH  16  18
HETATM   18  O6  UNL     1      -3.810   1.851  13.654  1.00  0.00    -0.319 OA
BRANCH  18  19
HETATM   19  C12 UNL     1      -4.295   0.817  14.490  1.00  0.00     0.174 C
HETATM   20  C13 UNL     1      -4.267   1.260  15.915  1.00  0.00     0.034 C
ENDBRANCH  18  19
ENDBRANCH  16  18
ENDBRANCH  10  16
BRANCH   8  21
HETATM   21  C8  UNL     1      -4.102   5.472  13.920  1.00  0.00     0.196 C
BRANCH  21  22
HETATM   22  O3  UNL     1      -3.837   4.383  14.790  1.00  0.00    -0.398 OA
ATOM     23  H3  UNL     1      -4.447   4.477  15.512  1.00  0.00     0.209 HD
ENDBRANCH  21  22
ENDBRANCH   8  21
BRANCH   5  24
HETATM   24  O1  UNL     1      -3.244   7.946  10.992  1.00  0.00    -0.391 OA
ATOM     25  H1  UNL     1      -3.647   8.665  11.462  1.00  0.00     0.210 HD
ENDBRANCH   5  24
BRANCH   6  26
HETATM   26  S2  UNL     1      -6.477   7.973  10.968  1.00  0.00    -0.139 SA
HETATM   27  C6  UNL     1      -6.786   7.081   9.426  1.00  0.00     0.092 C
ENDBRANCH   6  26
TORSDOF 8
ENDMDL