MODEL 1
REMARK VINA RESULT: -7.583251028      0.000      0.000
REMARK  7 active torsions:
REMARK  status: ('A' for Active; 'I' for Inactive)
REMARK    1  A    between atoms: O1_1  and  C1_3
REMARK    2  A    between atoms: C1_3  and  C2_4
REMARK    3  A    between atoms: N1_6  and  C4_7
REMARK    4  A    between atoms: N2_9  and  C6_10
REMARK    5  A    between atoms: N3_13  and  C8_14
REMARK    6  A    between atoms: C14_22  and  O2_23
REMARK    7  A    between atoms: C15_25  and  O3_26
ROOT
HETATM    1  C4  UNL     1      -3.871   2.117  13.184  1.00  0.00     0.151 C
HETATM    2  C5  UNL     1      -3.274   3.452  12.728  1.00  0.00     0.304 C
HETATM    3  N2  UNL     1      -2.477   2.926  11.605  1.00  0.00     0.128 N
HETATM    4  C14 UNL     1      -3.391   2.093  10.877  1.00  0.00     0.388 C
HETATM    5  C15 UNL     1      -4.379   1.549  11.922  1.00  0.00     0.202 C
ENDROOT
BRANCH   3   6
HETATM    6  C6  UNL     1      -1.931   4.027  10.838  1.00  0.00     0.250 C
HETATM    7  C7  UNL     1      -2.386   5.333  11.414  1.00  0.00     0.128 C
HETATM    8  S1  UNL     1      -0.880   5.951  12.270  1.00  0.00    -0.080 SA
HETATM    9  N3  UNL     1       0.233   4.781  11.564  1.00  0.00    -0.252 NA
HETATM   10  C13 UNL     1      -0.497   4.015  10.603  1.00  0.00     0.139 C
BRANCH   9  11
HETATM   11  C8  UNL     1       1.355   5.435  10.934  1.00  0.00     0.075 C
HETATM   12  C9  UNL     1       1.762   6.725  11.580  1.00  0.00     0.027 C
HETATM   13  C10 UNL     1       3.162   6.480  12.123  1.00  0.00     0.081 C
HETATM   14  C11 UNL     1       3.727   5.499  11.115  1.00  0.00     0.245 C
HETATM   15  F1  UNL     1       4.868   4.891  11.535  1.00  0.00    -0.206 F
HETATM   16  F2  UNL     1       3.855   6.159   9.913  1.00  0.00    -0.206 F
HETATM   17  C12 UNL     1       2.551   4.517  11.007  1.00  0.00     0.099 C
ENDBRANCH   9  11
ENDBRANCH   3   6
BRANCH   4  18
HETATM   18  O2  UNL     1      -4.075   2.765   9.855  1.00  0.00    -0.366 OA
ATOM     19  H2  UNL     1      -3.979   3.710   9.888  1.00  0.00     0.212 HD
ENDBRANCH   4  18
BRANCH   1  20
HETATM   20  N1  UNL     1      -4.773   2.240  14.277  1.00  0.00    -0.342 N
HETATM   21  C3  UNL     1      -4.884   1.282  15.249  1.00  0.00     0.119 A
HETATM   22  C2  UNL     1      -5.829   1.664  16.174  1.00  0.00     0.049 A
HETATM   23  N4  UNL     1      -6.275   2.845  15.753  1.00  0.00    -0.353 N
HETATM   24  C16 UNL     1      -5.638   3.199  14.604  1.00  0.00     0.183 A
ATOM     25  H4  UNL     1      -6.989   3.403  16.222  1.00  0.00     0.166 HD
BRANCH  22  26
HETATM   26  C1  UNL     1      -6.226   0.885  17.382  1.00  0.00     0.222 C
BRANCH  26  27
HETATM   27  O1  UNL     1      -5.653  -0.396  17.318  1.00  0.00    -0.395 OA
ATOM     28  H1  UNL     1      -6.309  -1.046  17.541  1.00  0.00     0.209 HD
ENDBRANCH  26  27
ENDBRANCH  22  26
ENDBRANCH   1  20
BRANCH   5  29
HETATM   29  O3  UNL     1      -5.632   1.928  11.523  1.00  0.00    -0.389 OA
ATOM     30  H3  UNL     1      -6.173   2.383  12.159  1.00  0.00     0.210 HD
ENDBRANCH   5  29
TORSDOF 7
ENDMDL