MODEL 2
REMARK VINA RESULT: -6.846837757      3.388      5.341
REMARK  9 active torsions:
REMARK  status: ('A' for Active; 'I' for Inactive)
REMARK    1  A    between atoms: C2_2  and  C3_5
REMARK    2  A    between atoms: C3_5  and  N1_6
REMARK       I    between atoms: N2_9  and  C6_10
REMARK    3  A    between atoms: C6_10  and  S1_12
REMARK    4  A    between atoms: S1_12  and  S2_13
REMARK    5  A    between atoms: S2_13  and  C7_14
REMARK    6  A    between atoms: C8_16  and  C9_17
REMARK    7  A    between atoms: C9_17  and  O3_18
REMARK    8  A    between atoms: C10_20  and  O4_21
REMARK    9  A    between atoms: C11_23  and  O5_24
ROOT
HETATM    1  S1  UNL     1      -1.122   5.014  11.231  1.00  0.00     0.006 SA
ENDROOT
BRANCH   1   2
HETATM    2  C6  UNL     1      -2.560   5.623  12.014  1.00  0.00     0.292 C
HETATM    3  N2  UNL     1      -3.038   5.233  13.242  1.00  0.00    -0.339 N
HETATM    4  C5  UNL     1      -2.433   4.201  14.045  1.00  0.00     0.146 C
HETATM    5  C12 UNL     1      -4.239   5.887  13.805  1.00  0.00     0.146 C
HETATM    6  C4  UNL     1      -3.468   3.758  15.124  1.00  0.00     0.142 C
HETATM    7  N1  UNL     1      -4.753   3.693  14.595  1.00  0.00    -0.385 N
HETATM    8  C13 UNL     1      -5.291   4.818  13.926  1.00  0.00     0.142 C
HETATM    9  O1  UNL     1      -3.221   6.524  11.368  1.00  0.00    -0.259 OA
BRANCH   7  10
HETATM   10  C3  UNL     1      -5.609   2.605  14.795  1.00  0.00     0.136 C
BRANCH  10  11
HETATM   11  C2  UNL     1      -6.153   2.525  16.183  1.00  0.00     0.271 C
HETATM   12  C1  UNL     1      -7.119   1.421  16.375  1.00  0.00     0.096 C
HETATM   13  F1  UNL     1      -6.657   3.757  16.608  1.00  0.00    -0.201 F
HETATM   14  F2  UNL     1      -5.045   2.242  17.011  1.00  0.00    -0.201 F
ENDBRANCH  10  11
ENDBRANCH   7  10
ENDBRANCH   1   2
BRANCH   1  15
HETATM   15  S2  UNL     1      -1.529   3.392   9.949  1.00  0.00    -0.053 SA
BRANCH  15  16
HETATM   16  C7  UNL     1      -2.486   2.168  10.874  1.00  0.00     0.226 C
HETATM   17  O2  UNL     1      -2.601   0.961  10.258  1.00  0.00    -0.362 OA
HETATM   18  C8  UNL     1      -3.829   0.416  10.543  1.00  0.00     0.178 C
HETATM   19  C10 UNL     1      -4.630   1.371  11.359  1.00  0.00     0.181 C
HETATM   20  C11 UNL     1      -3.880   2.670  11.174  1.00  0.00     0.189 C
BRANCH  18  21
HETATM   21  C9  UNL     1      -3.701  -0.948  11.213  1.00  0.00     0.198 C
BRANCH  21  22
HETATM   22  O3  UNL     1      -4.214  -0.888  12.494  1.00  0.00    -0.398 OA
ATOM     23  H3  UNL     1      -4.761  -1.648  12.656  1.00  0.00     0.209 HD
ENDBRANCH  21  22
ENDBRANCH  18  21
BRANCH  19  24
HETATM   24  O4  UNL     1      -5.951   1.471  10.928  1.00  0.00    -0.390 OA
ATOM     25  H4  UNL     1      -6.093   2.209  10.345  1.00  0.00     0.210 HD
ENDBRANCH  19  24
BRANCH  20  26
HETATM   26  O5  UNL     1      -4.441   3.331  10.072  1.00  0.00    -0.389 OA
ATOM     27  H5  UNL     1      -5.072   3.990  10.341  1.00  0.00     0.210 HD
ENDBRANCH  20  26
ENDBRANCH  15  16
ENDBRANCH   1  15
TORSDOF 9
ENDMDL