MODEL 1
REMARK VINA RESULT: -6.547180122      0.000      0.000
REMARK  10 active torsions:
REMARK  status: ('A' for Active; 'I' for Inactive)
REMARK    1  A    between atoms: C3_4  and  S1_5
REMARK    2  A    between atoms: S1_5  and  O2_8
REMARK    3  A    between atoms: O2_8  and  C4_9
REMARK    4  A    between atoms: C5_11  and  C6_12
REMARK    5  A    between atoms: C6_12  and  O4_13
REMARK    6  A    between atoms: C7_15  and  O5_16
REMARK    7  A    between atoms: C8_18  and  O6_19
REMARK    8  A    between atoms: C9_21  and  N1_22
REMARK    9  A    between atoms: N1_22  and  N2_24
REMARK   10  A    between atoms: N2_24  and  N3_25
ROOT
HETATM    1  C4  UNL     1      -3.700   2.851  12.428  1.00  0.00     0.305 C
HETATM    2  O3  UNL     1      -3.393   2.992  11.088  1.00  0.00    -0.348 OA
HETATM    3  C5  UNL     1      -2.800   1.909  10.514  1.00  0.00     0.179 C
HETATM    4  C7  UNL     1      -3.466   0.596  10.834  1.00  0.00     0.180 C
HETATM    5  C8  UNL     1      -4.831   0.900  11.409  1.00  0.00     0.179 C
HETATM    6  C9  UNL     1      -4.584   1.665  12.708  1.00  0.00     0.202 C
ENDROOT
BRANCH   1   7
HETATM    7  O2  UNL     1      -4.406   3.995  12.812  1.00  0.00    -0.259 OA
BRANCH   7   8
HETATM    8  S1  UNL     1      -4.236   4.355  14.424  1.00  0.00     0.150 S
HETATM    9  O1  UNL     1      -3.179   3.433  15.010  1.00  0.00    -0.227 OA
HETATM   10  S2  UNL     1      -5.706   4.004  15.253  1.00  0.00     0.041 SA
BRANCH   8  11
HETATM   11  C3  UNL     1      -3.856   6.022  14.702  1.00  0.00     0.124 C
HETATM   12  C2  UNL     1      -2.706   6.559  14.317  1.00  0.00     0.018 C
HETATM   13  C1  UNL     1      -2.390   7.987  14.560  1.00  0.00     0.062 C
HETATM   14 CL1  UNL     1      -1.506   5.583  13.495  1.00  0.00    -0.089 Cl
ENDBRANCH   8  11
ENDBRANCH   7   8
ENDBRANCH   1   7
BRANCH   6  15
HETATM   15  N1  UNL     1      -3.947   0.742  13.636  1.00  0.00    -0.240 N
ATOM     16  H1  UNL     1      -3.035   0.356  13.392  1.00  0.00     0.197 HD
BRANCH  15  17
HETATM   17  N2  UNL     1      -4.461   0.409  14.697  1.00  0.00    -0.248 NA
BRANCH  17  18
HETATM   18  N3  UNL     1      -4.757   0.250  15.883  1.00  0.00    -0.261 N
ATOM     19  H32 UNL     1      -3.780   0.246  16.175  1.00  0.00     0.193 HD
ATOM     20  H31 UNL     1      -5.239   0.122  16.774  1.00  0.00     0.193 HD
ENDBRANCH  17  18
ENDBRANCH  15  17
ENDBRANCH   6  15
BRANCH   3  21
HETATM   21  C6  UNL     1      -1.335   1.761  10.863  1.00  0.00     0.198 C
BRANCH  21  22
HETATM   22  O4  UNL     1      -1.068   0.528  11.420  1.00  0.00    -0.398 OA
ATOM     23  H4  UNL     1      -0.505   0.602  12.182  1.00  0.00     0.209 HD
ENDBRANCH  21  22
ENDBRANCH   3  21
BRANCH   5  24
HETATM   24  O6  UNL     1      -5.557   1.742  10.570  1.00  0.00    -0.391 OA
ATOM     25  H6  UNL     1      -6.487   1.704  10.765  1.00  0.00     0.210 HD
ENDBRANCH   5  24
BRANCH   4  26
HETATM   26  O5  UNL     1      -3.529  -0.217   9.714  1.00  0.00    -0.390 OA
ATOM     27  H5  UNL     1      -4.214  -0.870   9.803  1.00  0.00     0.210 HD
ENDBRANCH   4  26
TORSDOF 10
ENDMDL