MODEL 5
REMARK VINA RESULT: -6.551145835      1.492      1.914
REMARK  7 active torsions:
REMARK  status: ('A' for Active; 'I' for Inactive)
REMARK    1  A    between atoms: S1_2  and  C2_3
REMARK    2  A    between atoms: C2_3  and  C4_5
REMARK    3  A    between atoms: C2_3  and  C15_28
REMARK    4  A    between atoms: C5_6  and  C6_7
REMARK    5  A    between atoms: N1_9  and  C8_10
REMARK    6  A    between atoms: C14_24  and  N4_25
REMARK    7  A    between atoms: C15_28  and  O4_29
ROOT
HETATM    1  C8  UNL     1      -4.371   0.782  12.797  1.00  0.00     0.389 C
HETATM    2  O1  UNL     1      -5.090   0.614  11.614  1.00  0.00    -0.273 OA
HETATM    3  C9  UNL     1      -4.363  -0.272  10.838  1.00  0.00     0.402 C
HETATM    4  F1  UNL     1      -4.814  -1.547  11.123  1.00  0.00    -0.171 F
HETATM    5  F2  UNL     1      -4.588  -0.043   9.505  1.00  0.00    -0.171 F
HETATM    6  C10 UNL     1      -2.956  -0.041  11.274  1.00  0.00     0.242 C
HETATM    7  C11 UNL     1      -2.242   0.854  10.292  1.00  0.00     0.072 C
HETATM    8  C12 UNL     1      -2.293  -1.344  11.398  1.00  0.00     0.107 C
HETATM    9  N2  UNL     1      -1.779  -2.380  11.509  1.00  0.00    -0.194 NA
HETATM   10  O2  UNL     1      -3.041   0.621  12.489  1.00  0.00    -0.308 OA
ENDROOT
BRANCH   1  11
HETATM   11  N1  UNL     1      -4.668   2.103  13.335  1.00  0.00    -0.258 N
HETATM   12  C7  UNL     1      -4.553   3.206  12.579  1.00  0.00     0.125 A
HETATM   13  C6  UNL     1      -4.845   4.433  13.134  1.00  0.00     0.077 A
HETATM   14  C14 UNL     1      -5.248   4.513  14.447  1.00  0.00     0.123 A
HETATM   15  N3  UNL     1      -5.355   3.402  15.179  1.00  0.00    -0.293 N
HETATM   16  C13 UNL     1      -5.067   2.217  14.624  1.00  0.00     0.331 A
ATOM     17  H3  UNL     1      -5.653   3.455  16.152  1.00  0.00     0.172 HD
HETATM   18  O3  UNL     1      -5.173   1.174  15.330  1.00  0.00    -0.246 OA
BRANCH  13  19
HETATM   19  C5  UNL     1      -4.720   5.609  12.321  1.00  0.00    -0.060 C
HETATM   20  C4  UNL     1      -4.633   6.591  11.626  1.00  0.00    -0.078 C
BRANCH  20  21
HETATM   21  C2  UNL     1      -4.542   7.789  10.757  1.00  0.00     0.088 C
HETATM   22  C3  UNL     1      -5.835   8.615  10.892  1.00  0.00     0.043 C
BRANCH  21  23
HETATM   23  S1  UNL     1      -4.379   7.354   9.031  1.00  0.00    -0.148 SA
HETATM   24  C1  UNL     1      -3.572   5.764   8.761  1.00  0.00     0.091 C
ENDBRANCH  21  23
BRANCH  21  25
HETATM   25  C15 UNL     1      -3.417   8.616  11.304  1.00  0.00     0.197 C
BRANCH  25  26
HETATM   26  O4  UNL     1      -2.250   7.949  11.546  1.00  0.00    -0.398 OA
ATOM     27  H4  UNL     1      -2.050   7.237  10.951  1.00  0.00     0.209 HD
ENDBRANCH  25  26
ENDBRANCH  21  25
ENDBRANCH  20  21
ENDBRANCH  13  19
BRANCH  14  28
HETATM   28  N4  UNL     1      -5.534   5.656  15.009  1.00  0.00    -0.384 N
ATOM     29  H42 UNL     1      -6.199   5.662  15.781  1.00  0.00     0.157 HD
ATOM     30  H41 UNL     1      -5.110   6.529  14.696  1.00  0.00     0.157 HD
ENDBRANCH  14  28
ENDBRANCH   1  11
TORSDOF 7
ENDMDL