MODEL 2
REMARK VINA RESULT: -8.084596710      2.208      8.552
REMARK  14 active torsions:
REMARK  status: ('A' for Active; 'I' for Inactive)
REMARK    1  A    between atoms: C2_2  and  C3_3
REMARK    2  A    between atoms: C4_4  and  O1_5
REMARK    3  A    between atoms: O1_5  and  C5_6
REMARK    4  A    between atoms: C5_6  and  C6_7
REMARK    5  A    between atoms: C6_7  and  O2_8
REMARK    6  A    between atoms: C8_11  and  O3_12
REMARK    7  A    between atoms: O3_12  and  C9_13
REMARK    8  A    between atoms: C9_13  and  C10_15
REMARK    9  A    between atoms: C10_15  and  C11_16
REMARK   10  A    between atoms: C10_15  and  C18_23
REMARK   11  A    between atoms: C11_16  and  C12_17
REMARK   12  A    between atoms: C25_33  and  C26_34
REMARK   13  A    between atoms: C27_36  and  O7_37
REMARK   14  A    between atoms: O7_37  and  C28_38
ROOT
HETATM    1  C3  UNL     1      -0.592   8.947  37.412  1.00  0.00     0.060 C
HETATM    2  C4  UNL     1      -0.512   7.470  37.544  1.00  0.00     0.073 C
HETATM    3  C7  UNL     1       0.534   7.073  38.604  1.00  0.00     0.071 C
HETATM    4  C8  UNL     1       1.783   7.846  38.587  1.00  0.00     0.136 C
HETATM    5  C24 UNL     1       1.934   8.914  37.566  1.00  0.00     0.053 C
HETATM    6  C25 UNL     1       0.755   9.276  36.771  1.00  0.00     0.052 C
HETATM    7  C27 UNL     1       0.648   8.354  35.571  1.00  0.00     0.152 C
HETATM    8  C29 UNL     1       0.209   7.085  36.211  1.00  0.00     0.072 C
ENDROOT
BRANCH   4   9
HETATM    9  O3  UNL     1       2.935   6.989  38.585  1.00  0.00    -0.316 OA
BRANCH   9  10
HETATM   10  C9  UNL     1       4.153   7.344  38.148  1.00  0.00     0.264 C
HETATM   11  O4  UNL     1       4.502   7.169  36.983  1.00  0.00    -0.265 OA
BRANCH  10  12
HETATM   12  C10 UNL     1       5.216   8.010  39.092  1.00  0.00     0.099 C
BRANCH  12  13
HETATM   13  C11 UNL     1       5.509   9.221  38.300  1.00  0.00     0.020 C
BRANCH  13  14
HETATM   14  C12 UNL     1       6.748   9.988  38.289  1.00  0.00    -0.014 C
HETATM   15  C13 UNL     1       6.859  10.743  39.675  1.00  0.00     0.005 C
HETATM   16  C14 UNL     1       8.029  11.680  39.613  1.00  0.00     0.000 C
HETATM   17  C15 UNL     1       9.289  10.868  39.517  1.00  0.00     0.000 C
HETATM   18  C16 UNL     1       8.908   9.405  39.497  1.00  0.00     0.000 C
HETATM   19  C17 UNL     1       7.965   9.054  38.367  1.00  0.00     0.005 C
ENDBRANCH  13  14
ENDBRANCH  12  13
BRANCH  12  20
HETATM   20  C18 UNL     1       4.555   8.041  40.386  1.00  0.00     0.091 C
HETATM   21  C19 UNL     1       3.805   9.228  40.861  1.00  0.00     0.015 C
HETATM   22  C20 UNL     1       2.605   8.812  41.717  1.00  0.00     0.002 C
HETATM   23  C21 UNL     1       2.997   8.541  43.145  1.00  0.00     0.020 C
HETATM   24  C22 UNL     1       3.561   7.123  43.302  1.00  0.00     0.122 C
HETATM   25  N1  UNL     1       4.935   7.096  42.758  1.00  0.00    -0.361 N
HETATM   26  C23 UNL     1       5.426   7.639  41.551  1.00  0.00     0.222 C
ATOM     27  H1  UNL     1       5.626   6.619  43.337  1.00  0.00     0.162 HD
HETATM   28  O5  UNL     1       6.635   7.798  41.436  1.00  0.00    -0.273 OA
ENDBRANCH  12  20
ENDBRANCH  10  12
ENDBRANCH   9  10
ENDBRANCH   4   9
BRANCH   2  29
HETATM   29  O1  UNL     1      -1.554   6.707  37.561  1.00  0.00    -0.377 OA
BRANCH  29  30
HETATM   30  C5  UNL     1      -2.751   6.474  37.805  1.00  0.00     0.194 C
BRANCH  30  31
HETATM   31  C6  UNL     1      -3.770   7.381  37.104  1.00  0.00     0.190 C
BRANCH  31  32
HETATM   32  O2  UNL     1      -3.806   7.140  35.737  1.00  0.00    -0.399 OA
ATOM     33  H2  UNL     1      -4.661   7.333  35.373  1.00  0.00     0.209 HD
ENDBRANCH  31  32
ENDBRANCH  30  31
ENDBRANCH  29  30
ENDBRANCH   2  29
BRANCH   6  34
HETATM   34  C26 UNL     1       0.715  10.671  36.299  1.00  0.00     0.244 C
HETATM   35  O6  UNL     1       1.133  11.602  36.957  1.00  0.00    -0.306 OA
ENDBRANCH   6  34
BRANCH   1  36
HETATM   36  C2  UNL     1      -0.766   9.737  38.641  1.00  0.00    -0.028 C
HETATM   37  C1  UNL     1      -1.934   9.730  39.253  1.00  0.00     0.007 C
ENDBRANCH   1  36
BRANCH   7  38
HETATM   38  O7  UNL     1      -0.426   8.874  34.769  1.00  0.00    -0.300 OA
BRANCH  38  39
HETATM   39  C28 UNL     1      -0.770   8.285  33.561  1.00  0.00     0.373 C
HETATM   40  N2  UNL     1      -2.084   7.768  33.315  1.00  0.00    -0.032 NA
HETATM   41  O8  UNL     1       0.134   8.226  32.686  1.00  0.00    -0.242 OA
ENDBRANCH  38  39
ENDBRANCH   7  38
TORSDOF 14
ENDMDL