MODEL 2
REMARK VINA RESULT: -8.482432387      2.049      9.933
REMARK  16 active torsions:
REMARK  status: ('A' for Active; 'I' for Inactive)
REMARK    1  A    between atoms: C2_2  and  C3_3
REMARK    2  A    between atoms: C6_6  and  C7_7
REMARK       I    between atoms: C7_7  and  N1_9
REMARK    3  A    between atoms: C8_11  and  C9_12
REMARK       I    between atoms: C9_12  and  N2_14
REMARK    4  A    between atoms: N2_14  and  C10_16
REMARK    5  A    between atoms: C10_16  and  C11_17
REMARK    6  A    between atoms: C10_16  and  C18_26
REMARK    7  A    between atoms: C11_17  and  C12_18
REMARK    8  A    between atoms: C12_18  and  C13_19
REMARK    9  A    between atoms: C13_19  and  O4_21
REMARK   10  A    between atoms: O4_21  and  C14_22
REMARK       I    between atoms: C18_26  and  N3_28
REMARK   11  A    between atoms: N4_33  and  C22_34
REMARK   12  A    between atoms: C22_34  and  C23_35
REMARK   13  A    between atoms: C23_35  and  C24_36
REMARK   14  A    between atoms: C23_35  and  O7_39
REMARK   15  A    between atoms: C24_36  and  O6_37
REMARK   16  A    between atoms: O7_39  and  C25_40
ROOT
HETATM    1  C7  UNL     1       3.640   7.494  37.852  1.00  0.00     0.254 C
HETATM    2  O1  UNL     1       4.263   6.544  37.284  1.00  0.00    -0.268 OA
HETATM    3  N1  UNL     1       2.551   8.030  37.152  1.00  0.00    -0.328 N
ATOM      4  H1  UNL     1       1.692   8.156  37.687  1.00  0.00     0.168 HD
HETATM    5  C8  UNL     1       2.506   8.377  35.933  1.00  0.00     0.165 C
ENDROOT
BRANCH   1   6
HETATM    6  C6  UNL     1       4.113   7.923  39.154  1.00  0.00     0.036 C
HETATM    7  C4  UNL     1       3.356   7.812  40.255  1.00  0.00    -0.044 C
HETATM    8  C3  UNL     1       4.126   8.342  41.418  1.00  0.00     0.136 C
HETATM    9  C5  UNL     1       1.977   7.262  40.341  1.00  0.00     0.046 C
HETATM   10  N4  UNL     1       5.400   8.623  40.904  1.00  0.00    -0.371 N
HETATM   11  C20 UNL     1       5.435   8.504  39.505  1.00  0.00     0.119 C
HETATM   12  C21 UNL     1       6.496   7.480  39.135  1.00  0.00     0.037 C
BRANCH   8  13
HETATM   13  C2  UNL     1       4.235   7.253  42.422  1.00  0.00    -0.008 C
HETATM   14  C1  UNL     1       3.657   7.319  43.597  1.00  0.00     0.009 C
ENDBRANCH   8  13
BRANCH  10  15
HETATM   15  C22 UNL     1       6.540   8.525  41.680  1.00  0.00     0.094 C
BRANCH  15  16
HETATM   16  C23 UNL     1       7.393   9.744  41.920  1.00  0.00     0.184 C
BRANCH  16  17
HETATM   17  C24 UNL     1       7.555   9.815  43.441  1.00  0.00     0.201 C
BRANCH  17  18
HETATM   18  O6  UNL     1       6.262  10.056  43.939  1.00  0.00    -0.398 OA
ATOM     19  H6  UNL     1       6.371  10.154  44.878  1.00  0.00     0.209 HD
ENDBRANCH  17  18
ENDBRANCH  16  17
BRANCH  16  20
HETATM   20  O7  UNL     1       8.506   9.713  41.225  1.00  0.00    -0.369 OA
BRANCH  20  21
HETATM   21  C25 UNL     1       8.857  10.383  40.145  1.00  0.00     0.051 C
HETATM   22  C26 UNL     1       9.473   9.641  38.984  1.00  0.00     0.045 C
HETATM   23  C27 UNL     1       7.809  11.366  39.627  1.00  0.00     0.045 C
HETATM   24  C28 UNL     1      10.003  11.330  40.595  1.00  0.00     0.045 C
ENDBRANCH  20  21
ENDBRANCH  16  20
ENDBRANCH  15  16
ENDBRANCH  10  15
ENDBRANCH   1   6
BRANCH   5  25
HETATM   25  C9  UNL     1       1.282   8.915  35.373  1.00  0.00     0.257 C
HETATM   26  O2  UNL     1       0.933  10.077  35.737  1.00  0.00    -0.267 OA
HETATM   27  N2  UNL     1       0.498   8.175  34.449  1.00  0.00    -0.343 N
ATOM     28  H2  UNL     1       0.821   7.245  34.184  1.00  0.00     0.163 HD
BRANCH  27  29
HETATM   29  C10 UNL     1      -0.717   8.654  33.870  1.00  0.00     0.177 C
BRANCH  29  30
HETATM   30  C11 UNL     1      -1.878   8.004  34.626  1.00  0.00     0.044 C
BRANCH  30  31
HETATM   31  C12 UNL     1      -2.708   9.054  35.328  1.00  0.00     0.113 C
BRANCH  31  32
HETATM   32  C13 UNL     1      -3.480   8.419  36.443  1.00  0.00     0.259 C
HETATM   33  O3  UNL     1      -4.288   7.489  36.279  1.00  0.00    -0.265 OA
BRANCH  32  34
HETATM   34  O4  UNL     1      -3.281   8.897  37.738  1.00  0.00    -0.311 OA
BRANCH  34  35
HETATM   35  C14 UNL     1      -2.269   8.492  38.602  1.00  0.00     0.060 C
HETATM   36  C15 UNL     1      -1.017   9.339  38.545  1.00  0.00     0.045 C
HETATM   37  C16 UNL     1      -1.889   7.043  38.430  1.00  0.00     0.045 C
HETATM   38  C17 UNL     1      -2.820   8.619  40.027  1.00  0.00     0.045 C
ENDBRANCH  34  35
ENDBRANCH  32  34
ENDBRANCH  31  32
ENDBRANCH  30  31
ENDBRANCH  29  30
BRANCH  29  39
HETATM   39  C18 UNL     1      -0.826   8.462  32.429  1.00  0.00     0.240 C
HETATM   40  O5  UNL     1       0.183   8.134  31.755  1.00  0.00    -0.271 OA
HETATM   41  N3  UNL     1      -2.055   8.635  31.760  1.00  0.00    -0.364 N
HETATM   42  C19 UNL     1      -2.211   8.452  30.328  1.00  0.00     0.149 C
ATOM     43  H3  UNL     1      -2.872   8.901  32.308  1.00  0.00     0.161 HD
ENDBRANCH  29  39
ENDBRANCH  27  29
ENDBRANCH   5  25
TORSDOF 16
ENDMDL