MODEL 4
REMARK VINA RESULT: -8.346962592      2.020     10.893
REMARK  16 active torsions:
REMARK  status: ('A' for Active; 'I' for Inactive)
REMARK    1  A    between atoms: O1_2  and  C2_3
REMARK    2  A    between atoms: C6_7  and  N1_8
REMARK    3  A    between atoms: N1_8  and  C7_10
REMARK    4  A    between atoms: C8_13  and  N3_14
REMARK    5  A    between atoms: N3_14  and  C9_16
REMARK    6  A    between atoms: C9_16  and  C10_17
REMARK    7  A    between atoms: C10_17  and  C11_18
REMARK    8  A    between atoms: C11_18  and  C12_19
REMARK    9  A    between atoms: C12_19  and  C13_20
REMARK   10  A    between atoms: C15_25  and  N6_26
REMARK   11  A    between atoms: N6_26  and  C16_28
REMARK   12  A    between atoms: C16_28  and  C17_29
REMARK   13  A    between atoms: C17_29  and  C18_30
REMARK   14  A    between atoms: C18_30  and  N7_31
REMARK       I    between atoms: N8_34  and  C21_35
REMARK   15  A    between atoms: C21_35  and  O3_37
REMARK   16  A    between atoms: O3_37  and  C22_38
ROOT
HETATM    1  C13 UNL     1       7.320   9.793  40.159  1.00  0.00     0.124 C
HETATM    2  C14 UNL     1       7.182   8.347  39.929  1.00  0.00     0.059 C
HETATM    3  N4  UNL     1       7.064   7.211  39.737  1.00  0.00    -0.197 NA
ENDROOT
BRANCH   1   4
HETATM    4  C12 UNL     1       6.720  10.508  38.976  1.00  0.00     0.014 C
BRANCH   4   5
HETATM    5  C11 UNL     1       6.718   9.627  37.763  1.00  0.00     0.002 C
BRANCH   5   6
HETATM    6  C10 UNL     1       5.724  10.090  36.721  1.00  0.00     0.020 C
BRANCH   6   7
HETATM    7  C9  UNL     1       4.530   9.154  36.772  1.00  0.00     0.138 C
BRANCH   7   8
HETATM    8  N3  UNL     1       3.491   9.673  37.634  1.00  0.00    -0.225 N
ATOM      9  H3  UNL     1       3.159  10.632  37.527  1.00  0.00     0.177 HD
BRANCH   8  10
HETATM   10  C8  UNL     1       2.992   8.905  38.536  1.00  0.00     0.707 A
HETATM   11  N2  UNL     1       3.842   8.359  39.442  1.00  0.00    -0.021 N
HETATM   12  C7  UNL     1       3.355   7.556  40.390  1.00  0.00     0.711 A
ATOM     13  H2  UNL     1       4.841   8.561  39.398  1.00  0.00     0.203 HD
HETATM   14  N9  UNL     1       2.051   7.264  40.485  1.00  0.00    -0.021 N
HETATM   15  C15 UNL     1       1.221   7.805  39.589  1.00  0.00     0.707 A
ATOM     16  H9  UNL     1       1.702   6.647  41.219  1.00  0.00     0.203 HD
HETATM   17  N5  UNL     1       1.685   8.622  38.619  1.00  0.00    -0.022 N
ATOM     18  H5  UNL     1       1.036   9.027  37.945  1.00  0.00     0.203 HD
BRANCH  12  19
HETATM   19  N1  UNL     1       4.145   7.028  41.259  1.00  0.00    -0.191 N
ATOM     20  H1  UNL     1       4.729   6.246  40.963  1.00  0.00     0.184 HD
BRANCH  19  21
HETATM   21  C6  UNL     1       4.254   7.468  42.602  1.00  0.00     0.051 A
HETATM   22  C5  UNL     1       3.240   7.115  43.482  1.00  0.00     0.030 A
HETATM   23  C4  UNL     1       3.286   7.516  44.816  1.00  0.00     0.005 A
HETATM   24  C3  UNL     1       4.358   8.268  45.240  1.00  0.00     0.037 A
HETATM   25  C2  UNL     1       5.384   8.637  44.393  1.00  0.00     0.070 A
HETATM   26  C28 UNL     1       5.296   8.215  43.068  1.00  0.00     0.066 A
BRANCH  25  27
HETATM   27  O1  UNL     1       6.442   9.395  44.869  1.00  0.00    -0.356 OA
HETATM   28  C1  UNL     1       7.474   9.743  43.940  1.00  0.00     0.210 C
ENDBRANCH  25  27
ENDBRANCH  19  21
ENDBRANCH  12  19
BRANCH  15  29
HETATM   29  N6  UNL     1      -0.030   7.554  39.639  1.00  0.00    -0.225 N
ATOM     30  H6  UNL     1      -0.325   6.579  39.682  1.00  0.00     0.177 HD
BRANCH  29  31
HETATM   31  C16 UNL     1      -1.049   8.573  39.638  1.00  0.00     0.140 C
BRANCH  31  32
HETATM   32  C17 UNL     1      -2.392   7.962  39.270  1.00  0.00     0.050 C
BRANCH  32  33
HETATM   33  C18 UNL     1      -2.191   7.169  38.008  1.00  0.00     0.274 C
BRANCH  33  34
HETATM   34  N7  UNL     1      -2.168   8.052  36.871  1.00  0.00     0.091 N
HETATM   35  C19 UNL     1      -3.412   7.998  36.183  1.00  0.00     0.292 C
HETATM   36  C20 UNL     1      -3.403   8.923  34.955  1.00  0.00     0.158 C
HETATM   37  N8  UNL     1      -2.295   8.503  34.135  1.00  0.00    -0.325 N
HETATM   38  C21 UNL     1      -2.539   8.191  32.775  1.00  0.00     0.363 C
HETATM   39  C26 UNL     1      -0.991   8.418  34.728  1.00  0.00     0.158 C
HETATM   40  O2  UNL     1      -1.577   7.822  32.054  1.00  0.00    -0.238 OA
HETATM   41  C27 UNL     1      -1.007   7.738  36.070  1.00  0.00     0.292 C
BRANCH  38  42
HETATM   42  O3  UNL     1      -3.773   8.264  32.180  1.00  0.00    -0.294 OA
BRANCH  42  43
HETATM   43  C22 UNL     1      -4.268   9.345  31.454  1.00  0.00     0.061 C
HETATM   44  C23 UNL     1      -5.642   9.691  31.988  1.00  0.00     0.046 C
HETATM   45  C24 UNL     1      -3.430  10.585  31.513  1.00  0.00     0.046 C
HETATM   46  C25 UNL     1      -4.383   8.940  29.999  1.00  0.00     0.046 C
ENDBRANCH  42  43
ENDBRANCH  38  42
ENDBRANCH  33  34
ENDBRANCH  32  33
ENDBRANCH  31  32
ENDBRANCH  29  31
ENDBRANCH  15  29
ENDBRANCH   8  10
ENDBRANCH   7   8
ENDBRANCH   6   7
ENDBRANCH   5   6
ENDBRANCH   4   5
ENDBRANCH   1   4
TORSDOF 16
ENDMDL